data_job_02278
_audit_creation_date              2018-12-19
_audit_creation_method            'Materials Studio'
_symmetry_space_group_name_H-M    'P1'
_symmetry_Int_Tables_number       1
_symmetry_cell_setting            triclinic
loop_
_symmetry_equiv_pos_as_xyz
  x,y,z
_cell_length_a                    22.2531
_cell_length_b                    10.9501
_cell_length_c                    21.9066
_cell_angle_alpha                 90.0000
_cell_angle_beta                  90.0000
_cell_angle_gamma                 90.0000
loop_
_atom_site_label
_atom_site_type_symbol
_atom_site_fract_x
_atom_site_fract_y
_atom_site_fract_z
_atom_site_U_iso_or_equiv
_atom_site_adp_type
_atom_site_occupancy
C1     C     0.40785   0.73465   0.58136   0.00000  Uiso   1.00
C2     C     0.36804   0.79083   0.63058   0.00000  Uiso   1.00
C3     C     0.31550   0.85602   0.62046   0.00000  Uiso   1.00
C4     C     0.28557   0.89997   0.67155   0.00000  Uiso   1.00
C5     C     0.22046   0.99038   0.73899   0.00000  Uiso   1.00
C6     C     0.47041   0.78795   0.59118   0.00000  Uiso   1.00
C7     C     0.50394   0.85070   0.54794   0.00000  Uiso   1.00
C8     C     0.56020   0.89220   0.56586   0.00000  Uiso   1.00
C9     C     0.65403   0.97805   0.57212   0.00000  Uiso   1.00
C10    C     0.41269   0.59923   0.59682   0.00000  Uiso   1.00
C11    C     0.39771   0.50331   0.55831   0.00000  Uiso   1.00
C12    C     0.40538   0.38592   0.58098   0.00000  Uiso   1.00
C13    C     0.40959   0.17877   0.59599   0.00000  Uiso   1.00
C14    C     0.44814   0.69676   0.69007   0.00000  Uiso   1.00
C15    C     0.38993   0.77025   0.68962   0.00000  Uiso   1.00
C16    C     0.36007   0.81410   0.74074   0.00000  Uiso   1.00
C17    C     0.30749   0.87935   0.73071   0.00000  Uiso   1.00
C18    C     0.49230   0.76737   0.65022   0.00000  Uiso   1.00
C19    C     0.54852   0.80878   0.66822   0.00000  Uiso   1.00
C20    C     0.58212   0.87158   0.62502   0.00000  Uiso   1.00
C21    C     0.43458   0.57865   0.65587   0.00000  Uiso   1.00
C22    C     0.44228   0.46139   0.67859   0.00000  Uiso   1.00
C23    C     0.42730   0.36531   0.64013   0.00000  Uiso   1.00
H24    H     0.39081   0.75068   0.53538   0.00000  Uiso   1.00
H25    H     0.29858   0.87194   0.57476   0.00000  Uiso   1.00
H26    H     0.48700   0.86660   0.50225   0.00000  Uiso   1.00
H27    H     0.38077   0.51927   0.51262   0.00000  Uiso   1.00
H28    H     0.20599   0.99735   0.64445   0.00000  Uiso   1.00
H29    H     0.60328   0.98605   0.49155   0.00000  Uiso   1.00
H30    H     0.37929   0.25363   0.51342   0.00000  Uiso   1.00
H31    H     0.46517   0.68074   0.73604   0.00000  Uiso   1.00
H32    H     0.37702   0.79816   0.78643   0.00000  Uiso   1.00
H33    H     0.56544   0.79283   0.71392   0.00000  Uiso   1.00
H34    H     0.45921   0.44550   0.72429   0.00000  Uiso   1.00
H35    H     0.26965   0.93747   0.81625   0.00000  Uiso   1.00
H36    H     0.66695   0.92617   0.66334   0.00000  Uiso   1.00
H37    H     0.44296   0.19376   0.68522   0.00000  Uiso   1.00
O38    O     0.17850   0.04595   0.75988   0.00000  Uiso   1.00
O39    O     0.69974   0.03110   0.55927   0.00000  Uiso   1.00
O40    O     0.40586   0.07020   0.58796   0.00000  Uiso   1.00
N41    N     0.23306   0.96712   0.67797   0.00000  Uiso   1.00
N42    N     0.60451   0.95657   0.53502   0.00000  Uiso   1.00
N43    N     0.39511   0.27182   0.55546   0.00000  Uiso   1.00
N44    N     0.26732   0.93490   0.77042   0.00000  Uiso   1.00
N45    N     0.63877   0.92435   0.62746   0.00000  Uiso   1.00
N46    N     0.42937   0.23960   0.64790   0.00000  Uiso   1.00
C47    C     0.09215   0.76535   0.58136   0.00000  Uiso   1.00
C48    C     0.13196   0.70917   0.63058   0.00000  Uiso   1.00
C49    C     0.18450   0.64398   0.62046   0.00000  Uiso   1.00
C50    C     0.21443   0.60003   0.67155   0.00000  Uiso   1.00
C51    C     0.27954   0.50962   0.73899   0.00000  Uiso   1.00
C52    C     0.02959   0.71205   0.59118   0.00000  Uiso   1.00
C53    C     0.99606   0.64930   0.54794   0.00000  Uiso   1.00
C54    C     0.93980   0.60780   0.56586   0.00000  Uiso   1.00
C55    C     0.84597   0.52195   0.57212   0.00000  Uiso   1.00
C56    C     0.08731   0.90077   0.59682   0.00000  Uiso   1.00
C57    C     0.10229   0.99669   0.55831   0.00000  Uiso   1.00
C58    C     0.09462   0.11408   0.58098   0.00000  Uiso   1.00
C59    C     0.09041   0.32123   0.59599   0.00000  Uiso   1.00
C60    C     0.05186   0.80324   0.69007   0.00000  Uiso   1.00
C61    C     0.11007   0.72975   0.68962   0.00000  Uiso   1.00
C62    C     0.13993   0.68590   0.74074   0.00000  Uiso   1.00
C63    C     0.19251   0.62065   0.73071   0.00000  Uiso   1.00
C64    C     0.00770   0.73263   0.65022   0.00000  Uiso   1.00
C65    C     0.95148   0.69122   0.66822   0.00000  Uiso   1.00
C66    C     0.91788   0.62842   0.62502   0.00000  Uiso   1.00
C67    C     0.06542   0.92135   0.65587   0.00000  Uiso   1.00
C68    C     0.05772   0.03861   0.67859   0.00000  Uiso   1.00
C69    C     0.07270   0.13469   0.64013   0.00000  Uiso   1.00
H70    H     0.10919   0.74932   0.53538   0.00000  Uiso   1.00
H71    H     0.20142   0.62806   0.57476   0.00000  Uiso   1.00
H72    H     0.01300   0.63340   0.50225   0.00000  Uiso   1.00
H73    H     0.11923   0.98073   0.51262   0.00000  Uiso   1.00
H74    H     0.29401   0.50265   0.64445   0.00000  Uiso   1.00
H75    H     0.89672   0.51395   0.49155   0.00000  Uiso   1.00
H76    H     0.12071   0.24637   0.51342   0.00000  Uiso   1.00
H77    H     0.03483   0.81926   0.73604   0.00000  Uiso   1.00
H78    H     0.12298   0.70184   0.78643   0.00000  Uiso   1.00
H79    H     0.93456   0.70717   0.71392   0.00000  Uiso   1.00
H80    H     0.04079   0.05450   0.72429   0.00000  Uiso   1.00
H81    H     0.23035   0.56253   0.81625   0.00000  Uiso   1.00
H82    H     0.83305   0.57383   0.66334   0.00000  Uiso   1.00
H83    H     0.05704   0.30624   0.68522   0.00000  Uiso   1.00
O84    O     0.32150   0.45405   0.75988   0.00000  Uiso   1.00
O85    O     0.80026   0.46890   0.55927   0.00000  Uiso   1.00
O86    O     0.09414   0.42980   0.58796   0.00000  Uiso   1.00
N87    N     0.26694   0.53288   0.67797   0.00000  Uiso   1.00
N88    N     0.89549   0.54343   0.53502   0.00000  Uiso   1.00
N89    N     0.10489   0.22818   0.55546   0.00000  Uiso   1.00
N90    N     0.23268   0.56510   0.77042   0.00000  Uiso   1.00
N91    N     0.86123   0.57565   0.62746   0.00000  Uiso   1.00
N92    N     0.07063   0.26040   0.64790   0.00000  Uiso   1.00
C93    C     0.59215   0.23465   0.91864   0.00000  Uiso   1.00
C94    C     0.63196   0.29083   0.86942   0.00000  Uiso   1.00
C95    C     0.68450   0.35602   0.87954   0.00000  Uiso   1.00
C96    C     0.71443   0.39997   0.82845   0.00000  Uiso   1.00
C97    C     0.77954   0.49038   0.76101   0.00000  Uiso   1.00
C98    C     0.52959   0.28795   0.90882   0.00000  Uiso   1.00
C99    C     0.49606   0.35070   0.95206   0.00000  Uiso   1.00
C100   C     0.43980   0.39220   0.93414   0.00000  Uiso   1.00
C101   C     0.34597   0.47805   0.92788   0.00000  Uiso   1.00
C102   C     0.58731   0.09923   0.90318   0.00000  Uiso   1.00
C103   C     0.60229   0.00331   0.94169   0.00000  Uiso   1.00
C104   C     0.59462   0.88592   0.91902   0.00000  Uiso   1.00
C105   C     0.59041   0.67877   0.90401   0.00000  Uiso   1.00
C106   C     0.55186   0.19676   0.80993   0.00000  Uiso   1.00
C107   C     0.61007   0.27025   0.81038   0.00000  Uiso   1.00
C108   C     0.63993   0.31410   0.75926   0.00000  Uiso   1.00
C109   C     0.69251   0.37935   0.76929   0.00000  Uiso   1.00
C110   C     0.50770   0.26737   0.84978   0.00000  Uiso   1.00
C111   C     0.45148   0.30878   0.83178   0.00000  Uiso   1.00
C112   C     0.41788   0.37158   0.87498   0.00000  Uiso   1.00
C113   C     0.56542   0.07865   0.84413   0.00000  Uiso   1.00
C114   C     0.55772   0.96139   0.82141   0.00000  Uiso   1.00
C115   C     0.57270   0.86531   0.85987   0.00000  Uiso   1.00
H116   H     0.60919   0.25068   0.96462   0.00000  Uiso   1.00
H117   H     0.70142   0.37194   0.92524   0.00000  Uiso   1.00
H118   H     0.51300   0.36660   0.99775   0.00000  Uiso   1.00
H119   H     0.61923   0.01927   0.98738   0.00000  Uiso   1.00
H120   H     0.79401   0.49735   0.85555   0.00000  Uiso   1.00
H121   H     0.39672   0.48605   0.00845   0.00000  Uiso   1.00
H122   H     0.62071   0.75363   0.98658   0.00000  Uiso   1.00
H123   H     0.53483   0.18074   0.76396   0.00000  Uiso   1.00
H124   H     0.62298   0.29816   0.71357   0.00000  Uiso   1.00
H125   H     0.43456   0.29283   0.78608   0.00000  Uiso   1.00
H126   H     0.54079   0.94550   0.77571   0.00000  Uiso   1.00
H127   H     0.73035   0.43747   0.68375   0.00000  Uiso   1.00
H128   H     0.33305   0.42617   0.83666   0.00000  Uiso   1.00
H129   H     0.55704   0.69376   0.81478   0.00000  Uiso   1.00
O130   O     0.82150   0.54595   0.74012   0.00000  Uiso   1.00
O131   O     0.30026   0.53110   0.94073   0.00000  Uiso   1.00
O132   O     0.59414   0.57020   0.91204   0.00000  Uiso   1.00
N133   N     0.76694   0.46712   0.82203   0.00000  Uiso   1.00
N134   N     0.39549   0.45657   0.96498   0.00000  Uiso   1.00
N135   N     0.60489   0.77182   0.94454   0.00000  Uiso   1.00
N136   N     0.73268   0.43490   0.72958   0.00000  Uiso   1.00
N137   N     0.36123   0.42435   0.87254   0.00000  Uiso   1.00
N138   N     0.57063   0.73960   0.85210   0.00000  Uiso   1.00
C139   C     0.90785   0.26535   0.91864   0.00000  Uiso   1.00
C140   C     0.86804   0.20917   0.86942   0.00000  Uiso   1.00
C141   C     0.81550   0.14398   0.87954   0.00000  Uiso   1.00
C142   C     0.78557   0.10003   0.82845   0.00000  Uiso   1.00
C143   C     0.72046   0.00962   0.76101   0.00000  Uiso   1.00
C144   C     0.97041   0.21205   0.90882   0.00000  Uiso   1.00
C145   C     0.00394   0.14930   0.95206   0.00000  Uiso   1.00
C146   C     0.06020   0.10780   0.93414   0.00000  Uiso   1.00
C147   C     0.15403   0.02195   0.92788   0.00000  Uiso   1.00
C148   C     0.91269   0.40077   0.90318   0.00000  Uiso   1.00
C149   C     0.89771   0.49669   0.94169   0.00000  Uiso   1.00
C150   C     0.90538   0.61408   0.91902   0.00000  Uiso   1.00
C151   C     0.90959   0.82123   0.90401   0.00000  Uiso   1.00
C152   C     0.94814   0.30324   0.80993   0.00000  Uiso   1.00
C153   C     0.88993   0.22975   0.81038   0.00000  Uiso   1.00
C154   C     0.86007   0.18590   0.75926   0.00000  Uiso   1.00
C155   C     0.80749   0.12065   0.76929   0.00000  Uiso   1.00
C156   C     0.99230   0.23263   0.84978   0.00000  Uiso   1.00
C157   C     0.04852   0.19122   0.83178   0.00000  Uiso   1.00
C158   C     0.08212   0.12842   0.87498   0.00000  Uiso   1.00
C159   C     0.93458   0.42135   0.84413   0.00000  Uiso   1.00
C160   C     0.94228   0.53861   0.82141   0.00000  Uiso   1.00
C161   C     0.92730   0.63469   0.85987   0.00000  Uiso   1.00
H162   H     0.89081   0.24932   0.96462   0.00000  Uiso   1.00
H163   H     0.79858   0.12806   0.92524   0.00000  Uiso   1.00
H164   H     0.98700   0.13340   0.99775   0.00000  Uiso   1.00
H165   H     0.88077   0.48073   0.98738   0.00000  Uiso   1.00
H166   H     0.70599   0.00265   0.85555   0.00000  Uiso   1.00
H167   H     0.10328   0.01395   0.00845   0.00000  Uiso   1.00
H168   H     0.87929   0.74637   0.98658   0.00000  Uiso   1.00
H169   H     0.96517   0.31926   0.76396   0.00000  Uiso   1.00
H170   H     0.87702   0.20184   0.71357   0.00000  Uiso   1.00
H171   H     0.06544   0.20717   0.78608   0.00000  Uiso   1.00
H172   H     0.95921   0.55450   0.77571   0.00000  Uiso   1.00
H173   H     0.76965   0.06253   0.68375   0.00000  Uiso   1.00
H174   H     0.16695   0.07383   0.83666   0.00000  Uiso   1.00
H175   H     0.94296   0.80624   0.81478   0.00000  Uiso   1.00
O176   O     0.67850   0.95405   0.74012   0.00000  Uiso   1.00
O177   O     0.19974   0.96890   0.94073   0.00000  Uiso   1.00
O178   O     0.90586   0.92980   0.91204   0.00000  Uiso   1.00
N179   N     0.73306   0.03288   0.82203   0.00000  Uiso   1.00
N180   N     0.10451   0.04343   0.96498   0.00000  Uiso   1.00
N181   N     0.89511   0.72818   0.94454   0.00000  Uiso   1.00
N182   N     0.76732   0.06510   0.72958   0.00000  Uiso   1.00
N183   N     0.13877   0.07565   0.87254   0.00000  Uiso   1.00
N184   N     0.92937   0.76040   0.85210   0.00000  Uiso   1.00
C185   C     0.59215   0.26535   0.41864   0.00000  Uiso   1.00
C186   C     0.63196   0.20917   0.36942   0.00000  Uiso   1.00
C187   C     0.68450   0.14398   0.37954   0.00000  Uiso   1.00
C188   C     0.71443   0.10003   0.32845   0.00000  Uiso   1.00
C189   C     0.77954   0.00962   0.26101   0.00000  Uiso   1.00
C190   C     0.52959   0.21205   0.40882   0.00000  Uiso   1.00
C191   C     0.49606   0.14930   0.45206   0.00000  Uiso   1.00
C192   C     0.43980   0.10780   0.43414   0.00000  Uiso   1.00
C193   C     0.34597   0.02195   0.42788   0.00000  Uiso   1.00
C194   C     0.58731   0.40077   0.40318   0.00000  Uiso   1.00
C195   C     0.60229   0.49669   0.44169   0.00000  Uiso   1.00
C196   C     0.59462   0.61408   0.41902   0.00000  Uiso   1.00
C197   C     0.59041   0.82123   0.40401   0.00000  Uiso   1.00
C198   C     0.55186   0.30324   0.30993   0.00000  Uiso   1.00
C199   C     0.61007   0.22975   0.31038   0.00000  Uiso   1.00
C200   C     0.63993   0.18590   0.25926   0.00000  Uiso   1.00
C201   C     0.69251   0.12065   0.26929   0.00000  Uiso   1.00
C202   C     0.50770   0.23263   0.34978   0.00000  Uiso   1.00
C203   C     0.45148   0.19122   0.33178   0.00000  Uiso   1.00
C204   C     0.41788   0.12842   0.37498   0.00000  Uiso   1.00
C205   C     0.56542   0.42135   0.34413   0.00000  Uiso   1.00
C206   C     0.55772   0.53861   0.32141   0.00000  Uiso   1.00
C207   C     0.57270   0.63469   0.35987   0.00000  Uiso   1.00
H208   H     0.60919   0.24932   0.46462   0.00000  Uiso   1.00
H209   H     0.70142   0.12806   0.42524   0.00000  Uiso   1.00
H210   H     0.51300   0.13340   0.49775   0.00000  Uiso   1.00
H211   H     0.61923   0.48073   0.48738   0.00000  Uiso   1.00
H212   H     0.79401   0.00265   0.35555   0.00000  Uiso   1.00
H213   H     0.39672   0.01395   0.50845   0.00000  Uiso   1.00
H214   H     0.62071   0.74637   0.48658   0.00000  Uiso   1.00
H215   H     0.53483   0.31926   0.26396   0.00000  Uiso   1.00
H216   H     0.62298   0.20184   0.21357   0.00000  Uiso   1.00
H217   H     0.43456   0.20717   0.28608   0.00000  Uiso   1.00
H218   H     0.54079   0.55450   0.27571   0.00000  Uiso   1.00
H219   H     0.73035   0.06253   0.18375   0.00000  Uiso   1.00
H220   H     0.33305   0.07383   0.33666   0.00000  Uiso   1.00
H221   H     0.55704   0.80624   0.31478   0.00000  Uiso   1.00
O222   O     0.82150   0.95405   0.24012   0.00000  Uiso   1.00
O223   O     0.30026   0.96890   0.44073   0.00000  Uiso   1.00
O224   O     0.59414   0.92980   0.41204   0.00000  Uiso   1.00
N225   N     0.76694   0.03288   0.32203   0.00000  Uiso   1.00
N226   N     0.39549   0.04343   0.46498   0.00000  Uiso   1.00
N227   N     0.60489   0.72818   0.44454   0.00000  Uiso   1.00
N228   N     0.73268   0.06510   0.22958   0.00000  Uiso   1.00
N229   N     0.36123   0.07565   0.37254   0.00000  Uiso   1.00
N230   N     0.57063   0.76040   0.35210   0.00000  Uiso   1.00
C231   C     0.90785   0.23465   0.41864   0.00000  Uiso   1.00
C232   C     0.86804   0.29083   0.36942   0.00000  Uiso   1.00
C233   C     0.81550   0.35602   0.37954   0.00000  Uiso   1.00
C234   C     0.78557   0.39997   0.32845   0.00000  Uiso   1.00
C235   C     0.72046   0.49038   0.26101   0.00000  Uiso   1.00
C236   C     0.97041   0.28795   0.40882   0.00000  Uiso   1.00
C237   C     0.00394   0.35070   0.45206   0.00000  Uiso   1.00
C238   C     0.06020   0.39220   0.43414   0.00000  Uiso   1.00
C239   C     0.15403   0.47805   0.42788   0.00000  Uiso   1.00
C240   C     0.91269   0.09923   0.40318   0.00000  Uiso   1.00
C241   C     0.89771   0.00331   0.44169   0.00000  Uiso   1.00
C242   C     0.90538   0.88592   0.41902   0.00000  Uiso   1.00
C243   C     0.90959   0.67877   0.40401   0.00000  Uiso   1.00
C244   C     0.94814   0.19676   0.30993   0.00000  Uiso   1.00
C245   C     0.88993   0.27025   0.31038   0.00000  Uiso   1.00
C246   C     0.86007   0.31410   0.25926   0.00000  Uiso   1.00
C247   C     0.80749   0.37935   0.26929   0.00000  Uiso   1.00
C248   C     0.99230   0.26737   0.34978   0.00000  Uiso   1.00
C249   C     0.04852   0.30878   0.33178   0.00000  Uiso   1.00
C250   C     0.08212   0.37158   0.37498   0.00000  Uiso   1.00
C251   C     0.93458   0.07865   0.34413   0.00000  Uiso   1.00
C252   C     0.94228   0.96139   0.32141   0.00000  Uiso   1.00
C253   C     0.92730   0.86531   0.35987   0.00000  Uiso   1.00
H254   H     0.89081   0.25068   0.46462   0.00000  Uiso   1.00
H255   H     0.79858   0.37194   0.42524   0.00000  Uiso   1.00
H256   H     0.98700   0.36660   0.49775   0.00000  Uiso   1.00
H257   H     0.88077   0.01927   0.48738   0.00000  Uiso   1.00
H258   H     0.70599   0.49735   0.35555   0.00000  Uiso   1.00
H259   H     0.10328   0.48605   0.50845   0.00000  Uiso   1.00
H260   H     0.87929   0.75363   0.48658   0.00000  Uiso   1.00
H261   H     0.96517   0.18074   0.26396   0.00000  Uiso   1.00
H262   H     0.87702   0.29816   0.21357   0.00000  Uiso   1.00
H263   H     0.06544   0.29283   0.28608   0.00000  Uiso   1.00
H264   H     0.95921   0.94550   0.27571   0.00000  Uiso   1.00
H265   H     0.76965   0.43747   0.18375   0.00000  Uiso   1.00
H266   H     0.16695   0.42617   0.33666   0.00000  Uiso   1.00
H267   H     0.94296   0.69376   0.31478   0.00000  Uiso   1.00
O268   O     0.67850   0.54595   0.24012   0.00000  Uiso   1.00
O269   O     0.19974   0.53110   0.44073   0.00000  Uiso   1.00
O270   O     0.90586   0.57020   0.41204   0.00000  Uiso   1.00
N271   N     0.73306   0.46712   0.32203   0.00000  Uiso   1.00
N272   N     0.10451   0.45657   0.46498   0.00000  Uiso   1.00
N273   N     0.89511   0.77182   0.44454   0.00000  Uiso   1.00
N274   N     0.76732   0.43490   0.22958   0.00000  Uiso   1.00
N275   N     0.13877   0.42435   0.37254   0.00000  Uiso   1.00
N276   N     0.92937   0.73960   0.35210   0.00000  Uiso   1.00
C277   C     0.40785   0.76535   0.08136   0.00000  Uiso   1.00
C278   C     0.36804   0.70917   0.13058   0.00000  Uiso   1.00
C279   C     0.31550   0.64398   0.12046   0.00000  Uiso   1.00
C280   C     0.28557   0.60003   0.17155   0.00000  Uiso   1.00
C281   C     0.22046   0.50962   0.23899   0.00000  Uiso   1.00
C282   C     0.47041   0.71205   0.09118   0.00000  Uiso   1.00
C283   C     0.50394   0.64930   0.04794   0.00000  Uiso   1.00
C284   C     0.56020   0.60780   0.06586   0.00000  Uiso   1.00
C285   C     0.65403   0.52195   0.07212   0.00000  Uiso   1.00
C286   C     0.41269   0.90077   0.09682   0.00000  Uiso   1.00
C287   C     0.39771   0.99669   0.05831   0.00000  Uiso   1.00
C288   C     0.40538   0.11408   0.08098   0.00000  Uiso   1.00
C289   C     0.40959   0.32123   0.09599   0.00000  Uiso   1.00
C290   C     0.44814   0.80324   0.19007   0.00000  Uiso   1.00
C291   C     0.38993   0.72975   0.18962   0.00000  Uiso   1.00
C292   C     0.36007   0.68590   0.24074   0.00000  Uiso   1.00
C293   C     0.30749   0.62065   0.23071   0.00000  Uiso   1.00
C294   C     0.49230   0.73263   0.15022   0.00000  Uiso   1.00
C295   C     0.54852   0.69122   0.16822   0.00000  Uiso   1.00
C296   C     0.58212   0.62842   0.12502   0.00000  Uiso   1.00
C297   C     0.43458   0.92135   0.15587   0.00000  Uiso   1.00
C298   C     0.44228   0.03861   0.17859   0.00000  Uiso   1.00
C299   C     0.42730   0.13469   0.14013   0.00000  Uiso   1.00
H300   H     0.39081   0.74932   0.03538   0.00000  Uiso   1.00
H301   H     0.29858   0.62806   0.07476   0.00000  Uiso   1.00
H302   H     0.48700   0.63340   0.00225   0.00000  Uiso   1.00
H303   H     0.38077   0.98073   0.01262   0.00000  Uiso   1.00
H304   H     0.20599   0.50265   0.14445   0.00000  Uiso   1.00
H305   H     0.60328   0.51395   0.99155   0.00000  Uiso   1.00
H306   H     0.37929   0.24637   0.01342   0.00000  Uiso   1.00
H307   H     0.46517   0.81926   0.23604   0.00000  Uiso   1.00
H308   H     0.37702   0.70184   0.28643   0.00000  Uiso   1.00
H309   H     0.56544   0.70717   0.21392   0.00000  Uiso   1.00
H310   H     0.45921   0.05450   0.22429   0.00000  Uiso   1.00
H311   H     0.26965   0.56253   0.31625   0.00000  Uiso   1.00
H312   H     0.66695   0.57383   0.16334   0.00000  Uiso   1.00
H313   H     0.44296   0.30624   0.18522   0.00000  Uiso   1.00
O314   O     0.17850   0.45405   0.25988   0.00000  Uiso   1.00
O315   O     0.69974   0.46890   0.05927   0.00000  Uiso   1.00
O316   O     0.40586   0.42980   0.08796   0.00000  Uiso   1.00
N317   N     0.23306   0.53288   0.17797   0.00000  Uiso   1.00
N318   N     0.60451   0.54343   0.03502   0.00000  Uiso   1.00
N319   N     0.39511   0.22818   0.05546   0.00000  Uiso   1.00
N320   N     0.26732   0.56510   0.27042   0.00000  Uiso   1.00
N321   N     0.63877   0.57565   0.12746   0.00000  Uiso   1.00
N322   N     0.42937   0.26040   0.14790   0.00000  Uiso   1.00
C323   C     0.09215   0.73465   0.08136   0.00000  Uiso   1.00
C324   C     0.13196   0.79083   0.13058   0.00000  Uiso   1.00
C325   C     0.18450   0.85602   0.12046   0.00000  Uiso   1.00
C326   C     0.21443   0.89997   0.17155   0.00000  Uiso   1.00
C327   C     0.27954   0.99038   0.23899   0.00000  Uiso   1.00
C328   C     0.02959   0.78795   0.09118   0.00000  Uiso   1.00
C329   C     0.99606   0.85070   0.04794   0.00000  Uiso   1.00
C330   C     0.93980   0.89220   0.06586   0.00000  Uiso   1.00
C331   C     0.84597   0.97805   0.07212   0.00000  Uiso   1.00
C332   C     0.08731   0.59923   0.09682   0.00000  Uiso   1.00
C333   C     0.10229   0.50331   0.05831   0.00000  Uiso   1.00
C334   C     0.09462   0.38592   0.08098   0.00000  Uiso   1.00
C335   C     0.09041   0.17877   0.09599   0.00000  Uiso   1.00
C336   C     0.05186   0.69676   0.19007   0.00000  Uiso   1.00
C337   C     0.11007   0.77025   0.18962   0.00000  Uiso   1.00
C338   C     0.13993   0.81410   0.24074   0.00000  Uiso   1.00
C339   C     0.19251   0.87935   0.23071   0.00000  Uiso   1.00
C340   C     0.00770   0.76737   0.15022   0.00000  Uiso   1.00
C341   C     0.95148   0.80878   0.16822   0.00000  Uiso   1.00
C342   C     0.91788   0.87158   0.12502   0.00000  Uiso   1.00
C343   C     0.06542   0.57865   0.15587   0.00000  Uiso   1.00
C344   C     0.05772   0.46139   0.17859   0.00000  Uiso   1.00
C345   C     0.07270   0.36531   0.14013   0.00000  Uiso   1.00
H346   H     0.10919   0.75068   0.03538   0.00000  Uiso   1.00
H347   H     0.20142   0.87194   0.07476   0.00000  Uiso   1.00
H348   H     0.01300   0.86660   0.00225   0.00000  Uiso   1.00
H349   H     0.11923   0.51927   0.01262   0.00000  Uiso   1.00
H350   H     0.29401   0.99735   0.14445   0.00000  Uiso   1.00
H351   H     0.89672   0.98605   0.99155   0.00000  Uiso   1.00
H352   H     0.12071   0.25363   0.01342   0.00000  Uiso   1.00
H353   H     0.03483   0.68074   0.23604   0.00000  Uiso   1.00
H354   H     0.12298   0.79816   0.28643   0.00000  Uiso   1.00
H355   H     0.93456   0.79283   0.21392   0.00000  Uiso   1.00
H356   H     0.04079   0.44550   0.22429   0.00000  Uiso   1.00
H357   H     0.23035   0.93747   0.31625   0.00000  Uiso   1.00
H358   H     0.83305   0.92617   0.16334   0.00000  Uiso   1.00
H359   H     0.05704   0.19376   0.18522   0.00000  Uiso   1.00
O360   O     0.32150   0.04595   0.25988   0.00000  Uiso   1.00
O361   O     0.80026   0.03110   0.05927   0.00000  Uiso   1.00
O362   O     0.09414   0.07020   0.08796   0.00000  Uiso   1.00
N363   N     0.26694   0.96712   0.17797   0.00000  Uiso   1.00
N364   N     0.89549   0.95657   0.03502   0.00000  Uiso   1.00
N365   N     0.10489   0.27182   0.05546   0.00000  Uiso   1.00
N366   N     0.23268   0.93490   0.27042   0.00000  Uiso   1.00
N367   N     0.86123   0.92435   0.12746   0.00000  Uiso   1.00
N368   N     0.07063   0.23960   0.14790   0.00000  Uiso   1.00
