data_job_02974
_audit_creation_date              2018-12-19
_audit_creation_method            'Materials Studio'
_symmetry_space_group_name_H-M    'P1'
_symmetry_Int_Tables_number       1
_symmetry_cell_setting            triclinic
loop_
_symmetry_equiv_pos_as_xyz
  x,y,z
_cell_length_a                    12.1625
_cell_length_b                    19.9718
_cell_length_c                    23.6392
_cell_angle_alpha                 90.0000
_cell_angle_beta                  90.0000
_cell_angle_gamma                 90.0000
loop_
_atom_site_label
_atom_site_type_symbol
_atom_site_fract_x
_atom_site_fract_y
_atom_site_fract_z
_atom_site_U_iso_or_equiv
_atom_site_adp_type
_atom_site_occupancy
C1     C     0.77773   0.05138   0.92894   0.00000  Uiso   1.00
C2     C     0.69123   0.08763   0.89369   0.00000  Uiso   1.00
C3     C     0.58849   0.10795   0.91260   0.00000  Uiso   1.00
C4     C     0.52128   0.14036   0.87382   0.00000  Uiso   1.00
C5     C     0.38171   0.19485   0.82755   0.00000  Uiso   1.00
C6     C     0.80408   0.98693   0.89712   0.00000  Uiso   1.00
C7     C     0.79624   0.92258   0.91892   0.00000  Uiso   1.00
C8     C     0.82405   0.87023   0.88302   0.00000  Uiso   1.00
C9     C     0.85976   0.76838   0.84208   0.00000  Uiso   1.00
C10    C     0.88128   0.09426   0.92577   0.00000  Uiso   1.00
C11    C     0.93838   0.12014   0.97166   0.00000  Uiso   1.00
C12    C     0.03120   0.15813   0.95988   0.00000  Uiso   1.00
C13    C     0.18678   0.22293   0.96343   0.00000  Uiso   1.00
C14    C     0.84107   0.07281   0.82644   0.00000  Uiso   1.00
C15    C     0.72563   0.09927   0.83802   0.00000  Uiso   1.00
C16    C     0.65856   0.13166   0.79920   0.00000  Uiso   1.00
C17    C     0.55575   0.15203   0.81805   0.00000  Uiso   1.00
C18    C     0.83848   0.99857   0.84145   0.00000  Uiso   1.00
C19    C     0.86631   0.94630   0.80551   0.00000  Uiso   1.00
C20    C     0.85851   0.88189   0.82725   0.00000  Uiso   1.00
C21    C     0.91568   0.10590   0.87009   0.00000  Uiso   1.00
C22    C     0.00845   0.14385   0.85825   0.00000  Uiso   1.00
C23    C     0.06567   0.16979   0.90411   0.00000  Uiso   1.00
H24    H     0.75095   0.04231   0.97228   0.00000  Uiso   1.00
H25    H     0.56189   0.09893   0.95569   0.00000  Uiso   1.00
H26    H     0.76962   0.91359   0.96200   0.00000  Uiso   1.00
H27    H     0.91173   0.11112   0.01473   0.00000  Uiso   1.00
H28    H     0.36745   0.16681   0.91274   0.00000  Uiso   1.00
H29    H     0.80549   0.77601   0.92605   0.00000  Uiso   1.00
H30    H     0.10516   0.19254   0.03724   0.00000  Uiso   1.00
H31    H     0.86785   0.08187   0.78310   0.00000  Uiso   1.00
H32    H     0.68521   0.14067   0.75612   0.00000  Uiso   1.00
H33    H     0.89294   0.95532   0.76243   0.00000  Uiso   1.00
H34    H     0.03504   0.15285   0.81516   0.00000  Uiso   1.00
H35    H     0.46753   0.20068   0.75075   0.00000  Uiso   1.00
H36    H     0.90558   0.80989   0.76407   0.00000  Uiso   1.00
H37    H     0.20525   0.22642   0.87526   0.00000  Uiso   1.00
O38    O     0.29522   0.22168   0.81741   0.00000  Uiso   1.00
O39    O     0.86994   0.70898   0.83488   0.00000  Uiso   1.00
O40    O     0.26309   0.25546   0.98076   0.00000  Uiso   1.00
N41    N     0.41608   0.16672   0.87832   0.00000  Uiso   1.00
N42    N     0.82561   0.80135   0.89077   0.00000  Uiso   1.00
N43    N     0.10579   0.19076   0.99472   0.00000  Uiso   1.00
N44    N     0.46993   0.18495   0.79116   0.00000  Uiso   1.00
N45    N     0.87946   0.81958   0.80360   0.00000  Uiso   1.00
N46    N     0.15964   0.20899   0.90756   0.00000  Uiso   1.00
C47    C     0.23360   0.54475   0.07433   0.00000  Uiso   1.00
C48    C     0.32130   0.58304   0.10718   0.00000  Uiso   1.00
C49    C     0.42570   0.59883   0.08759   0.00000  Uiso   1.00
C50    C     0.49378   0.63413   0.12410   0.00000  Uiso   1.00
C51    C     0.63532   0.69070   0.16687   0.00000  Uiso   1.00
C52    C     0.20251   0.48494   0.11110   0.00000  Uiso   1.00
C53    C     0.20701   0.41823   0.09481   0.00000  Uiso   1.00
C54    C     0.17508   0.37095   0.13461   0.00000  Uiso   1.00
C55    C     0.13211   0.27521   0.18346   0.00000  Uiso   1.00
C56    C     0.13265   0.59000   0.07302   0.00000  Uiso   1.00
C57    C     0.07840   0.61162   0.02470   0.00000  Uiso   1.00
C58    C     0.98764   0.65278   0.03245   0.00000  Uiso   1.00
C59    C     0.83622   0.72017   0.02217   0.00000  Uiso   1.00
C60    C     0.16888   0.57939   0.17398   0.00000  Uiso   1.00
C61    C     0.28614   0.60186   0.16130   0.00000  Uiso   1.00
C62    C     0.35409   0.63715   0.19785   0.00000  Uiso   1.00
C63    C     0.45857   0.65299   0.17832   0.00000  Uiso   1.00
C64    C     0.16735   0.50375   0.16522   0.00000  Uiso   1.00
C65    C     0.13540   0.45656   0.20506   0.00000  Uiso   1.00
C66    C     0.13986   0.38980   0.18883   0.00000  Uiso   1.00
C67    C     0.09750   0.60882   0.12714   0.00000  Uiso   1.00
C68    C     0.00680   0.64995   0.13496   0.00000  Uiso   1.00
C69    C     0.95242   0.67163   0.08667   0.00000  Uiso   1.00
H70    H     0.26097   0.53010   0.03219   0.00000  Uiso   1.00
H71    H     0.45288   0.58425   0.04570   0.00000  Uiso   1.00
H72    H     0.23421   0.40369   0.05291   0.00000  Uiso   1.00
H73    H     0.10563   0.59705   0.98283   0.00000  Uiso   1.00
H74    H     0.65015   0.65257   0.08456   0.00000  Uiso   1.00
H75    H     0.18905   0.27184   0.09976   0.00000  Uiso   1.00
H76    H     0.91790   0.67958   0.95196   0.00000  Uiso   1.00
H77    H     0.14150   0.59404   0.21613   0.00000  Uiso   1.00
H78    H     0.32686   0.65171   0.23973   0.00000  Uiso   1.00
H79    H     0.10819   0.47114   0.24694   0.00000  Uiso   1.00
H80    H     0.97961   0.66450   0.17685   0.00000  Uiso   1.00
H81    H     0.54787   0.70731   0.24204   0.00000  Uiso   1.00
H82    H     0.08676   0.32658   0.25724   0.00000  Uiso   1.00
H83    H     0.81562   0.73432   0.10944   0.00000  Uiso   1.00
O84    O     0.72311   0.71670   0.17552   0.00000  Uiso   1.00
O85    O     0.11814   0.21720   0.19545   0.00000  Uiso   1.00
O86    O     0.76241   0.75215   0.00155   0.00000  Uiso   1.00
N87    N     0.60063   0.65755   0.11838   0.00000  Uiso   1.00
N88    N     0.16955   0.30159   0.13259   0.00000  Uiso   1.00
N89    N     0.91603   0.68278   0.99441   0.00000  Uiso   1.00
N90    N     0.54559   0.68701   0.20312   0.00000  Uiso   1.00
N91    N     0.11451   0.33105   0.21733   0.00000  Uiso   1.00
N92    N     0.86100   0.71224   0.07915   0.00000  Uiso   1.00
C93    C     0.22227   0.94862   0.42894   0.00000  Uiso   1.00
C94    C     0.30877   0.91237   0.39369   0.00000  Uiso   1.00
C95    C     0.41151   0.89205   0.41260   0.00000  Uiso   1.00
C96    C     0.47872   0.85964   0.37382   0.00000  Uiso   1.00
C97    C     0.61829   0.80515   0.32755   0.00000  Uiso   1.00
C98    C     0.19592   0.01307   0.39712   0.00000  Uiso   1.00
C99    C     0.20376   0.07742   0.41892   0.00000  Uiso   1.00
C100   C     0.17595   0.12977   0.38302   0.00000  Uiso   1.00
C101   C     0.14024   0.23162   0.34208   0.00000  Uiso   1.00
C102   C     0.11872   0.90574   0.42577   0.00000  Uiso   1.00
C103   C     0.06162   0.87986   0.47166   0.00000  Uiso   1.00
C104   C     0.96880   0.84187   0.45988   0.00000  Uiso   1.00
C105   C     0.81322   0.77707   0.46343   0.00000  Uiso   1.00
C106   C     0.15893   0.92719   0.32644   0.00000  Uiso   1.00
C107   C     0.27437   0.90073   0.33802   0.00000  Uiso   1.00
C108   C     0.34144   0.86834   0.29920   0.00000  Uiso   1.00
C109   C     0.44425   0.84797   0.31805   0.00000  Uiso   1.00
C110   C     0.16152   0.00143   0.34145   0.00000  Uiso   1.00
C111   C     0.13369   0.05370   0.30551   0.00000  Uiso   1.00
C112   C     0.14149   0.11811   0.32725   0.00000  Uiso   1.00
C113   C     0.08432   0.89410   0.37009   0.00000  Uiso   1.00
C114   C     0.99155   0.85615   0.35825   0.00000  Uiso   1.00
C115   C     0.93433   0.83021   0.40411   0.00000  Uiso   1.00
H116   H     0.24905   0.95769   0.47228   0.00000  Uiso   1.00
H117   H     0.43811   0.90107   0.45569   0.00000  Uiso   1.00
H118   H     0.23038   0.08641   0.46200   0.00000  Uiso   1.00
H119   H     0.08827   0.88888   0.51473   0.00000  Uiso   1.00
H120   H     0.63255   0.83319   0.41274   0.00000  Uiso   1.00
H121   H     0.19451   0.22399   0.42605   0.00000  Uiso   1.00
H122   H     0.89484   0.80746   0.53724   0.00000  Uiso   1.00
H123   H     0.13215   0.91813   0.28310   0.00000  Uiso   1.00
H124   H     0.31479   0.85933   0.25612   0.00000  Uiso   1.00
H125   H     0.10706   0.04468   0.26243   0.00000  Uiso   1.00
H126   H     0.96496   0.84715   0.31516   0.00000  Uiso   1.00
H127   H     0.53247   0.79932   0.25075   0.00000  Uiso   1.00
H128   H     0.09442   0.19011   0.26407   0.00000  Uiso   1.00
H129   H     0.79475   0.77358   0.37526   0.00000  Uiso   1.00
O130   O     0.70478   0.77832   0.31741   0.00000  Uiso   1.00
O131   O     0.13006   0.29102   0.33488   0.00000  Uiso   1.00
O132   O     0.73691   0.74454   0.48076   0.00000  Uiso   1.00
N133   N     0.58392   0.83328   0.37832   0.00000  Uiso   1.00
N134   N     0.17439   0.19865   0.39077   0.00000  Uiso   1.00
N135   N     0.89421   0.80924   0.49472   0.00000  Uiso   1.00
N136   N     0.53007   0.81505   0.29116   0.00000  Uiso   1.00
N137   N     0.12054   0.18042   0.30360   0.00000  Uiso   1.00
N138   N     0.84036   0.79101   0.40756   0.00000  Uiso   1.00
C139   C     0.76640   0.45525   0.57433   0.00000  Uiso   1.00
C140   C     0.67870   0.41696   0.60718   0.00000  Uiso   1.00
C141   C     0.57430   0.40117   0.58759   0.00000  Uiso   1.00
C142   C     0.50622   0.36587   0.62410   0.00000  Uiso   1.00
C143   C     0.36468   0.30930   0.66687   0.00000  Uiso   1.00
C144   C     0.79749   0.51506   0.61110   0.00000  Uiso   1.00
C145   C     0.79299   0.58177   0.59481   0.00000  Uiso   1.00
C146   C     0.82492   0.62905   0.63461   0.00000  Uiso   1.00
C147   C     0.86789   0.72479   0.68346   0.00000  Uiso   1.00
C148   C     0.86735   0.41000   0.57302   0.00000  Uiso   1.00
C149   C     0.92160   0.38838   0.52470   0.00000  Uiso   1.00
C150   C     0.01236   0.34722   0.53245   0.00000  Uiso   1.00
C151   C     0.16378   0.27983   0.52217   0.00000  Uiso   1.00
C152   C     0.83112   0.42061   0.67398   0.00000  Uiso   1.00
C153   C     0.71386   0.39814   0.66130   0.00000  Uiso   1.00
C154   C     0.64591   0.36285   0.69785   0.00000  Uiso   1.00
C155   C     0.54143   0.34701   0.67832   0.00000  Uiso   1.00
C156   C     0.83265   0.49625   0.66522   0.00000  Uiso   1.00
C157   C     0.86460   0.54344   0.70506   0.00000  Uiso   1.00
C158   C     0.86014   0.61020   0.68883   0.00000  Uiso   1.00
C159   C     0.90250   0.39118   0.62714   0.00000  Uiso   1.00
C160   C     0.99320   0.35005   0.63496   0.00000  Uiso   1.00
C161   C     0.04758   0.32837   0.58667   0.00000  Uiso   1.00
H162   H     0.73903   0.46990   0.53219   0.00000  Uiso   1.00
H163   H     0.54712   0.41575   0.54570   0.00000  Uiso   1.00
H164   H     0.76579   0.59631   0.55291   0.00000  Uiso   1.00
H165   H     0.89437   0.40295   0.48283   0.00000  Uiso   1.00
H166   H     0.34985   0.34743   0.58456   0.00000  Uiso   1.00
H167   H     0.81095   0.72816   0.59976   0.00000  Uiso   1.00
H168   H     0.08210   0.32042   0.45196   0.00000  Uiso   1.00
H169   H     0.85850   0.40596   0.71613   0.00000  Uiso   1.00
H170   H     0.67314   0.34829   0.73973   0.00000  Uiso   1.00
H171   H     0.89181   0.52886   0.74694   0.00000  Uiso   1.00
H172   H     0.02039   0.33550   0.67685   0.00000  Uiso   1.00
H173   H     0.45213   0.29269   0.74204   0.00000  Uiso   1.00
H174   H     0.91324   0.67342   0.75724   0.00000  Uiso   1.00
H175   H     0.18438   0.26568   0.60944   0.00000  Uiso   1.00
O176   O     0.27689   0.28330   0.67552   0.00000  Uiso   1.00
O177   O     0.88186   0.78280   0.69545   0.00000  Uiso   1.00
O178   O     0.23759   0.24785   0.50155   0.00000  Uiso   1.00
N179   N     0.39937   0.34245   0.61838   0.00000  Uiso   1.00
N180   N     0.83045   0.69841   0.63259   0.00000  Uiso   1.00
N181   N     0.08397   0.31722   0.49441   0.00000  Uiso   1.00
N182   N     0.45441   0.31299   0.70312   0.00000  Uiso   1.00
N183   N     0.88549   0.66895   0.71733   0.00000  Uiso   1.00
N184   N     0.13900   0.28776   0.57915   0.00000  Uiso   1.00
C185   C     0.27773   0.44862   0.92894   0.00000  Uiso   1.00
C186   C     0.19123   0.41237   0.89369   0.00000  Uiso   1.00
C187   C     0.08849   0.39205   0.91260   0.00000  Uiso   1.00
C188   C     0.02128   0.35964   0.87382   0.00000  Uiso   1.00
C189   C     0.88171   0.30515   0.82755   0.00000  Uiso   1.00
C190   C     0.30408   0.51307   0.89712   0.00000  Uiso   1.00
C191   C     0.29624   0.57742   0.91892   0.00000  Uiso   1.00
C192   C     0.32405   0.62977   0.88302   0.00000  Uiso   1.00
C193   C     0.35976   0.73162   0.84208   0.00000  Uiso   1.00
C194   C     0.38128   0.40574   0.92577   0.00000  Uiso   1.00
C195   C     0.43838   0.37986   0.97166   0.00000  Uiso   1.00
C196   C     0.53120   0.34187   0.95988   0.00000  Uiso   1.00
C197   C     0.68678   0.27707   0.96343   0.00000  Uiso   1.00
C198   C     0.34107   0.42719   0.82644   0.00000  Uiso   1.00
C199   C     0.22563   0.40073   0.83802   0.00000  Uiso   1.00
C200   C     0.15856   0.36834   0.79920   0.00000  Uiso   1.00
C201   C     0.05575   0.34797   0.81805   0.00000  Uiso   1.00
C202   C     0.33848   0.50143   0.84145   0.00000  Uiso   1.00
C203   C     0.36631   0.55370   0.80551   0.00000  Uiso   1.00
C204   C     0.35851   0.61811   0.82725   0.00000  Uiso   1.00
C205   C     0.41568   0.39410   0.87009   0.00000  Uiso   1.00
C206   C     0.50845   0.35615   0.85825   0.00000  Uiso   1.00
C207   C     0.56567   0.33021   0.90411   0.00000  Uiso   1.00
H208   H     0.25095   0.45769   0.97228   0.00000  Uiso   1.00
H209   H     0.06189   0.40107   0.95569   0.00000  Uiso   1.00
H210   H     0.26962   0.58641   0.96200   0.00000  Uiso   1.00
H211   H     0.41173   0.38888   0.01473   0.00000  Uiso   1.00
H212   H     0.86745   0.33319   0.91274   0.00000  Uiso   1.00
H213   H     0.30549   0.72399   0.92605   0.00000  Uiso   1.00
H214   H     0.60516   0.30746   0.03724   0.00000  Uiso   1.00
H215   H     0.36785   0.41813   0.78310   0.00000  Uiso   1.00
H216   H     0.18521   0.35933   0.75612   0.00000  Uiso   1.00
H217   H     0.39294   0.54468   0.76243   0.00000  Uiso   1.00
H218   H     0.53504   0.34715   0.81516   0.00000  Uiso   1.00
H219   H     0.96753   0.29932   0.75075   0.00000  Uiso   1.00
H220   H     0.40558   0.69011   0.76407   0.00000  Uiso   1.00
H221   H     0.70525   0.27358   0.87526   0.00000  Uiso   1.00
O222   O     0.79522   0.27832   0.81741   0.00000  Uiso   1.00
O223   O     0.36994   0.79102   0.83488   0.00000  Uiso   1.00
O224   O     0.76309   0.24454   0.98076   0.00000  Uiso   1.00
N225   N     0.91608   0.33328   0.87832   0.00000  Uiso   1.00
N226   N     0.32561   0.69865   0.89077   0.00000  Uiso   1.00
N227   N     0.60579   0.30924   0.99472   0.00000  Uiso   1.00
N228   N     0.96993   0.31505   0.79116   0.00000  Uiso   1.00
N229   N     0.37946   0.68042   0.80360   0.00000  Uiso   1.00
N230   N     0.65964   0.29101   0.90756   0.00000  Uiso   1.00
C231   C     0.73360   0.95525   0.07433   0.00000  Uiso   1.00
C232   C     0.82130   0.91696   0.10718   0.00000  Uiso   1.00
C233   C     0.92570   0.90117   0.08759   0.00000  Uiso   1.00
C234   C     0.99378   0.86587   0.12410   0.00000  Uiso   1.00
C235   C     0.13532   0.80930   0.16687   0.00000  Uiso   1.00
C236   C     0.70251   0.01506   0.11110   0.00000  Uiso   1.00
C237   C     0.70701   0.08177   0.09481   0.00000  Uiso   1.00
C238   C     0.67508   0.12905   0.13461   0.00000  Uiso   1.00
C239   C     0.63211   0.22479   0.18346   0.00000  Uiso   1.00
C240   C     0.63265   0.91000   0.07302   0.00000  Uiso   1.00
C241   C     0.57840   0.88838   0.02470   0.00000  Uiso   1.00
C242   C     0.48764   0.84722   0.03245   0.00000  Uiso   1.00
C243   C     0.33622   0.77983   0.02217   0.00000  Uiso   1.00
C244   C     0.66888   0.92061   0.17398   0.00000  Uiso   1.00
C245   C     0.78614   0.89814   0.16130   0.00000  Uiso   1.00
C246   C     0.85409   0.86285   0.19785   0.00000  Uiso   1.00
C247   C     0.95857   0.84701   0.17832   0.00000  Uiso   1.00
C248   C     0.66735   0.99625   0.16522   0.00000  Uiso   1.00
C249   C     0.63540   0.04344   0.20506   0.00000  Uiso   1.00
C250   C     0.63986   0.11020   0.18883   0.00000  Uiso   1.00
C251   C     0.59750   0.89118   0.12714   0.00000  Uiso   1.00
C252   C     0.50680   0.85005   0.13496   0.00000  Uiso   1.00
C253   C     0.45242   0.82837   0.08667   0.00000  Uiso   1.00
H254   H     0.76097   0.96990   0.03219   0.00000  Uiso   1.00
H255   H     0.95288   0.91575   0.04570   0.00000  Uiso   1.00
H256   H     0.73421   0.09631   0.05291   0.00000  Uiso   1.00
H257   H     0.60563   0.90295   0.98283   0.00000  Uiso   1.00
H258   H     0.15015   0.84743   0.08456   0.00000  Uiso   1.00
H259   H     0.68905   0.22816   0.09976   0.00000  Uiso   1.00
H260   H     0.41790   0.82042   0.95196   0.00000  Uiso   1.00
H261   H     0.64150   0.90596   0.21613   0.00000  Uiso   1.00
H262   H     0.82686   0.84829   0.23973   0.00000  Uiso   1.00
H263   H     0.60819   0.02886   0.24694   0.00000  Uiso   1.00
H264   H     0.47961   0.83550   0.17685   0.00000  Uiso   1.00
H265   H     0.04787   0.79269   0.24204   0.00000  Uiso   1.00
H266   H     0.58676   0.17342   0.25724   0.00000  Uiso   1.00
H267   H     0.31562   0.76568   0.10944   0.00000  Uiso   1.00
O268   O     0.22311   0.78330   0.17552   0.00000  Uiso   1.00
O269   O     0.61814   0.28280   0.19545   0.00000  Uiso   1.00
O270   O     0.26241   0.74785   0.00155   0.00000  Uiso   1.00
N271   N     0.10063   0.84245   0.11838   0.00000  Uiso   1.00
N272   N     0.66955   0.19841   0.13259   0.00000  Uiso   1.00
N273   N     0.41603   0.81722   0.99441   0.00000  Uiso   1.00
N274   N     0.04559   0.81299   0.20312   0.00000  Uiso   1.00
N275   N     0.61451   0.16895   0.21733   0.00000  Uiso   1.00
N276   N     0.36100   0.78776   0.07915   0.00000  Uiso   1.00
C277   C     0.72227   0.55138   0.42894   0.00000  Uiso   1.00
C278   C     0.80877   0.58763   0.39369   0.00000  Uiso   1.00
C279   C     0.91151   0.60795   0.41260   0.00000  Uiso   1.00
C280   C     0.97872   0.64036   0.37382   0.00000  Uiso   1.00
C281   C     0.11829   0.69485   0.32755   0.00000  Uiso   1.00
C282   C     0.69592   0.48693   0.39712   0.00000  Uiso   1.00
C283   C     0.70376   0.42258   0.41892   0.00000  Uiso   1.00
C284   C     0.67595   0.37023   0.38302   0.00000  Uiso   1.00
C285   C     0.64024   0.26838   0.34208   0.00000  Uiso   1.00
C286   C     0.61872   0.59426   0.42577   0.00000  Uiso   1.00
C287   C     0.56162   0.62014   0.47166   0.00000  Uiso   1.00
C288   C     0.46880   0.65813   0.45988   0.00000  Uiso   1.00
C289   C     0.31322   0.72293   0.46343   0.00000  Uiso   1.00
C290   C     0.65893   0.57281   0.32644   0.00000  Uiso   1.00
C291   C     0.77437   0.59927   0.33802   0.00000  Uiso   1.00
C292   C     0.84144   0.63166   0.29920   0.00000  Uiso   1.00
C293   C     0.94425   0.65203   0.31805   0.00000  Uiso   1.00
C294   C     0.66152   0.49857   0.34145   0.00000  Uiso   1.00
C295   C     0.63369   0.44630   0.30551   0.00000  Uiso   1.00
C296   C     0.64149   0.38189   0.32725   0.00000  Uiso   1.00
C297   C     0.58432   0.60590   0.37009   0.00000  Uiso   1.00
C298   C     0.49155   0.64385   0.35825   0.00000  Uiso   1.00
C299   C     0.43433   0.66979   0.40411   0.00000  Uiso   1.00
H300   H     0.74905   0.54231   0.47228   0.00000  Uiso   1.00
H301   H     0.93811   0.59893   0.45569   0.00000  Uiso   1.00
H302   H     0.73038   0.41359   0.46200   0.00000  Uiso   1.00
H303   H     0.58827   0.61112   0.51473   0.00000  Uiso   1.00
H304   H     0.13255   0.66681   0.41274   0.00000  Uiso   1.00
H305   H     0.69451   0.27601   0.42605   0.00000  Uiso   1.00
H306   H     0.39484   0.69254   0.53724   0.00000  Uiso   1.00
H307   H     0.63215   0.58187   0.28310   0.00000  Uiso   1.00
H308   H     0.81479   0.64067   0.25612   0.00000  Uiso   1.00
H309   H     0.60706   0.45532   0.26243   0.00000  Uiso   1.00
H310   H     0.46496   0.65285   0.31516   0.00000  Uiso   1.00
H311   H     0.03247   0.70068   0.25075   0.00000  Uiso   1.00
H312   H     0.59442   0.30989   0.26407   0.00000  Uiso   1.00
H313   H     0.29475   0.72642   0.37526   0.00000  Uiso   1.00
O314   O     0.20478   0.72168   0.31741   0.00000  Uiso   1.00
O315   O     0.63006   0.20898   0.33488   0.00000  Uiso   1.00
O316   O     0.23691   0.75546   0.48076   0.00000  Uiso   1.00
N317   N     0.08392   0.66672   0.37832   0.00000  Uiso   1.00
N318   N     0.67439   0.30135   0.39077   0.00000  Uiso   1.00
N319   N     0.39421   0.69076   0.49472   0.00000  Uiso   1.00
N320   N     0.03007   0.68495   0.29116   0.00000  Uiso   1.00
N321   N     0.62054   0.31958   0.30360   0.00000  Uiso   1.00
N322   N     0.34036   0.70899   0.40756   0.00000  Uiso   1.00
C323   C     0.26640   0.04475   0.57433   0.00000  Uiso   1.00
C324   C     0.17870   0.08304   0.60718   0.00000  Uiso   1.00
C325   C     0.07430   0.09883   0.58759   0.00000  Uiso   1.00
C326   C     0.00622   0.13413   0.62410   0.00000  Uiso   1.00
C327   C     0.86468   0.19070   0.66687   0.00000  Uiso   1.00
C328   C     0.29749   0.98494   0.61110   0.00000  Uiso   1.00
C329   C     0.29299   0.91823   0.59481   0.00000  Uiso   1.00
C330   C     0.32492   0.87095   0.63461   0.00000  Uiso   1.00
C331   C     0.36789   0.77521   0.68346   0.00000  Uiso   1.00
C332   C     0.36735   0.09000   0.57302   0.00000  Uiso   1.00
C333   C     0.42160   0.11162   0.52470   0.00000  Uiso   1.00
C334   C     0.51236   0.15278   0.53245   0.00000  Uiso   1.00
C335   C     0.66378   0.22017   0.52217   0.00000  Uiso   1.00
C336   C     0.33112   0.07939   0.67398   0.00000  Uiso   1.00
C337   C     0.21386   0.10186   0.66130   0.00000  Uiso   1.00
C338   C     0.14591   0.13715   0.69785   0.00000  Uiso   1.00
C339   C     0.04143   0.15299   0.67832   0.00000  Uiso   1.00
C340   C     0.33265   0.00375   0.66522   0.00000  Uiso   1.00
C341   C     0.36460   0.95656   0.70506   0.00000  Uiso   1.00
C342   C     0.36014   0.88980   0.68883   0.00000  Uiso   1.00
C343   C     0.40250   0.10882   0.62714   0.00000  Uiso   1.00
C344   C     0.49320   0.14995   0.63496   0.00000  Uiso   1.00
C345   C     0.54758   0.17163   0.58667   0.00000  Uiso   1.00
H346   H     0.23903   0.03010   0.53219   0.00000  Uiso   1.00
H347   H     0.04712   0.08425   0.54570   0.00000  Uiso   1.00
H348   H     0.26579   0.90369   0.55291   0.00000  Uiso   1.00
H349   H     0.39437   0.09705   0.48283   0.00000  Uiso   1.00
H350   H     0.84985   0.15257   0.58456   0.00000  Uiso   1.00
H351   H     0.31095   0.77184   0.59976   0.00000  Uiso   1.00
H352   H     0.58210   0.17958   0.45196   0.00000  Uiso   1.00
H353   H     0.35850   0.09404   0.71613   0.00000  Uiso   1.00
H354   H     0.17314   0.15171   0.73973   0.00000  Uiso   1.00
H355   H     0.39181   0.97114   0.74694   0.00000  Uiso   1.00
H356   H     0.52039   0.16450   0.67685   0.00000  Uiso   1.00
H357   H     0.95213   0.20731   0.74204   0.00000  Uiso   1.00
H358   H     0.41324   0.82658   0.75724   0.00000  Uiso   1.00
H359   H     0.68438   0.23432   0.60944   0.00000  Uiso   1.00
O360   O     0.77689   0.21670   0.67552   0.00000  Uiso   1.00
O361   O     0.38186   0.71720   0.69545   0.00000  Uiso   1.00
O362   O     0.73759   0.25215   0.50155   0.00000  Uiso   1.00
N363   N     0.89937   0.15755   0.61838   0.00000  Uiso   1.00
N364   N     0.33045   0.80159   0.63259   0.00000  Uiso   1.00
N365   N     0.58397   0.18278   0.49441   0.00000  Uiso   1.00
N366   N     0.95441   0.18701   0.70312   0.00000  Uiso   1.00
N367   N     0.38549   0.83105   0.71733   0.00000  Uiso   1.00
N368   N     0.63900   0.21224   0.57915   0.00000  Uiso   1.00
