data_job_07019
_audit_creation_date              2018-12-19
_audit_creation_method            'Materials Studio'
_symmetry_space_group_name_H-M    'P1'
_symmetry_Int_Tables_number       1
_symmetry_cell_setting            triclinic
loop_
_symmetry_equiv_pos_as_xyz
  x,y,z
_cell_length_a                    22.2442
_cell_length_b                    21.6653
_cell_length_c                    23.6216
_cell_angle_alpha                 65.8696
_cell_angle_beta                  80.3015
_cell_angle_gamma                 71.1615
loop_
_atom_site_label
_atom_site_type_symbol
_atom_site_fract_x
_atom_site_fract_y
_atom_site_fract_z
_atom_site_U_iso_or_equiv
_atom_site_adp_type
_atom_site_occupancy
C1     C     0.76470   0.02766   0.26603   0.00000  Uiso   1.00
C2     C     0.73421   0.10310   0.26230   0.00000  Uiso   1.00
C3     C     0.68341   0.12449   0.29954   0.00000  Uiso   1.00
C4     C     0.66245   0.19588   0.28882   0.00000  Uiso   1.00
C5     C     0.61070   0.30569   0.29005   0.00000  Uiso   1.00
C6     C     0.76125   0.02954   0.20139   0.00000  Uiso   1.00
C7     C     0.73318   0.98908   0.18743   0.00000  Uiso   1.00
C8     C     0.73499   0.99855   0.12544   0.00000  Uiso   1.00
C9     C     0.72525   0.99412   0.03212   0.00000  Uiso   1.00
C10    C     0.83505   0.01116   0.27597   0.00000  Uiso   1.00
C11    C     0.86904   0.95523   0.32470   0.00000  Uiso   1.00
C12    C     0.93299   0.94921   0.32549   0.00000  Uiso   1.00
C13    C     0.03783   0.91623   0.34796   0.00000  Uiso   1.00
C14    C     0.81782   0.11640   0.18078   0.00000  Uiso   1.00
C15    C     0.76306   0.15130   0.21599   0.00000  Uiso   1.00
C16    C     0.74218   0.22267   0.20522   0.00000  Uiso   1.00
C17    C     0.69136   0.24417   0.24244   0.00000  Uiso   1.00
C18    C     0.79010   0.07774   0.15509   0.00000  Uiso   1.00
C19    C     0.79195   0.08726   0.09311   0.00000  Uiso   1.00
C20    C     0.76389   0.04683   0.07905   0.00000  Uiso   1.00
C21    C     0.86390   0.05936   0.22966   0.00000  Uiso   1.00
C22    C     0.92781   0.05341   0.23038   0.00000  Uiso   1.00
C23    C     0.96189   0.99749   0.27910   0.00000  Uiso   1.00
H24    H     0.74224   0.99014   0.30208   0.00000  Uiso   1.00
H25    H     0.66109   0.08718   0.33537   0.00000  Uiso   1.00
H26    H     0.71086   0.95178   0.22327   0.00000  Uiso   1.00
H27    H     0.84670   0.91794   0.36052   0.00000  Uiso   1.00
H28    H     0.58383   0.21603   0.35184   0.00000  Uiso   1.00
H29    H     0.68879   0.93052   0.11549   0.00000  Uiso   1.00
H30    H     0.97523   0.85916   0.40490   0.00000  Uiso   1.00
H31    H     0.84029   0.15392   0.14472   0.00000  Uiso   1.00
H32    H     0.76452   0.25996   0.16938   0.00000  Uiso   1.00
H33    H     0.81429   0.12456   0.05729   0.00000  Uiso   1.00
H34    H     0.95012   0.09072   0.19453   0.00000  Uiso   1.00
H35    H     0.66777   0.35626   0.21711   0.00000  Uiso   1.00
H36    H     0.77274   0.07075   0.98076   0.00000  Uiso   1.00
H37    H     0.05918   0.99939   0.27018   0.00000  Uiso   1.00
O38    O     0.57417   0.35295   0.30352   0.00000  Uiso   1.00
O39    O     0.71190   0.97836   0.99344   0.00000  Uiso   1.00
O40    O     0.08769   0.88474   0.37315   0.00000  Uiso   1.00
N41    N     0.61399   0.23448   0.31675   0.00000  Uiso   1.00
N42    N     0.71212   0.96755   0.09578   0.00000  Uiso   1.00
N43    N     0.97992   0.90082   0.36635   0.00000  Uiso   1.00
N44    N     0.65916   0.30994   0.24426   0.00000  Uiso   1.00
N45    N     0.75729   0.04301   0.02329   0.00000  Uiso   1.00
N46    N     0.02509   0.97628   0.29386   0.00000  Uiso   1.00
C47    C     0.31858   0.85651   0.91908   0.00000  Uiso   1.00
C48    C     0.34935   0.79112   0.97392   0.00000  Uiso   1.00
C49    C     0.39418   0.73102   0.97008   0.00000  Uiso   1.00
C50    C     0.41652   0.67693   0.02561   0.00000  Uiso   1.00
C51    C     0.46759   0.57450   0.10206   0.00000  Uiso   1.00
C52    C     0.24703   0.86750   0.93054   0.00000  Uiso   1.00
C53    C     0.20584   0.87163   0.89022   0.00000  Uiso   1.00
C54    C     0.14205   0.88185   0.90923   0.00000  Uiso   1.00
C55    C     0.03426   0.89805   0.91830   0.00000  Uiso   1.00
C56    C     0.33190   0.91831   0.92504   0.00000  Uiso   1.00
C57    C     0.36205   0.96517   0.88009   0.00000  Uiso   1.00
C58    C     0.36971   0.01817   0.89447   0.00000  Uiso   1.00
C59    C     0.39369   0.11326   0.89501   0.00000  Uiso   1.00
C60    C     0.27853   0.86734   0.02452   0.00000  Uiso   1.00
C61    C     0.32760   0.79701   0.03119   0.00000  Uiso   1.00
C62    C     0.34988   0.74300   0.08674   0.00000  Uiso   1.00
C63    C     0.39474   0.68282   0.08299   0.00000  Uiso   1.00
C64    C     0.22528   0.87339   0.98781   0.00000  Uiso   1.00
C65    C     0.16154   0.88361   0.00688   0.00000  Uiso   1.00
C66    C     0.12026   0.88774   0.96661   0.00000  Uiso   1.00
C67    C     0.31016   0.92420   0.98231   0.00000  Uiso   1.00
C68    C     0.31776   0.97715   0.99676   0.00000  Uiso   1.00
C69    C     0.34792   0.02407   0.95185   0.00000  Uiso   1.00
H70    H     0.33550   0.85193   0.87449   0.00000  Uiso   1.00
H71    H     0.41100   0.72648   0.92575   0.00000  Uiso   1.00
H72    H     0.22268   0.86708   0.84590   0.00000  Uiso   1.00
H73    H     0.37888   0.96060   0.83578   0.00000  Uiso   1.00
H74    H     0.48508   0.58999   0.00784   0.00000  Uiso   1.00
H75    H     0.08801   0.88646   0.83946   0.00000  Uiso   1.00
H76    H     0.41738   0.08367   0.81812   0.00000  Uiso   1.00
H77    H     0.26160   0.87192   0.06911   0.00000  Uiso   1.00
H78    H     0.33304   0.74757   0.13106   0.00000  Uiso   1.00
H79    H     0.14473   0.88816   0.05120   0.00000  Uiso   1.00
H80    H     0.30092   0.98168   0.04108   0.00000  Uiso   1.00
H81    H     0.42181   0.60710   0.17448   0.00000  Uiso   1.00
H82    H     0.02474   0.90358   0.00609   0.00000  Uiso   1.00
H83    H     0.35410   0.10079   0.98475   0.00000  Uiso   1.00
O84    O     0.50176   0.51637   0.12840   0.00000  Uiso   1.00
O85    O     0.98082   0.90535   0.90748   0.00000  Uiso   1.00
O86    O     0.41294   0.16408   0.87949   0.00000  Uiso   1.00
N87    N     0.46040   0.61108   0.03856   0.00000  Uiso   1.00
N88    N     0.08916   0.88826   0.88114   0.00000  Uiso   1.00
N89    N     0.39707   0.07265   0.86118   0.00000  Uiso   1.00
N90    N     0.42635   0.62029   0.12822   0.00000  Uiso   1.00
N91    N     0.05512   0.89747   0.97080   0.00000  Uiso   1.00
N92    N     0.36303   0.08186   0.95084   0.00000  Uiso   1.00
C93    C     0.96649   0.43403   0.76599   0.00000  Uiso   1.00
C94    C     0.02292   0.45044   0.72209   0.00000  Uiso   1.00
C95    C     0.02138   0.51236   0.67075   0.00000  Uiso   1.00
C96    C     0.07807   0.51715   0.63649   0.00000  Uiso   1.00
C97    C     0.15714   0.55101   0.56580   0.00000  Uiso   1.00
C98    C     0.96107   0.36565   0.76594   0.00000  Uiso   1.00
C99    C     0.90754   0.35629   0.75146   0.00000  Uiso   1.00
C100   C     0.91217   0.28971   0.75413   0.00000  Uiso   1.00
C101   C     0.89521   0.19193   0.75155   0.00000  Uiso   1.00
C102   C     0.98633   0.41635   0.83081   0.00000  Uiso   1.00
C103   C     0.95402   0.44960   0.87089   0.00000  Uiso   1.00
C104   C     0.97991   0.42569   0.92818   0.00000  Uiso   1.00
C105   C     0.00217   0.40663   0.02632   0.00000  Uiso   1.00
C106   C     0.06990   0.33242   0.79646   0.00000  Uiso   1.00
C107   C     0.07909   0.39525   0.73864   0.00000  Uiso   1.00
C108   C     0.13579   0.39994   0.70446   0.00000  Uiso   1.00
C109   C     0.13434   0.46186   0.65308   0.00000  Uiso   1.00
C110   C     0.01724   0.31046   0.78248   0.00000  Uiso   1.00
C111   C     0.02195   0.24387   0.78517   0.00000  Uiso   1.00
C112   C     0.96843   0.23442   0.77071   0.00000  Uiso   1.00
C113   C     0.04250   0.36116   0.84736   0.00000  Uiso   1.00
C114   C     0.06844   0.33719   0.90460   0.00000  Uiso   1.00
C115   C     0.03618   0.37040   0.94476   0.00000  Uiso   1.00
H116   H     0.92276   0.47699   0.75310   0.00000  Uiso   1.00
H117   H     0.97790   0.55506   0.65795   0.00000  Uiso   1.00
H118   H     0.86407   0.39901   0.73866   0.00000  Uiso   1.00
H119   H     0.91056   0.49231   0.85807   0.00000  Uiso   1.00
H120   H     0.06380   0.61726   0.55975   0.00000  Uiso   1.00
H121   H     0.82379   0.28822   0.72995   0.00000  Uiso   1.00
H122   H     0.92180   0.48496   0.98174   0.00000  Uiso   1.00
H123   H     0.11363   0.28945   0.80934   0.00000  Uiso   1.00
H124   H     0.17925   0.35722   0.71728   0.00000  Uiso   1.00
H125   H     0.06542   0.20118   0.79799   0.00000  Uiso   1.00
H126   H     0.11191   0.29448   0.91739   0.00000  Uiso   1.00
H127   H     0.22723   0.45669   0.60790   0.00000  Uiso   1.00
H128   H     0.98721   0.12765   0.77810   0.00000  Uiso   1.00
H129   H     0.08523   0.32439   0.02989   0.00000  Uiso   1.00
O130   O     0.18523   0.58493   0.52223   0.00000  Uiso   1.00
O131   O     0.87034   0.15325   0.74554   0.00000  Uiso   1.00
O132   O     0.99894   0.41137   0.07588   0.00000  Uiso   1.00
N133   N     0.09326   0.57017   0.58372   0.00000  Uiso   1.00
N134   N     0.86887   0.26254   0.74284   0.00000  Uiso   1.00
N135   N     0.96049   0.44647   0.97825   0.00000  Uiso   1.00
N136   N     0.18120   0.48377   0.60963   0.00000  Uiso   1.00
N137   N     0.95680   0.17614   0.76875   0.00000  Uiso   1.00
N138   N     0.04843   0.36007   0.00416   0.00000  Uiso   1.00
C139   C     0.31917   0.01529   0.34539   0.00000  Uiso   1.00
C140   C     0.26975   0.00054   0.39865   0.00000  Uiso   1.00
C141   C     0.20546   0.03640   0.39611   0.00000  Uiso   1.00
C142   C     0.16811   0.01493   0.44982   0.00000  Uiso   1.00
C143   C     0.08740   0.00044   0.52425   0.00000  Uiso   1.00
C144   C     0.35012   0.94587   0.33635   0.00000  Uiso   1.00
C145   C     0.35339   0.93577   0.28143   0.00000  Uiso   1.00
C146   C     0.38371   0.86828   0.28269   0.00000  Uiso   1.00
C147   C     0.42780   0.76892   0.26040   0.00000  Uiso   1.00
C148   C     0.37056   0.02962   0.36962   0.00000  Uiso   1.00
C149   C     0.39104   0.08992   0.34266   0.00000  Uiso   1.00
C150   C     0.43857   0.09293   0.37192   0.00000  Uiso   1.00
C151   C     0.51440   0.12360   0.40128   0.00000  Uiso   1.00
C152   C     0.36719   0.91341   0.44527   0.00000  Uiso   1.00
C153   C     0.29584   0.94521   0.45290   0.00000  Uiso   1.00
C154   C     0.25858   0.92369   0.50662   0.00000  Uiso   1.00
C155   C     0.19424   0.95950   0.50417   0.00000  Uiso   1.00
C156   C     0.37620   0.89054   0.39060   0.00000  Uiso   1.00
C157   C     0.40652   0.82305   0.39194   0.00000  Uiso   1.00
C158   C     0.40984   0.81285   0.33704   0.00000  Uiso   1.00
C159   C     0.39664   0.97429   0.42387   0.00000  Uiso   1.00
C160   C     0.44416   0.97721   0.45317   0.00000  Uiso   1.00
C161   C     0.46470   0.03750   0.42627   0.00000  Uiso   1.00
H162   H     0.29887   0.05836   0.30315   0.00000  Uiso   1.00
H163   H     0.18529   0.07921   0.35412   0.00000  Uiso   1.00
H164   H     0.33321   0.97860   0.23946   0.00000  Uiso   1.00
H165   H     0.37084   0.13273   0.30068   0.00000  Uiso   1.00
H166   H     0.07086   0.07791   0.43454   0.00000  Uiso   1.00
H167   H     0.38278   0.86576   0.19277   0.00000  Uiso   1.00
H168   H     0.46213   0.19078   0.32186   0.00000  Uiso   1.00
H169   H     0.38750   0.87033   0.48751   0.00000  Uiso   1.00
H170   H     0.27878   0.88086   0.54860   0.00000  Uiso   1.00
H171   H     0.42670   0.78025   0.43393   0.00000  Uiso   1.00
H172   H     0.46433   0.93438   0.49515   0.00000  Uiso   1.00
H173   H     0.14674   0.91692   0.59239   0.00000  Uiso   1.00
H174   H     0.45866   0.70477   0.35061   0.00000  Uiso   1.00
H175   H     0.53801   0.02979   0.47971   0.00000  Uiso   1.00
O176   O     0.03568   0.00772   0.55032   0.00000  Uiso   1.00
O177   O     0.44491   0.72940   0.23311   0.00000  Uiso   1.00
O178   O     0.54902   0.15581   0.40249   0.00000  Uiso   1.00
N179   N     0.10364   0.03858   0.46331   0.00000  Uiso   1.00
N180   N     0.39526   0.84024   0.23727   0.00000  Uiso   1.00
N181   N     0.46946   0.14409   0.35795   0.00000  Uiso   1.00
N182   N     0.14447   0.95196   0.54825   0.00000  Uiso   1.00
N183   N     0.43609   0.75361   0.32220   0.00000  Uiso   1.00
N184   N     0.51029   0.05746   0.44289   0.00000  Uiso   1.00
C185   C     0.77731   0.45427   0.30373   0.00000  Uiso   1.00
C186   C     0.81308   0.49774   0.24921   0.00000  Uiso   1.00
C187   C     0.85748   0.47272   0.20910   0.00000  Uiso   1.00
C188   C     0.88490   0.52086   0.16213   0.00000  Uiso   1.00
C189   C     0.94292   0.57762   0.07846   0.00000  Uiso   1.00
C190   C     0.70682   0.49160   0.29282   0.00000  Uiso   1.00
C191   C     0.66189   0.46141   0.28938   0.00000  Uiso   1.00
C192   C     0.59987   0.50438   0.27911   0.00000  Uiso   1.00
C193   C     0.49292   0.55160   0.26318   0.00000  Uiso   1.00
C194   C     0.79127   0.46255   0.36086   0.00000  Uiso   1.00
C195   C     0.81733   0.40794   0.41465   0.00000  Uiso   1.00
C196   C     0.82639   0.42645   0.46168   0.00000  Uiso   1.00
C197   C     0.85056   0.42857   0.55140   0.00000  Uiso   1.00
C198   C     0.74704   0.58425   0.29163   0.00000  Uiso   1.00
C199   C     0.79663   0.56834   0.24264   0.00000  Uiso   1.00
C200   C     0.82400   0.61653   0.19572   0.00000  Uiso   1.00
C201   C     0.86843   0.59159   0.15554   0.00000  Uiso   1.00
C202   C     0.69038   0.56220   0.28624   0.00000  Uiso   1.00
C203   C     0.62841   0.60522   0.27599   0.00000  Uiso   1.00
C204   C     0.58340   0.57511   0.27253   0.00000  Uiso   1.00
C205   C     0.77483   0.53315   0.35429   0.00000  Uiso   1.00
C206   C     0.78385   0.55175   0.40125   0.00000  Uiso   1.00
C207   C     0.80992   0.49718   0.45510   0.00000  Uiso   1.00
H208   H     0.79010   0.39931   0.30885   0.00000  Uiso   1.00
H209   H     0.87018   0.41808   0.21420   0.00000  Uiso   1.00
H210   H     0.67463   0.40677   0.29447   0.00000  Uiso   1.00
H211   H     0.83004   0.35331   0.41972   0.00000  Uiso   1.00
H212   H     0.95171   0.47004   0.10636   0.00000  Uiso   1.00
H213   H     0.53936   0.44619   0.27563   0.00000  Uiso   1.00
H214   H     0.86708   0.33345   0.53974   0.00000  Uiso   1.00
H215   H     0.73424   0.63922   0.28651   0.00000  Uiso   1.00
H216   H     0.81126   0.67116   0.19064   0.00000  Uiso   1.00
H217   H     0.61570   0.65985   0.27090   0.00000  Uiso   1.00
H218   H     0.77112   0.60639   0.39615   0.00000  Uiso   1.00
H219   H     0.90388   0.67545   0.08723   0.00000  Uiso   1.00
H220   H     0.49153   0.65160   0.25650   0.00000  Uiso   1.00
H221   H     0.81926   0.53887   0.52061   0.00000  Uiso   1.00
O222   O     0.97945   0.58943   0.03412   0.00000  Uiso   1.00
O223   O     0.43847   0.55814   0.25620   0.00000  Uiso   1.00
O224   O     0.86844   0.41023   0.60270   0.00000  Uiso   1.00
N225   N     0.92989   0.51399   0.11502   0.00000  Uiso   1.00
N226   N     0.54437   0.49170   0.27327   0.00000  Uiso   1.00
N227   N     0.85075   0.38630   0.52019   0.00000  Uiso   1.00
N228   N     0.90416   0.62452   0.10473   0.00000  Uiso   1.00
N229   N     0.51864   0.60223   0.26297   0.00000  Uiso   1.00
N230   N     0.82502   0.49683   0.50990   0.00000  Uiso   1.00
C231   C     0.49708   0.26153   0.77656   0.00000  Uiso   1.00
C232   C     0.56766   0.22269   0.78452   0.00000  Uiso   1.00
C233   C     0.59396   0.16430   0.83602   0.00000  Uiso   1.00
C234   C     0.65958   0.13642   0.83431   0.00000  Uiso   1.00
C235   C     0.76341   0.07161   0.85448   0.00000  Uiso   1.00
C236   C     0.48043   0.26088   0.71681   0.00000  Uiso   1.00
C237   C     0.43337   0.23460   0.71137   0.00000  Uiso   1.00
C238   C     0.42555   0.23887   0.65267   0.00000  Uiso   1.00
C239   C     0.39391   0.23339   0.56770   0.00000  Uiso   1.00
C240   C     0.49096   0.33824   0.76352   0.00000  Uiso   1.00
C241   C     0.45274   0.37702   0.79736   0.00000  Uiso   1.00
C242   C     0.45378   0.44644   0.77797   0.00000  Uiso   1.00
C243   C     0.43849   0.56108   0.76554   0.00000  Uiso   1.00
C244   C     0.56685   0.31586   0.68197   0.00000  Uiso   1.00
C245   C     0.60556   0.25220   0.73314   0.00000  Uiso   1.00
C246   C     0.67115   0.22441   0.73136   0.00000  Uiso   1.00
C247   C     0.69754   0.16599   0.78284   0.00000  Uiso   1.00
C248   C     0.51832   0.29039   0.66543   0.00000  Uiso   1.00
C249   C     0.51056   0.29471   0.60672   0.00000  Uiso   1.00
C250   C     0.46351   0.26844   0.60119   0.00000  Uiso   1.00
C251   C     0.52885   0.36775   0.71215   0.00000  Uiso   1.00
C252   C     0.52994   0.43713   0.69270   0.00000  Uiso   1.00
C253   C     0.49174   0.47601   0.72650   0.00000  Uiso   1.00
H254   H     0.46757   0.23856   0.81656   0.00000  Uiso   1.00
H255   H     0.56462   0.14148   0.87577   0.00000  Uiso   1.00
H256   H     0.40405   0.21177   0.75114   0.00000  Uiso   1.00
H257   H     0.42343   0.35417   0.83711   0.00000  Uiso   1.00
H258   H     0.68892   0.04684   0.91874   0.00000  Uiso   1.00
H259   H     0.35034   0.19509   0.65596   0.00000  Uiso   1.00
H260   H     0.39119   0.49536   0.83725   0.00000  Uiso   1.00
H261   H     0.59635   0.33883   0.64196   0.00000  Uiso   1.00
H262   H     0.70046   0.24726   0.69159   0.00000  Uiso   1.00
H263   H     0.53989   0.31755   0.56697   0.00000  Uiso   1.00
H264   H     0.55927   0.45995   0.65294   0.00000  Uiso   1.00
H265   H     0.79918   0.13270   0.76926   0.00000  Uiso   1.00
H266   H     0.46059   0.28094   0.50647   0.00000  Uiso   1.00
H267   H     0.50145   0.58122   0.68776   0.00000  Uiso   1.00
O268   O     0.81021   0.02770   0.87979   0.00000  Uiso   1.00
O269   O     0.36600   0.22220   0.53503   0.00000  Uiso   1.00
O270   O     0.41960   0.61616   0.77288   0.00000  Uiso   1.00
N271   N     0.70058   0.07963   0.87675   0.00000  Uiso   1.00
N272   N     0.38403   0.21821   0.63107   0.00000  Uiso   1.00
N273   N     0.42222   0.49895   0.80055   0.00000  Uiso   1.00
N274   N     0.75991   0.12582   0.79632   0.00000  Uiso   1.00
N275   N     0.44336   0.26441   0.55063   0.00000  Uiso   1.00
N276   N     0.48154   0.54515   0.72012   0.00000  Uiso   1.00
C277   C     0.21120   0.15377   0.66752   0.00000  Uiso   1.00
C278   C     0.25374   0.08328   0.66614   0.00000  Uiso   1.00
C279   C     0.30761   0.07400   0.62776   0.00000  Uiso   1.00
C280   C     0.34004   0.00529   0.63359   0.00000  Uiso   1.00
C281   C     0.40927   0.90456   0.62497   0.00000  Uiso   1.00
C282   C     0.20935   0.14772   0.73438   0.00000  Uiso   1.00
C283   C     0.22588   0.19263   0.75336   0.00000  Uiso   1.00
C284   C     0.22093   0.17816   0.81663   0.00000  Uiso   1.00
C285   C     0.22120   0.17751   0.91395   0.00000  Uiso   1.00
C286   C     0.14432   0.15799   0.65591   0.00000  Uiso   1.00
C287   C     0.10618   0.21153   0.60893   0.00000  Uiso   1.00
C288   C     0.04648   0.20572   0.60615   0.00000  Uiso   1.00
C289   C     0.94580   0.22101   0.58164   0.00000  Uiso   1.00
C290   C     0.17299   0.04826   0.74612   0.00000  Uiso   1.00
C291   C     0.23298   0.02598   0.70884   0.00000  Uiso   1.00
C292   C     0.26534   0.95727   0.71472   0.00000  Uiso   1.00
C293   C     0.31925   0.94788   0.67635   0.00000  Uiso   1.00
C294   C     0.18859   0.09042   0.77707   0.00000  Uiso   1.00
C295   C     0.18361   0.07589   0.84033   0.00000  Uiso   1.00
C296   C     0.20014   0.12075   0.85940   0.00000  Uiso   1.00
C297   C     0.12357   0.10068   0.69861   0.00000  Uiso   1.00
C298   C     0.06391   0.09479   0.69590   0.00000  Uiso   1.00
C299   C     0.02569   0.14831   0.64892   0.00000  Uiso   1.00
H300   H     0.22735   0.19839   0.63429   0.00000  Uiso   1.00
H301   H     0.32366   0.11836   0.59473   0.00000  Uiso   1.00
H302   H     0.24194   0.23697   0.72031   0.00000  Uiso   1.00
H303   H     0.12226   0.25587   0.57591   0.00000  Uiso   1.00
H304   H     0.42129   0.00437   0.56972   0.00000  Uiso   1.00
H305   H     0.24896   0.25448   0.83451   0.00000  Uiso   1.00
H306   H     0.99659   0.29433   0.53000   0.00000  Uiso   1.00
H307   H     0.15683   0.00364   0.77937   0.00000  Uiso   1.00
H308   H     0.24927   0.91293   0.74777   0.00000  Uiso   1.00
H309   H     0.16755   0.03154   0.87335   0.00000  Uiso   1.00
H310   H     0.04787   0.05044   0.72894   0.00000  Uiso   1.00
H311   H     0.36091   0.83763   0.69393   0.00000  Uiso   1.00
H312   H     0.18858   0.08774   0.95873   0.00000  Uiso   1.00
H313   H     0.93622   0.12759   0.65421   0.00000  Uiso   1.00
O314   O     0.45319   0.86484   0.60844   0.00000  Uiso   1.00
O315   O     0.22709   0.19298   0.95583   0.00000  Uiso   1.00
O316   O     0.89599   0.24527   0.55632   0.00000  Uiso   1.00
N317   N     0.39439   0.97757   0.60328   0.00000  Uiso   1.00
N318   N     0.23328   0.21141   0.85085   0.00000  Uiso   1.00
N319   N     0.99733   0.24868   0.56616   0.00000  Uiso   1.00
N320   N     0.36190   0.88785   0.67012   0.00000  Uiso   1.00
N321   N     0.20079   0.12169   0.91769   0.00000  Uiso   1.00
N322   N     0.96484   0.15896   0.63300   0.00000  Uiso   1.00
C323   C     0.79055   0.33848   0.92050   0.00000  Uiso   1.00
C324   C     0.76448   0.36144   0.85707   0.00000  Uiso   1.00
C325   C     0.75817   0.42704   0.80931   0.00000  Uiso   1.00
C326   C     0.73332   0.43769   0.75486   0.00000  Uiso   1.00
C327   C     0.69560   0.48140   0.65733   0.00000  Uiso   1.00
C328   C     0.84573   0.27220   0.92817   0.00000  Uiso   1.00
C329   C     0.90772   0.26277   0.94018   0.00000  Uiso   1.00
C330   C     0.95125   0.19829   0.94559   0.00000  Uiso   1.00
C331   C     0.03966   0.10345   0.95848   0.00000  Uiso   1.00
C332   C     0.73888   0.31481   0.96821   0.00000  Uiso   1.00
C333   C     0.71104   0.34119   0.01391   0.00000  Uiso   1.00
C334   C     0.66463   0.31257   0.05303   0.00000  Uiso   1.00
C335   C     0.58714   0.28389   0.12809   0.00000  Uiso   1.00
C336   C     0.75764   0.24074   0.90874   0.00000  Uiso   1.00
C337   C     0.74661   0.30835   0.85069   0.00000  Uiso   1.00
C338   C     0.72176   0.31890   0.79630   0.00000  Uiso   1.00
C339   C     0.71541   0.38450   0.74846   0.00000  Uiso   1.00
C340   C     0.82786   0.21911   0.92178   0.00000  Uiso   1.00
C341   C     0.87131   0.15463   0.92717   0.00000  Uiso   1.00
C342   C     0.93335   0.14510   0.93919   0.00000  Uiso   1.00
C343   C     0.72101   0.26172   0.96182   0.00000  Uiso   1.00
C344   C     0.67464   0.23305   0.00089   0.00000  Uiso   1.00
C345   C     0.64673   0.25939   0.04664   0.00000  Uiso   1.00
H346   H     0.80446   0.37981   0.92548   0.00000  Uiso   1.00
H347   H     0.77201   0.46811   0.81427   0.00000  Uiso   1.00
H348   H     0.92153   0.30386   0.94513   0.00000  Uiso   1.00
H349   H     0.72489   0.38227   0.01883   0.00000  Uiso   1.00
H350   H     0.72817   0.54258   0.68815   0.00000  Uiso   1.00
H351   H     0.04344   0.19625   0.96410   0.00000  Uiso   1.00
H352   H     0.62877   0.36160   0.11952   0.00000  Uiso   1.00
H353   H     0.74373   0.19940   0.90377   0.00000  Uiso   1.00
H354   H     0.70794   0.27780   0.79137   0.00000  Uiso   1.00
H355   H     0.85746   0.11356   0.92223   0.00000  Uiso   1.00
H356   H     0.66082   0.19197   0.99593   0.00000  Uiso   1.00
H357   H     0.67617   0.38812   0.66956   0.00000  Uiso   1.00
H358   H     0.99144   0.04179   0.94551   0.00000  Uiso   1.00
H359   H     0.57677   0.20714   0.10093   0.00000  Uiso   1.00
O360   O     0.67974   0.52018   0.60530   0.00000  Uiso   1.00
O361   O     0.09336   0.06580   0.96735   0.00000  Uiso   1.00
O362   O     0.54933   0.28273   0.17125   0.00000  Uiso   1.00
N363   N     0.72083   0.49548   0.69921   0.00000  Uiso   1.00
N364   N     0.01559   0.17168   0.95719   0.00000  Uiso   1.00
N365   N     0.62793   0.32625   0.10251   0.00000  Uiso   1.00
N366   N     0.69285   0.41236   0.68920   0.00000  Uiso   1.00
N367   N     0.98761   0.08857   0.94719   0.00000  Uiso   1.00
N368   N     0.59994   0.24314   0.09251   0.00000  Uiso   1.00
C369   C     0.01297   0.73944   0.19167   0.00000  Uiso   1.00
C370   C     0.96400   0.73785   0.24548   0.00000  Uiso   1.00
C371   C     0.96018   0.67863   0.29800   0.00000  Uiso   1.00
C372   C     0.91197   0.68814   0.34195   0.00000  Uiso   1.00
C373   C     0.84247   0.67557   0.42679   0.00000  Uiso   1.00
C374   C     0.04576   0.79386   0.18563   0.00000  Uiso   1.00
C375   C     0.11068   0.78174   0.18781   0.00000  Uiso   1.00
C376   C     0.13129   0.83841   0.18136   0.00000  Uiso   1.00
C377   C     0.18873   0.91282   0.17323   0.00000  Uiso   1.00
C378   C     0.97512   0.77036   0.13338   0.00000  Uiso   1.00
C379   C     0.98065   0.73849   0.09163   0.00000  Uiso   1.00
C380   C     0.94179   0.77538   0.04119   0.00000  Uiso   1.00
C381   C     0.88955   0.81330   0.95194   0.00000  Uiso   1.00
C382   C     0.93413   0.86165   0.17633   0.00000  Uiso   1.00
C383   C     0.92118   0.80423   0.23715   0.00000  Uiso   1.00
C384   C     0.87296   0.81383   0.28103   0.00000  Uiso   1.00
C385   C     0.86906   0.75463   0.33360   0.00000  Uiso   1.00
C386   C     0.00294   0.86024   0.17730   0.00000  Uiso   1.00
C387   C     0.02346   0.91694   0.17084   0.00000  Uiso   1.00
C388   C     0.08839   0.90491   0.17301   0.00000  Uiso   1.00
C389   C     0.93230   0.83674   0.12505   0.00000  Uiso   1.00
C390   C     0.89343   0.87369   0.07466   0.00000  Uiso   1.00
C391   C     0.89890   0.84188   0.03284   0.00000  Uiso   1.00
H392   H     0.04631   0.68777   0.19815   0.00000  Uiso   1.00
H393   H     0.99333   0.62727   0.30443   0.00000  Uiso   1.00
H394   H     0.14381   0.73037   0.19425   0.00000  Uiso   1.00
H395   H     0.01380   0.68712   0.09809   0.00000  Uiso   1.00
H396   H     0.91573   0.58947   0.41860   0.00000  Uiso   1.00
H397   H     0.23302   0.80687   0.18625   0.00000  Uiso   1.00
H398   H     0.95886   0.71568   0.98348   0.00000  Uiso   1.00
H399   H     0.90079   0.91333   0.16984   0.00000  Uiso   1.00
H400   H     0.83983   0.86520   0.27457   0.00000  Uiso   1.00
H401   H     0.99031   0.96830   0.16439   0.00000  Uiso   1.00
H402   H     0.86029   0.92506   0.06823   0.00000  Uiso   1.00
H403   H     0.79114   0.78259   0.39437   0.00000  Uiso   1.00
H404   H     0.10843   0.99998   0.16202   0.00000  Uiso   1.00
H405   H     0.83427   0.90879   0.95924   0.00000  Uiso   1.00
O406   O     0.81597   0.65031   0.47590   0.00000  Uiso   1.00
O407   O     0.23224   0.93552   0.17105   0.00000  Uiso   1.00
O408   O     0.87255   0.81588   0.90502   0.00000  Uiso   1.00
N409   N     0.89477   0.64152   0.39852   0.00000  Uiso   1.00
N410   N     0.19141   0.84477   0.18130   0.00000  Uiso   1.00
N411   N     0.93511   0.75952   0.99171   0.00000  Uiso   1.00
N412   N     0.82773   0.74544   0.38548   0.00000  Uiso   1.00
N413   N     0.12437   0.94869   0.16826   0.00000  Uiso   1.00
N414   N     0.86807   0.86344   0.97867   0.00000  Uiso   1.00
C415   C     0.72410   0.20952   0.56509   0.00000  Uiso   1.00
C416   C     0.76997   0.18157   0.51961   0.00000  Uiso   1.00
C417   C     0.83354   0.14403   0.52904   0.00000  Uiso   1.00
C418   C     0.86746   0.12314   0.48180   0.00000  Uiso   1.00
C419   C     0.94305   0.07732   0.41948   0.00000  Uiso   1.00
C420   C     0.69777   0.28865   0.52972   0.00000  Uiso   1.00
C421   C     0.70064   0.34114   0.54764   0.00000  Uiso   1.00
C422   C     0.67378   0.41039   0.50892   0.00000  Uiso   1.00
C423   C     0.63724   0.53081   0.46231   0.00000  Uiso   1.00
C424   C     0.66840   0.17867   0.57698   0.00000  Uiso   1.00
C425   C     0.64654   0.13871   0.63466   0.00000  Uiso   1.00
C426   C     0.59494   0.11539   0.63573   0.00000  Uiso   1.00
C427   C     0.51279   0.06505   0.66252   0.00000  Uiso   1.00
C428   C     0.67131   0.23918   0.46446   0.00000  Uiso   1.00
C429   C     0.74129   0.19768   0.46495   0.00000  Uiso   1.00
C430   C     0.77513   0.17684   0.41769   0.00000  Uiso   1.00
C431   C     0.83873   0.13928   0.42704   0.00000  Uiso   1.00
C432   C     0.66910   0.30476   0.47506   0.00000  Uiso   1.00
C433   C     0.64223   0.37395   0.43630   0.00000  Uiso   1.00
C434   C     0.64505   0.42653   0.45416   0.00000  Uiso   1.00
C435   C     0.63972   0.19478   0.52232   0.00000  Uiso   1.00
C436   C     0.58814   0.17152   0.52331   0.00000  Uiso   1.00
C437   C     0.56621   0.13152   0.58097   0.00000  Uiso   1.00
H438   H     0.74643   0.19698   0.60765   0.00000  Uiso   1.00
H439   H     0.85571   0.13158   0.57134   0.00000  Uiso   1.00
H440   H     0.72283   0.32865   0.58995   0.00000  Uiso   1.00
H441   H     0.66875   0.12626   0.67695   0.00000  Uiso   1.00
H442   H     0.96423   0.06619   0.50697   0.00000  Uiso   1.00
H443   H     0.68402   0.48173   0.54622   0.00000  Uiso   1.00
H444   H     0.56998   0.05494   0.72967   0.00000  Uiso   1.00
H445   H     0.64898   0.25172   0.42190   0.00000  Uiso   1.00
H446   H     0.75292   0.18931   0.37540   0.00000  Uiso   1.00
H447   H     0.62004   0.38639   0.39400   0.00000  Uiso   1.00
H448   H     0.56596   0.18399   0.48100   0.00000  Uiso   1.00
H449   H     0.88081   0.11306   0.34793   0.00000  Uiso   1.00
H450   H     0.60059   0.52860   0.38718   0.00000  Uiso   1.00
H451   H     0.48655   0.10180   0.57063   0.00000  Uiso   1.00
O452   O     0.99266   0.04761   0.40021   0.00000  Uiso   1.00
O453   O     0.62502   0.59278   0.45170   0.00000  Uiso   1.00
O454   O     0.47540   0.03283   0.69239   0.00000  Uiso   1.00
N455   N     0.93033   0.08577   0.47593   0.00000  Uiso   1.00
N456   N     0.66836   0.47428   0.51262   0.00000  Uiso   1.00
N457   N     0.56173   0.07528   0.68413   0.00000  Uiso   1.00
N458   N     0.88544   0.11099   0.39035   0.00000  Uiso   1.00
N459   N     0.62346   0.49950   0.42704   0.00000  Uiso   1.00
N460   N     0.51683   0.10050   0.59856   0.00000  Uiso   1.00
C461   C     0.33688   0.65337   0.55443   0.00000  Uiso   1.00
C462   C     0.33233   0.58080   0.60013   0.00000  Uiso   1.00
C463   C     0.28584   0.56776   0.64710   0.00000  Uiso   1.00
C464   C     0.29001   0.49768   0.68397   0.00000  Uiso   1.00
C465   C     0.27552   0.39338   0.75643   0.00000  Uiso   1.00
C466   C     0.40273   0.65660   0.56097   0.00000  Uiso   1.00
C467   C     0.41544   0.70729   0.57501   0.00000  Uiso   1.00
C468   C     0.47887   0.70101   0.57891   0.00000  Uiso   1.00
C469   C     0.57368   0.71441   0.59053   0.00000  Uiso   1.00
C470   C     0.33731   0.65330   0.48984   0.00000  Uiso   1.00
C471   C     0.29502   0.70123   0.44406   0.00000  Uiso   1.00
C472   C     0.30339   0.69219   0.38807   0.00000  Uiso   1.00
C473   C     0.29662   0.70046   0.28925   0.00000  Uiso   1.00
C474   C     0.42694   0.55209   0.53638   0.00000  Uiso   1.00
C475   C     0.38124   0.52580   0.59032   0.00000  Uiso   1.00
C476   C     0.38548   0.45571   0.62713   0.00000  Uiso   1.00
C477   C     0.33901   0.44257   0.67415   0.00000  Uiso   1.00
C478   C     0.45164   0.60159   0.55117   0.00000  Uiso   1.00
C479   C     0.51508   0.59524   0.55504   0.00000  Uiso   1.00
C480   C     0.52788   0.64591   0.56909   0.00000  Uiso   1.00
C481   C     0.38622   0.59829   0.48003   0.00000  Uiso   1.00
C482   C     0.39466   0.58918   0.42410   0.00000  Uiso   1.00
C483   C     0.35239   0.63708   0.37825   0.00000  Uiso   1.00
H484   H     0.29880   0.69619   0.56207   0.00000  Uiso   1.00
H485   H     0.24800   0.61035   0.65468   0.00000  Uiso   1.00
H486   H     0.37758   0.74985   0.58259   0.00000  Uiso   1.00
H487   H     0.25717   0.74379   0.45167   0.00000  Uiso   1.00
H488   H     0.21326   0.49091   0.75304   0.00000  Uiso   1.00
H489   H     0.48648   0.78508   0.60103   0.00000  Uiso   1.00
H490   H     0.23259   0.77230   0.32495   0.00000  Uiso   1.00
H491   H     0.46502   0.50927   0.52875   0.00000  Uiso   1.00
H492   H     0.42334   0.41316   0.61953   0.00000  Uiso   1.00
H493   H     0.55292   0.55267   0.54745   0.00000  Uiso   1.00
H494   H     0.43252   0.54660   0.41652   0.00000  Uiso   1.00
H495   H     0.35558   0.33087   0.72452   0.00000  Uiso   1.00
H496   H     0.62880   0.62504   0.57250   0.00000  Uiso   1.00
H497   H     0.37491   0.61226   0.29642   0.00000  Uiso   1.00
O498   O     0.25401   0.35104   0.79912   0.00000  Uiso   1.00
O499   O     0.61246   0.73699   0.59966   0.00000  Uiso   1.00
O500   O     0.27937   0.72022   0.23746   0.00000  Uiso   1.00
N501   N     0.25247   0.46643   0.73386   0.00000  Uiso   1.00
N502   N     0.50791   0.74146   0.59175   0.00000  Uiso   1.00
N503   N     0.27056   0.72952   0.33363   0.00000  Uiso   1.00
N504   N     0.32905   0.38031   0.71852   0.00000  Uiso   1.00
N505   N     0.58449   0.65534   0.57640   0.00000  Uiso   1.00
N506   N     0.34714   0.64340   0.31828   0.00000  Uiso   1.00
C507   C     0.70461   0.76139   0.07617   0.00000  Uiso   1.00
C508   C     0.66051   0.82017   0.02636   0.00000  Uiso   1.00
C509   C     0.67958   0.86314   0.96869   0.00000  Uiso   1.00
C510   C     0.63193   0.91384   0.92972   0.00000  Uiso   1.00
C511   C     0.57326   0.00401   0.84963   0.00000  Uiso   1.00
C512   C     0.68653   0.77861   0.13435   0.00000  Uiso   1.00
C513   C     0.72748   0.78664   0.16748   0.00000  Uiso   1.00
C514   C     0.70173   0.80235   0.21941   0.00000  Uiso   1.00
C515   C     0.68345   0.82795   0.30700   0.00000  Uiso   1.00
C516   C     0.68555   0.69472   0.09066   0.00000  Uiso   1.00
C517   C     0.72569   0.63221   0.08708   0.00000  Uiso   1.00
C518   C     0.69912   0.57728   0.10225   0.00000  Uiso   1.00
C519   C     0.67933   0.47263   0.12200   0.00000  Uiso   1.00
C520   C     0.58607   0.77500   0.10951   0.00000  Uiso   1.00
C521   C     0.59613   0.82756   0.04447   0.00000  Uiso   1.00
C522   C     0.54843   0.87821   0.00557   0.00000  Uiso   1.00
C523   C     0.56743   0.92125   0.94785   0.00000  Uiso   1.00
C524   C     0.62215   0.78601   0.15245   0.00000  Uiso   1.00
C525   C     0.59633   0.80170   0.20436   0.00000  Uiso   1.00
C526   C     0.63723   0.80976   0.23755   0.00000  Uiso   1.00
C527   C     0.62117   0.70212   0.10877   0.00000  Uiso   1.00
C528   C     0.59454   0.64727   0.12395   0.00000  Uiso   1.00
C529   C     0.63462   0.58469   0.12039   0.00000  Uiso   1.00
H530   H     0.75473   0.75563   0.06208   0.00000  Uiso   1.00
H531   H     0.72941   0.85741   0.95470   0.00000  Uiso   1.00
H532   H     0.77730   0.78091   0.15346   0.00000  Uiso   1.00
H533   H     0.77551   0.62650   0.07306   0.00000  Uiso   1.00
H534   H     0.67295   0.97352   0.84364   0.00000  Uiso   1.00
H535   H     0.77392   0.81220   0.26274   0.00000  Uiso   1.00
H536   H     0.77015   0.48660   0.09322   0.00000  Uiso   1.00
H537   H     0.53594   0.78076   0.12361   0.00000  Uiso   1.00
H538   H     0.49861   0.88392   0.01960   0.00000  Uiso   1.00
H539   H     0.54650   0.80742   0.21836   0.00000  Uiso   1.00
H540   H     0.54471   0.65301   0.13796   0.00000  Uiso   1.00
H541   H     0.48562   0.99504   0.89631   0.00000  Uiso   1.00
H542   H     0.58660   0.83371   0.31542   0.00000  Uiso   1.00
H543   H     0.58282   0.50812   0.14589   0.00000  Uiso   1.00
O544   O     0.55868   0.05171   0.80045   0.00000  Uiso   1.00
O545   O     0.69116   0.84004   0.35031   0.00000  Uiso   1.00
O546   O     0.68620   0.41287   0.12789   0.00000  Uiso   1.00
N547   N     0.63398   0.96442   0.87031   0.00000  Uiso   1.00
N548   N     0.72839   0.81360   0.26214   0.00000  Uiso   1.00
N549   N     0.72486   0.50919   0.10366   0.00000  Uiso   1.00
N550   N     0.53318   0.97600   0.89865   0.00000  Uiso   1.00
N551   N     0.62759   0.82518   0.29048   0.00000  Uiso   1.00
N552   N     0.62406   0.52077   0.13201   0.00000  Uiso   1.00
