data_job_05693
_audit_creation_date              2018-12-19
_audit_creation_method            'Materials Studio'
_symmetry_space_group_name_H-M    'P1'
_symmetry_Int_Tables_number       1
_symmetry_cell_setting            triclinic
loop_
_symmetry_equiv_pos_as_xyz
  x,y,z
_cell_length_a                    31.4727
_cell_length_b                    14.0523
_cell_length_c                    10.7804
_cell_angle_alpha                 90.0000
_cell_angle_beta                  106.3462
_cell_angle_gamma                 90.0000
loop_
_atom_site_label
_atom_site_type_symbol
_atom_site_fract_x
_atom_site_fract_y
_atom_site_fract_z
_atom_site_U_iso_or_equiv
_atom_site_adp_type
_atom_site_occupancy
C1     C     0.11873   0.34827   0.15563   0.00000  Uiso   1.00
C2     C     0.09889   0.44548   0.16871   0.00000  Uiso   1.00
C3     C     0.06598   0.49087   0.07406   0.00000  Uiso   1.00
C4     C     0.05232   0.57953   0.10487   0.00000  Uiso   1.00
C5     C     0.01870   0.72416   0.10672   0.00000  Uiso   1.00
C6     C     0.16851   0.36390   0.18444   0.00000  Uiso   1.00
C7     C     0.19414   0.34067   0.10301   0.00000  Uiso   1.00
C8     C     0.23909   0.36064   0.14708   0.00000  Uiso   1.00
C9     C     0.31356   0.37854   0.17339   0.00000  Uiso   1.00
C10    C     0.11227   0.28804   0.26658   0.00000  Uiso   1.00
C11    C     0.09063   0.20101   0.25424   0.00000  Uiso   1.00
C12    C     0.08825   0.15710   0.36746   0.00000  Uiso   1.00
C13    C     0.07541   0.05721   0.52132   0.00000  Uiso   1.00
C14    C     0.15299   0.42501   0.37867   0.00000  Uiso   1.00
C15    C     0.11750   0.48717   0.28986   0.00000  Uiso   1.00
C16    C     0.10389   0.57578   0.32082   0.00000  Uiso   1.00
C17    C     0.07096   0.62129   0.22623   0.00000  Uiso   1.00
C18    C     0.18712   0.40558   0.30558   0.00000  Uiso   1.00
C19    C     0.23205   0.42558   0.34978   0.00000  Uiso   1.00
C20    C     0.25774   0.40240   0.26844   0.00000  Uiso   1.00
C21    C     0.13089   0.32972   0.38773   0.00000  Uiso   1.00
C22    C     0.12854   0.28592   0.50100   0.00000  Uiso   1.00
C23    C     0.10690   0.19886   0.48883   0.00000  Uiso   1.00
H24    H     0.10424   0.31582   0.06132   0.00000  Uiso   1.00
H25    H     0.05158   0.45860   0.98031   0.00000  Uiso   1.00
H26    H     0.17972   0.30841   0.00928   0.00000  Uiso   1.00
H27    H     0.07623   0.16878   0.16047   0.00000  Uiso   1.00
H28    H     0.00142   0.63529   0.94391   0.00000  Uiso   1.00
H29    H     0.27162   0.31858   0.00500   0.00000  Uiso   1.00
H30    H     0.05339   0.02414   0.32383   0.00000  Uiso   1.00
H31    H     0.16749   0.45747   0.47299   0.00000  Uiso   1.00
H32    H     0.11830   0.60802   0.41458   0.00000  Uiso   1.00
H33    H     0.24644   0.45783   0.44354   0.00000  Uiso   1.00
H34    H     0.14295   0.31820   0.59473   0.00000  Uiso   1.00
H35    H     0.05557   0.75656   0.29638   0.00000  Uiso   1.00
H36    H     0.32577   0.43986   0.35746   0.00000  Uiso   1.00
H37    H     0.10754   0.14541   0.67629   0.00000  Uiso   1.00
O38    O     0.99501   0.79242   0.07428   0.00000  Uiso   1.00
O39    O     0.34949   0.37690   0.15443   0.00000  Uiso   1.00
O40    O     0.06318   0.99060   0.57272   0.00000  Uiso   1.00
N41    N     0.02091   0.64316   0.03489   0.00000  Uiso   1.00
N42    N     0.27353   0.34707   0.09199   0.00000  Uiso   1.00
N43    N     0.06951   0.07178   0.39007   0.00000  Uiso   1.00
N44    N     0.05005   0.70842   0.22455   0.00000  Uiso   1.00
N45    N     0.30266   0.41233   0.28165   0.00000  Uiso   1.00
N46    N     0.09865   0.13704   0.57973   0.00000  Uiso   1.00
C47    C     0.61873   0.84827   0.15563   0.00000  Uiso   1.00
C48    C     0.59889   0.94548   0.16871   0.00000  Uiso   1.00
C49    C     0.56598   0.99087   0.07406   0.00000  Uiso   1.00
C50    C     0.55232   0.07953   0.10487   0.00000  Uiso   1.00
C51    C     0.51870   0.22416   0.10672   0.00000  Uiso   1.00
C52    C     0.66851   0.86390   0.18444   0.00000  Uiso   1.00
C53    C     0.69414   0.84067   0.10301   0.00000  Uiso   1.00
C54    C     0.73909   0.86064   0.14708   0.00000  Uiso   1.00
C55    C     0.81356   0.87854   0.17339   0.00000  Uiso   1.00
C56    C     0.61227   0.78804   0.26658   0.00000  Uiso   1.00
C57    C     0.59063   0.70101   0.25424   0.00000  Uiso   1.00
C58    C     0.58825   0.65710   0.36746   0.00000  Uiso   1.00
C59    C     0.57541   0.55721   0.52132   0.00000  Uiso   1.00
C60    C     0.65299   0.92501   0.37867   0.00000  Uiso   1.00
C61    C     0.61750   0.98717   0.28986   0.00000  Uiso   1.00
C62    C     0.60389   0.07578   0.32082   0.00000  Uiso   1.00
C63    C     0.57096   0.12129   0.22623   0.00000  Uiso   1.00
C64    C     0.68712   0.90558   0.30558   0.00000  Uiso   1.00
C65    C     0.73205   0.92558   0.34978   0.00000  Uiso   1.00
C66    C     0.75774   0.90240   0.26844   0.00000  Uiso   1.00
C67    C     0.63089   0.82972   0.38773   0.00000  Uiso   1.00
C68    C     0.62854   0.78592   0.50100   0.00000  Uiso   1.00
C69    C     0.60690   0.69886   0.48883   0.00000  Uiso   1.00
H70    H     0.60424   0.81582   0.06132   0.00000  Uiso   1.00
H71    H     0.55158   0.95860   0.98031   0.00000  Uiso   1.00
H72    H     0.67972   0.80841   0.00928   0.00000  Uiso   1.00
H73    H     0.57623   0.66878   0.16047   0.00000  Uiso   1.00
H74    H     0.50142   0.13529   0.94391   0.00000  Uiso   1.00
H75    H     0.77162   0.81858   0.00500   0.00000  Uiso   1.00
H76    H     0.55339   0.52414   0.32383   0.00000  Uiso   1.00
H77    H     0.66749   0.95747   0.47299   0.00000  Uiso   1.00
H78    H     0.61830   0.10802   0.41458   0.00000  Uiso   1.00
H79    H     0.74644   0.95783   0.44354   0.00000  Uiso   1.00
H80    H     0.64295   0.81820   0.59473   0.00000  Uiso   1.00
H81    H     0.55557   0.25656   0.29638   0.00000  Uiso   1.00
H82    H     0.82577   0.93986   0.35746   0.00000  Uiso   1.00
H83    H     0.60754   0.64541   0.67629   0.00000  Uiso   1.00
O84    O     0.49501   0.29242   0.07428   0.00000  Uiso   1.00
O85    O     0.84949   0.87690   0.15443   0.00000  Uiso   1.00
O86    O     0.56318   0.49060   0.57272   0.00000  Uiso   1.00
N87    N     0.52091   0.14316   0.03489   0.00000  Uiso   1.00
N88    N     0.77353   0.84707   0.09199   0.00000  Uiso   1.00
N89    N     0.56951   0.57178   0.39007   0.00000  Uiso   1.00
N90    N     0.55005   0.20842   0.22455   0.00000  Uiso   1.00
N91    N     0.80266   0.91233   0.28165   0.00000  Uiso   1.00
N92    N     0.59865   0.63704   0.57973   0.00000  Uiso   1.00
C93    C     0.88127   0.34827   0.34437   0.00000  Uiso   1.00
C94    C     0.90111   0.44548   0.33129   0.00000  Uiso   1.00
C95    C     0.93402   0.49087   0.42594   0.00000  Uiso   1.00
C96    C     0.94768   0.57953   0.39513   0.00000  Uiso   1.00
C97    C     0.98130   0.72416   0.39328   0.00000  Uiso   1.00
C98    C     0.83149   0.36390   0.31556   0.00000  Uiso   1.00
C99    C     0.80586   0.34067   0.39699   0.00000  Uiso   1.00
C100   C     0.76091   0.36064   0.35292   0.00000  Uiso   1.00
C101   C     0.68644   0.37854   0.32661   0.00000  Uiso   1.00
C102   C     0.88773   0.28804   0.23342   0.00000  Uiso   1.00
C103   C     0.90937   0.20101   0.24576   0.00000  Uiso   1.00
C104   C     0.91175   0.15710   0.13254   0.00000  Uiso   1.00
C105   C     0.92459   0.05721   0.97868   0.00000  Uiso   1.00
C106   C     0.84701   0.42501   0.12133   0.00000  Uiso   1.00
C107   C     0.88250   0.48717   0.21014   0.00000  Uiso   1.00
C108   C     0.89611   0.57578   0.17918   0.00000  Uiso   1.00
C109   C     0.92904   0.62129   0.27377   0.00000  Uiso   1.00
C110   C     0.81288   0.40558   0.19442   0.00000  Uiso   1.00
C111   C     0.76795   0.42558   0.15022   0.00000  Uiso   1.00
C112   C     0.74226   0.40240   0.23156   0.00000  Uiso   1.00
C113   C     0.86911   0.32972   0.11227   0.00000  Uiso   1.00
C114   C     0.87146   0.28592   0.99900   0.00000  Uiso   1.00
C115   C     0.89310   0.19886   0.01117   0.00000  Uiso   1.00
H116   H     0.89576   0.31582   0.43868   0.00000  Uiso   1.00
H117   H     0.94842   0.45860   0.51969   0.00000  Uiso   1.00
H118   H     0.82028   0.30841   0.49072   0.00000  Uiso   1.00
H119   H     0.92377   0.16878   0.33953   0.00000  Uiso   1.00
H120   H     0.99858   0.63529   0.55609   0.00000  Uiso   1.00
H121   H     0.72838   0.31858   0.49500   0.00000  Uiso   1.00
H122   H     0.94661   0.02414   0.17617   0.00000  Uiso   1.00
H123   H     0.83251   0.45747   0.02701   0.00000  Uiso   1.00
H124   H     0.88170   0.60802   0.08542   0.00000  Uiso   1.00
H125   H     0.75356   0.45783   0.05646   0.00000  Uiso   1.00
H126   H     0.85705   0.31820   0.90527   0.00000  Uiso   1.00
H127   H     0.94443   0.75656   0.20362   0.00000  Uiso   1.00
H128   H     0.67423   0.43986   0.14254   0.00000  Uiso   1.00
H129   H     0.89246   0.14541   0.82371   0.00000  Uiso   1.00
O130   O     0.00499   0.79242   0.42572   0.00000  Uiso   1.00
O131   O     0.65051   0.37690   0.34557   0.00000  Uiso   1.00
O132   O     0.93682   0.99060   0.92728   0.00000  Uiso   1.00
N133   N     0.97909   0.64316   0.46511   0.00000  Uiso   1.00
N134   N     0.72647   0.34707   0.40801   0.00000  Uiso   1.00
N135   N     0.93049   0.07178   0.10993   0.00000  Uiso   1.00
N136   N     0.94995   0.70842   0.27545   0.00000  Uiso   1.00
N137   N     0.69734   0.41233   0.21835   0.00000  Uiso   1.00
N138   N     0.90135   0.13704   0.92027   0.00000  Uiso   1.00
C139   C     0.38127   0.84827   0.34437   0.00000  Uiso   1.00
C140   C     0.40111   0.94548   0.33129   0.00000  Uiso   1.00
C141   C     0.43402   0.99087   0.42594   0.00000  Uiso   1.00
C142   C     0.44768   0.07953   0.39513   0.00000  Uiso   1.00
C143   C     0.48130   0.22416   0.39328   0.00000  Uiso   1.00
C144   C     0.33149   0.86390   0.31556   0.00000  Uiso   1.00
C145   C     0.30586   0.84067   0.39699   0.00000  Uiso   1.00
C146   C     0.26091   0.86064   0.35292   0.00000  Uiso   1.00
C147   C     0.18644   0.87854   0.32661   0.00000  Uiso   1.00
C148   C     0.38773   0.78804   0.23342   0.00000  Uiso   1.00
C149   C     0.40937   0.70101   0.24576   0.00000  Uiso   1.00
C150   C     0.41175   0.65710   0.13254   0.00000  Uiso   1.00
C151   C     0.42459   0.55721   0.97868   0.00000  Uiso   1.00
C152   C     0.34701   0.92501   0.12133   0.00000  Uiso   1.00
C153   C     0.38250   0.98717   0.21014   0.00000  Uiso   1.00
C154   C     0.39611   0.07578   0.17918   0.00000  Uiso   1.00
C155   C     0.42904   0.12129   0.27377   0.00000  Uiso   1.00
C156   C     0.31288   0.90558   0.19442   0.00000  Uiso   1.00
C157   C     0.26795   0.92558   0.15022   0.00000  Uiso   1.00
C158   C     0.24226   0.90240   0.23156   0.00000  Uiso   1.00
C159   C     0.36911   0.82972   0.11227   0.00000  Uiso   1.00
C160   C     0.37146   0.78592   0.99900   0.00000  Uiso   1.00
C161   C     0.39310   0.69886   0.01117   0.00000  Uiso   1.00
H162   H     0.39576   0.81582   0.43868   0.00000  Uiso   1.00
H163   H     0.44842   0.95860   0.51969   0.00000  Uiso   1.00
H164   H     0.32028   0.80841   0.49072   0.00000  Uiso   1.00
H165   H     0.42377   0.66878   0.33953   0.00000  Uiso   1.00
H166   H     0.49858   0.13529   0.55609   0.00000  Uiso   1.00
H167   H     0.22838   0.81858   0.49500   0.00000  Uiso   1.00
H168   H     0.44661   0.52414   0.17617   0.00000  Uiso   1.00
H169   H     0.33251   0.95747   0.02701   0.00000  Uiso   1.00
H170   H     0.38170   0.10802   0.08542   0.00000  Uiso   1.00
H171   H     0.25356   0.95783   0.05646   0.00000  Uiso   1.00
H172   H     0.35705   0.81820   0.90527   0.00000  Uiso   1.00
H173   H     0.44443   0.25656   0.20362   0.00000  Uiso   1.00
H174   H     0.17423   0.93986   0.14254   0.00000  Uiso   1.00
H175   H     0.39246   0.64541   0.82371   0.00000  Uiso   1.00
O176   O     0.50499   0.29242   0.42572   0.00000  Uiso   1.00
O177   O     0.15051   0.87690   0.34557   0.00000  Uiso   1.00
O178   O     0.43682   0.49060   0.92728   0.00000  Uiso   1.00
N179   N     0.47909   0.14316   0.46511   0.00000  Uiso   1.00
N180   N     0.22647   0.84707   0.40801   0.00000  Uiso   1.00
N181   N     0.43049   0.57178   0.10993   0.00000  Uiso   1.00
N182   N     0.44995   0.20842   0.27545   0.00000  Uiso   1.00
N183   N     0.19734   0.91233   0.21835   0.00000  Uiso   1.00
N184   N     0.40135   0.63704   0.92027   0.00000  Uiso   1.00
C185   C     0.88127   0.65173   0.84437   0.00000  Uiso   1.00
C186   C     0.90111   0.55452   0.83129   0.00000  Uiso   1.00
C187   C     0.93402   0.50913   0.92594   0.00000  Uiso   1.00
C188   C     0.94768   0.42047   0.89513   0.00000  Uiso   1.00
C189   C     0.98130   0.27584   0.89328   0.00000  Uiso   1.00
C190   C     0.83149   0.63610   0.81556   0.00000  Uiso   1.00
C191   C     0.80586   0.65933   0.89699   0.00000  Uiso   1.00
C192   C     0.76091   0.63936   0.85292   0.00000  Uiso   1.00
C193   C     0.68644   0.62146   0.82661   0.00000  Uiso   1.00
C194   C     0.88773   0.71196   0.73342   0.00000  Uiso   1.00
C195   C     0.90937   0.79899   0.74576   0.00000  Uiso   1.00
C196   C     0.91175   0.84290   0.63254   0.00000  Uiso   1.00
C197   C     0.92459   0.94279   0.47868   0.00000  Uiso   1.00
C198   C     0.84701   0.57499   0.62133   0.00000  Uiso   1.00
C199   C     0.88250   0.51283   0.71014   0.00000  Uiso   1.00
C200   C     0.89611   0.42422   0.67918   0.00000  Uiso   1.00
C201   C     0.92904   0.37871   0.77377   0.00000  Uiso   1.00
C202   C     0.81288   0.59442   0.69442   0.00000  Uiso   1.00
C203   C     0.76795   0.57442   0.65022   0.00000  Uiso   1.00
C204   C     0.74226   0.59760   0.73156   0.00000  Uiso   1.00
C205   C     0.86911   0.67028   0.61227   0.00000  Uiso   1.00
C206   C     0.87146   0.71408   0.49900   0.00000  Uiso   1.00
C207   C     0.89310   0.80114   0.51117   0.00000  Uiso   1.00
H208   H     0.89576   0.68418   0.93868   0.00000  Uiso   1.00
H209   H     0.94842   0.54140   0.01969   0.00000  Uiso   1.00
H210   H     0.82028   0.69159   0.99072   0.00000  Uiso   1.00
H211   H     0.92377   0.83122   0.83953   0.00000  Uiso   1.00
H212   H     0.99858   0.36471   0.05609   0.00000  Uiso   1.00
H213   H     0.72838   0.68142   0.99500   0.00000  Uiso   1.00
H214   H     0.94661   0.97586   0.67617   0.00000  Uiso   1.00
H215   H     0.83251   0.54253   0.52701   0.00000  Uiso   1.00
H216   H     0.88170   0.39198   0.58542   0.00000  Uiso   1.00
H217   H     0.75356   0.54217   0.55646   0.00000  Uiso   1.00
H218   H     0.85705   0.68180   0.40527   0.00000  Uiso   1.00
H219   H     0.94443   0.24344   0.70362   0.00000  Uiso   1.00
H220   H     0.67423   0.56014   0.64254   0.00000  Uiso   1.00
H221   H     0.89246   0.85459   0.32371   0.00000  Uiso   1.00
O222   O     0.00499   0.20758   0.92572   0.00000  Uiso   1.00
O223   O     0.65051   0.62310   0.84557   0.00000  Uiso   1.00
O224   O     0.93682   0.00940   0.42728   0.00000  Uiso   1.00
N225   N     0.97909   0.35684   0.96511   0.00000  Uiso   1.00
N226   N     0.72647   0.65293   0.90801   0.00000  Uiso   1.00
N227   N     0.93049   0.92822   0.60993   0.00000  Uiso   1.00
N228   N     0.94995   0.29158   0.77545   0.00000  Uiso   1.00
N229   N     0.69734   0.58767   0.71835   0.00000  Uiso   1.00
N230   N     0.90135   0.86296   0.42027   0.00000  Uiso   1.00
C231   C     0.38127   0.15173   0.84437   0.00000  Uiso   1.00
C232   C     0.40111   0.05452   0.83129   0.00000  Uiso   1.00
C233   C     0.43402   0.00913   0.92594   0.00000  Uiso   1.00
C234   C     0.44768   0.92047   0.89513   0.00000  Uiso   1.00
C235   C     0.48130   0.77584   0.89328   0.00000  Uiso   1.00
C236   C     0.33149   0.13610   0.81556   0.00000  Uiso   1.00
C237   C     0.30586   0.15933   0.89699   0.00000  Uiso   1.00
C238   C     0.26091   0.13936   0.85292   0.00000  Uiso   1.00
C239   C     0.18644   0.12146   0.82661   0.00000  Uiso   1.00
C240   C     0.38773   0.21196   0.73342   0.00000  Uiso   1.00
C241   C     0.40937   0.29899   0.74576   0.00000  Uiso   1.00
C242   C     0.41175   0.34290   0.63254   0.00000  Uiso   1.00
C243   C     0.42459   0.44279   0.47868   0.00000  Uiso   1.00
C244   C     0.34701   0.07499   0.62133   0.00000  Uiso   1.00
C245   C     0.38250   0.01283   0.71014   0.00000  Uiso   1.00
C246   C     0.39611   0.92422   0.67918   0.00000  Uiso   1.00
C247   C     0.42904   0.87871   0.77377   0.00000  Uiso   1.00
C248   C     0.31288   0.09442   0.69442   0.00000  Uiso   1.00
C249   C     0.26795   0.07442   0.65022   0.00000  Uiso   1.00
C250   C     0.24226   0.09760   0.73156   0.00000  Uiso   1.00
C251   C     0.36911   0.17028   0.61227   0.00000  Uiso   1.00
C252   C     0.37146   0.21408   0.49900   0.00000  Uiso   1.00
C253   C     0.39310   0.30114   0.51117   0.00000  Uiso   1.00
H254   H     0.39576   0.18418   0.93868   0.00000  Uiso   1.00
H255   H     0.44842   0.04140   0.01969   0.00000  Uiso   1.00
H256   H     0.32028   0.19159   0.99072   0.00000  Uiso   1.00
H257   H     0.42377   0.33122   0.83953   0.00000  Uiso   1.00
H258   H     0.49858   0.86471   0.05609   0.00000  Uiso   1.00
H259   H     0.22838   0.18142   0.99500   0.00000  Uiso   1.00
H260   H     0.44661   0.47586   0.67617   0.00000  Uiso   1.00
H261   H     0.33251   0.04253   0.52701   0.00000  Uiso   1.00
H262   H     0.38170   0.89198   0.58542   0.00000  Uiso   1.00
H263   H     0.25356   0.04217   0.55646   0.00000  Uiso   1.00
H264   H     0.35705   0.18180   0.40527   0.00000  Uiso   1.00
H265   H     0.44443   0.74344   0.70362   0.00000  Uiso   1.00
H266   H     0.17423   0.06014   0.64254   0.00000  Uiso   1.00
H267   H     0.39246   0.35459   0.32371   0.00000  Uiso   1.00
O268   O     0.50499   0.70758   0.92572   0.00000  Uiso   1.00
O269   O     0.15051   0.12310   0.84557   0.00000  Uiso   1.00
O270   O     0.43682   0.50940   0.42728   0.00000  Uiso   1.00
N271   N     0.47909   0.85684   0.96511   0.00000  Uiso   1.00
N272   N     0.22647   0.15293   0.90801   0.00000  Uiso   1.00
N273   N     0.43049   0.42822   0.60993   0.00000  Uiso   1.00
N274   N     0.44995   0.79158   0.77545   0.00000  Uiso   1.00
N275   N     0.19734   0.08767   0.71835   0.00000  Uiso   1.00
N276   N     0.40135   0.36296   0.42027   0.00000  Uiso   1.00
C277   C     0.11873   0.65173   0.65563   0.00000  Uiso   1.00
C278   C     0.09889   0.55452   0.66871   0.00000  Uiso   1.00
C279   C     0.06598   0.50913   0.57406   0.00000  Uiso   1.00
C280   C     0.05232   0.42047   0.60487   0.00000  Uiso   1.00
C281   C     0.01870   0.27584   0.60672   0.00000  Uiso   1.00
C282   C     0.16851   0.63610   0.68444   0.00000  Uiso   1.00
C283   C     0.19414   0.65933   0.60301   0.00000  Uiso   1.00
C284   C     0.23909   0.63936   0.64708   0.00000  Uiso   1.00
C285   C     0.31356   0.62146   0.67339   0.00000  Uiso   1.00
C286   C     0.11227   0.71196   0.76658   0.00000  Uiso   1.00
C287   C     0.09063   0.79899   0.75424   0.00000  Uiso   1.00
C288   C     0.08825   0.84290   0.86746   0.00000  Uiso   1.00
C289   C     0.07541   0.94279   0.02132   0.00000  Uiso   1.00
C290   C     0.15299   0.57499   0.87867   0.00000  Uiso   1.00
C291   C     0.11750   0.51283   0.78986   0.00000  Uiso   1.00
C292   C     0.10389   0.42422   0.82082   0.00000  Uiso   1.00
C293   C     0.07096   0.37871   0.72623   0.00000  Uiso   1.00
C294   C     0.18712   0.59442   0.80558   0.00000  Uiso   1.00
C295   C     0.23205   0.57442   0.84978   0.00000  Uiso   1.00
C296   C     0.25774   0.59760   0.76844   0.00000  Uiso   1.00
C297   C     0.13089   0.67028   0.88773   0.00000  Uiso   1.00
C298   C     0.12854   0.71408   0.00100   0.00000  Uiso   1.00
C299   C     0.10690   0.80114   0.98883   0.00000  Uiso   1.00
H300   H     0.10424   0.68418   0.56132   0.00000  Uiso   1.00
H301   H     0.05158   0.54140   0.48031   0.00000  Uiso   1.00
H302   H     0.17972   0.69159   0.50928   0.00000  Uiso   1.00
H303   H     0.07623   0.83122   0.66047   0.00000  Uiso   1.00
H304   H     0.00142   0.36471   0.44391   0.00000  Uiso   1.00
H305   H     0.27162   0.68142   0.50500   0.00000  Uiso   1.00
H306   H     0.05339   0.97586   0.82383   0.00000  Uiso   1.00
H307   H     0.16749   0.54253   0.97299   0.00000  Uiso   1.00
H308   H     0.11830   0.39198   0.91458   0.00000  Uiso   1.00
H309   H     0.24644   0.54217   0.94354   0.00000  Uiso   1.00
H310   H     0.14295   0.68180   0.09473   0.00000  Uiso   1.00
H311   H     0.05557   0.24344   0.79638   0.00000  Uiso   1.00
H312   H     0.32577   0.56014   0.85746   0.00000  Uiso   1.00
H313   H     0.10754   0.85459   0.17629   0.00000  Uiso   1.00
O314   O     0.99501   0.20758   0.57428   0.00000  Uiso   1.00
O315   O     0.34949   0.62310   0.65443   0.00000  Uiso   1.00
O316   O     0.06318   0.00940   0.07272   0.00000  Uiso   1.00
N317   N     0.02091   0.35684   0.53489   0.00000  Uiso   1.00
N318   N     0.27353   0.65293   0.59199   0.00000  Uiso   1.00
N319   N     0.06951   0.92822   0.89007   0.00000  Uiso   1.00
N320   N     0.05005   0.29158   0.72455   0.00000  Uiso   1.00
N321   N     0.30266   0.58767   0.78165   0.00000  Uiso   1.00
N322   N     0.09865   0.86296   0.07973   0.00000  Uiso   1.00
C323   C     0.61873   0.15173   0.65563   0.00000  Uiso   1.00
C324   C     0.59889   0.05452   0.66871   0.00000  Uiso   1.00
C325   C     0.56598   0.00913   0.57406   0.00000  Uiso   1.00
C326   C     0.55232   0.92047   0.60487   0.00000  Uiso   1.00
C327   C     0.51870   0.77584   0.60672   0.00000  Uiso   1.00
C328   C     0.66851   0.13610   0.68444   0.00000  Uiso   1.00
C329   C     0.69414   0.15933   0.60301   0.00000  Uiso   1.00
C330   C     0.73909   0.13936   0.64708   0.00000  Uiso   1.00
C331   C     0.81356   0.12146   0.67339   0.00000  Uiso   1.00
C332   C     0.61227   0.21196   0.76658   0.00000  Uiso   1.00
C333   C     0.59063   0.29899   0.75424   0.00000  Uiso   1.00
C334   C     0.58825   0.34290   0.86746   0.00000  Uiso   1.00
C335   C     0.57541   0.44279   0.02132   0.00000  Uiso   1.00
C336   C     0.65299   0.07499   0.87867   0.00000  Uiso   1.00
C337   C     0.61750   0.01283   0.78986   0.00000  Uiso   1.00
C338   C     0.60389   0.92422   0.82082   0.00000  Uiso   1.00
C339   C     0.57096   0.87871   0.72623   0.00000  Uiso   1.00
C340   C     0.68712   0.09442   0.80558   0.00000  Uiso   1.00
C341   C     0.73205   0.07442   0.84978   0.00000  Uiso   1.00
C342   C     0.75774   0.09760   0.76844   0.00000  Uiso   1.00
C343   C     0.63089   0.17028   0.88773   0.00000  Uiso   1.00
C344   C     0.62854   0.21408   0.00100   0.00000  Uiso   1.00
C345   C     0.60690   0.30114   0.98883   0.00000  Uiso   1.00
H346   H     0.60424   0.18418   0.56132   0.00000  Uiso   1.00
H347   H     0.55158   0.04140   0.48031   0.00000  Uiso   1.00
H348   H     0.67972   0.19159   0.50928   0.00000  Uiso   1.00
H349   H     0.57623   0.33122   0.66047   0.00000  Uiso   1.00
H350   H     0.50142   0.86471   0.44391   0.00000  Uiso   1.00
H351   H     0.77162   0.18142   0.50500   0.00000  Uiso   1.00
H352   H     0.55339   0.47586   0.82383   0.00000  Uiso   1.00
H353   H     0.66749   0.04253   0.97299   0.00000  Uiso   1.00
H354   H     0.61830   0.89198   0.91458   0.00000  Uiso   1.00
H355   H     0.74644   0.04217   0.94354   0.00000  Uiso   1.00
H356   H     0.64295   0.18180   0.09473   0.00000  Uiso   1.00
H357   H     0.55557   0.74344   0.79638   0.00000  Uiso   1.00
H358   H     0.82577   0.06014   0.85746   0.00000  Uiso   1.00
H359   H     0.60754   0.35459   0.17629   0.00000  Uiso   1.00
O360   O     0.49501   0.70758   0.57428   0.00000  Uiso   1.00
O361   O     0.84949   0.12310   0.65443   0.00000  Uiso   1.00
O362   O     0.56318   0.50940   0.07272   0.00000  Uiso   1.00
N363   N     0.52091   0.85684   0.53489   0.00000  Uiso   1.00
N364   N     0.77353   0.15293   0.59199   0.00000  Uiso   1.00
N365   N     0.56951   0.42822   0.89007   0.00000  Uiso   1.00
N366   N     0.55005   0.79158   0.72455   0.00000  Uiso   1.00
N367   N     0.80266   0.08767   0.78165   0.00000  Uiso   1.00
N368   N     0.59865   0.36296   0.07973   0.00000  Uiso   1.00
