data_job_03943
_audit_creation_date              2018-12-19
_audit_creation_method            'Materials Studio'
_symmetry_space_group_name_H-M    'P1'
_symmetry_Int_Tables_number       1
_symmetry_cell_setting            triclinic
loop_
_symmetry_equiv_pos_as_xyz
  x,y,z
_cell_length_a                    21.6504
_cell_length_b                    40.5583
_cell_length_c                    9.8721
_cell_angle_alpha                 90.0000
_cell_angle_beta                  95.6533
_cell_angle_gamma                 90.0000
loop_
_atom_site_label
_atom_site_type_symbol
_atom_site_fract_x
_atom_site_fract_y
_atom_site_fract_z
_atom_site_U_iso_or_equiv
_atom_site_adp_type
_atom_site_occupancy
C1     C     0.26925   0.90793   0.71749   0.00000  Uiso   1.00
C2     C     0.21454   0.92487   0.77470   0.00000  Uiso   1.00
C3     C     0.20723   0.92911   0.91169   0.00000  Uiso   1.00
C4     C     0.15392   0.94524   0.94319   0.00000  Uiso   1.00
C5     C     0.07571   0.96978   0.04752   0.00000  Uiso   1.00
C6     C     0.24154   0.88038   0.62556   0.00000  Uiso   1.00
C7     C     0.25694   0.84721   0.63715   0.00000  Uiso   1.00
C8     C     0.22635   0.82589   0.54308   0.00000  Uiso   1.00
C9     C     0.19009   0.78136   0.41582   0.00000  Uiso   1.00
C10    C     0.29568   0.93301   0.62360   0.00000  Uiso   1.00
C11    C     0.35660   0.94409   0.63353   0.00000  Uiso   1.00
C12    C     0.37161   0.96707   0.53779   0.00000  Uiso   1.00
C13    C     0.41940   0.00425   0.40749   0.00000  Uiso   1.00
C14    C     0.18756   0.92903   0.52981   0.00000  Uiso   1.00
C15    C     0.17017   0.93633   0.67275   0.00000  Uiso   1.00
C16    C     0.11685   0.95246   0.70404   0.00000  Uiso   1.00
C17    C     0.10947   0.95672   0.84106   0.00000  Uiso   1.00
C18    C     0.19717   0.89184   0.52362   0.00000  Uiso   1.00
C19    C     0.16656   0.87056   0.42951   0.00000  Uiso   1.00
C20    C     0.18190   0.83737   0.44096   0.00000  Uiso   1.00
C21    C     0.25131   0.94447   0.52166   0.00000  Uiso   1.00
C22    C     0.26622   0.96743   0.42589   0.00000  Uiso   1.00
C23    C     0.32716   0.97855   0.43567   0.00000  Uiso   1.00
H24    H     0.30379   0.89901   0.79685   0.00000  Uiso   1.00
H25    H     0.24158   0.92024   0.99055   0.00000  Uiso   1.00
H26    H     0.29128   0.83835   0.71604   0.00000  Uiso   1.00
H27    H     0.39093   0.93521   0.71243   0.00000  Uiso   1.00
H28    H     0.15303   0.94882   0.16035   0.00000  Uiso   1.00
H29    H     0.25784   0.77616   0.58150   0.00000  Uiso   1.00
H30    H     0.46797   0.98041   0.57388   0.00000  Uiso   1.00
H31    H     0.15301   0.93795   0.45044   0.00000  Uiso   1.00
H32    H     0.08253   0.96132   0.62513   0.00000  Uiso   1.00
H33    H     0.13223   0.87943   0.35063   0.00000  Uiso   1.00
H34    H     0.23187   0.97630   0.34701   0.00000  Uiso   1.00
H35    H     0.02393   0.98216   0.86376   0.00000  Uiso   1.00
H36    H     0.12875   0.80950   0.28491   0.00000  Uiso   1.00
H37    H     0.33887   0.01375   0.27729   0.00000  Uiso   1.00
O38    O     0.04482   0.98015   0.13323   0.00000  Uiso   1.00
O39    O     0.18234   0.75362   0.37379   0.00000  Uiso   1.00
O40    O     0.45802   0.02160   0.36379   0.00000  Uiso   1.00
N41    N     0.13232   0.95347   0.06657   0.00000  Uiso   1.00
N42    N     0.23031   0.79203   0.52540   0.00000  Uiso   1.00
N43    N     0.42677   0.98299   0.51825   0.00000  Uiso   1.00
N44    N     0.06286   0.97141   0.90698   0.00000  Uiso   1.00
N45    N     0.16085   0.80998   0.36581   0.00000  Uiso   1.00
N46    N     0.35730   0.00093   0.35866   0.00000  Uiso   1.00
C47    C     0.76925   0.40793   0.71749   0.00000  Uiso   1.00
C48    C     0.71454   0.42487   0.77470   0.00000  Uiso   1.00
C49    C     0.70723   0.42911   0.91169   0.00000  Uiso   1.00
C50    C     0.65392   0.44524   0.94319   0.00000  Uiso   1.00
C51    C     0.57571   0.46978   0.04752   0.00000  Uiso   1.00
C52    C     0.74154   0.38038   0.62556   0.00000  Uiso   1.00
C53    C     0.75694   0.34721   0.63715   0.00000  Uiso   1.00
C54    C     0.72635   0.32589   0.54308   0.00000  Uiso   1.00
C55    C     0.69009   0.28136   0.41582   0.00000  Uiso   1.00
C56    C     0.79568   0.43301   0.62360   0.00000  Uiso   1.00
C57    C     0.85660   0.44409   0.63353   0.00000  Uiso   1.00
C58    C     0.87161   0.46707   0.53779   0.00000  Uiso   1.00
C59    C     0.91940   0.50425   0.40749   0.00000  Uiso   1.00
C60    C     0.68756   0.42903   0.52981   0.00000  Uiso   1.00
C61    C     0.67017   0.43633   0.67275   0.00000  Uiso   1.00
C62    C     0.61685   0.45246   0.70404   0.00000  Uiso   1.00
C63    C     0.60947   0.45672   0.84106   0.00000  Uiso   1.00
C64    C     0.69717   0.39184   0.52362   0.00000  Uiso   1.00
C65    C     0.66656   0.37056   0.42951   0.00000  Uiso   1.00
C66    C     0.68190   0.33737   0.44096   0.00000  Uiso   1.00
C67    C     0.75131   0.44447   0.52166   0.00000  Uiso   1.00
C68    C     0.76622   0.46743   0.42589   0.00000  Uiso   1.00
C69    C     0.82716   0.47855   0.43567   0.00000  Uiso   1.00
H70    H     0.80379   0.39901   0.79685   0.00000  Uiso   1.00
H71    H     0.74158   0.42024   0.99055   0.00000  Uiso   1.00
H72    H     0.79128   0.33835   0.71604   0.00000  Uiso   1.00
H73    H     0.89093   0.43521   0.71243   0.00000  Uiso   1.00
H74    H     0.65303   0.44882   0.16035   0.00000  Uiso   1.00
H75    H     0.75784   0.27616   0.58150   0.00000  Uiso   1.00
H76    H     0.96797   0.48041   0.57388   0.00000  Uiso   1.00
H77    H     0.65301   0.43795   0.45044   0.00000  Uiso   1.00
H78    H     0.58253   0.46132   0.62513   0.00000  Uiso   1.00
H79    H     0.63223   0.37943   0.35063   0.00000  Uiso   1.00
H80    H     0.73187   0.47630   0.34701   0.00000  Uiso   1.00
H81    H     0.52393   0.48216   0.86376   0.00000  Uiso   1.00
H82    H     0.62875   0.30950   0.28491   0.00000  Uiso   1.00
H83    H     0.83887   0.51375   0.27729   0.00000  Uiso   1.00
O84    O     0.54482   0.48015   0.13323   0.00000  Uiso   1.00
O85    O     0.68234   0.25362   0.37379   0.00000  Uiso   1.00
O86    O     0.95802   0.52160   0.36379   0.00000  Uiso   1.00
N87    N     0.63232   0.45347   0.06657   0.00000  Uiso   1.00
N88    N     0.73031   0.29203   0.52540   0.00000  Uiso   1.00
N89    N     0.92677   0.48299   0.51825   0.00000  Uiso   1.00
N90    N     0.56286   0.47141   0.90698   0.00000  Uiso   1.00
N91    N     0.66085   0.30998   0.36581   0.00000  Uiso   1.00
N92    N     0.85730   0.50093   0.35866   0.00000  Uiso   1.00
C93    C     0.73075   0.90793   0.78251   0.00000  Uiso   1.00
C94    C     0.78546   0.92487   0.72530   0.00000  Uiso   1.00
C95    C     0.79277   0.92911   0.58831   0.00000  Uiso   1.00
C96    C     0.84608   0.94524   0.55681   0.00000  Uiso   1.00
C97    C     0.92429   0.96978   0.45248   0.00000  Uiso   1.00
C98    C     0.75846   0.88038   0.87444   0.00000  Uiso   1.00
C99    C     0.74306   0.84721   0.86285   0.00000  Uiso   1.00
C100   C     0.77365   0.82589   0.95692   0.00000  Uiso   1.00
C101   C     0.80991   0.78136   0.08418   0.00000  Uiso   1.00
C102   C     0.70432   0.93301   0.87640   0.00000  Uiso   1.00
C103   C     0.64340   0.94409   0.86647   0.00000  Uiso   1.00
C104   C     0.62839   0.96707   0.96221   0.00000  Uiso   1.00
C105   C     0.58060   0.00425   0.09251   0.00000  Uiso   1.00
C106   C     0.81244   0.92903   0.97019   0.00000  Uiso   1.00
C107   C     0.82983   0.93633   0.82725   0.00000  Uiso   1.00
C108   C     0.88315   0.95246   0.79596   0.00000  Uiso   1.00
C109   C     0.89053   0.95672   0.65894   0.00000  Uiso   1.00
C110   C     0.80283   0.89184   0.97638   0.00000  Uiso   1.00
C111   C     0.83344   0.87056   0.07049   0.00000  Uiso   1.00
C112   C     0.81810   0.83737   0.05904   0.00000  Uiso   1.00
C113   C     0.74869   0.94447   0.97834   0.00000  Uiso   1.00
C114   C     0.73378   0.96743   0.07411   0.00000  Uiso   1.00
C115   C     0.67284   0.97855   0.06433   0.00000  Uiso   1.00
H116   H     0.69621   0.89901   0.70315   0.00000  Uiso   1.00
H117   H     0.75842   0.92024   0.50945   0.00000  Uiso   1.00
H118   H     0.70872   0.83835   0.78396   0.00000  Uiso   1.00
H119   H     0.60907   0.93521   0.78757   0.00000  Uiso   1.00
H120   H     0.84697   0.94882   0.33965   0.00000  Uiso   1.00
H121   H     0.74216   0.77616   0.91850   0.00000  Uiso   1.00
H122   H     0.53203   0.98041   0.92612   0.00000  Uiso   1.00
H123   H     0.84699   0.93795   0.04956   0.00000  Uiso   1.00
H124   H     0.91747   0.96132   0.87487   0.00000  Uiso   1.00
H125   H     0.86777   0.87943   0.14937   0.00000  Uiso   1.00
H126   H     0.76813   0.97630   0.15299   0.00000  Uiso   1.00
H127   H     0.97607   0.98216   0.63624   0.00000  Uiso   1.00
H128   H     0.87125   0.80950   0.21509   0.00000  Uiso   1.00
H129   H     0.66113   0.01375   0.22271   0.00000  Uiso   1.00
O130   O     0.95518   0.98015   0.36677   0.00000  Uiso   1.00
O131   O     0.81766   0.75362   0.12621   0.00000  Uiso   1.00
O132   O     0.54198   0.02160   0.13621   0.00000  Uiso   1.00
N133   N     0.86768   0.95347   0.43343   0.00000  Uiso   1.00
N134   N     0.76969   0.79203   0.97460   0.00000  Uiso   1.00
N135   N     0.57323   0.98299   0.98175   0.00000  Uiso   1.00
N136   N     0.93714   0.97141   0.59302   0.00000  Uiso   1.00
N137   N     0.83915   0.80998   0.13419   0.00000  Uiso   1.00
N138   N     0.64270   0.00093   0.14134   0.00000  Uiso   1.00
C139   C     0.23075   0.40793   0.78251   0.00000  Uiso   1.00
C140   C     0.28546   0.42487   0.72530   0.00000  Uiso   1.00
C141   C     0.29277   0.42911   0.58831   0.00000  Uiso   1.00
C142   C     0.34608   0.44524   0.55681   0.00000  Uiso   1.00
C143   C     0.42429   0.46978   0.45248   0.00000  Uiso   1.00
C144   C     0.25846   0.38038   0.87444   0.00000  Uiso   1.00
C145   C     0.24306   0.34721   0.86285   0.00000  Uiso   1.00
C146   C     0.27365   0.32589   0.95692   0.00000  Uiso   1.00
C147   C     0.30991   0.28136   0.08418   0.00000  Uiso   1.00
C148   C     0.20432   0.43301   0.87640   0.00000  Uiso   1.00
C149   C     0.14340   0.44409   0.86647   0.00000  Uiso   1.00
C150   C     0.12839   0.46707   0.96221   0.00000  Uiso   1.00
C151   C     0.08060   0.50425   0.09251   0.00000  Uiso   1.00
C152   C     0.31244   0.42903   0.97019   0.00000  Uiso   1.00
C153   C     0.32983   0.43633   0.82725   0.00000  Uiso   1.00
C154   C     0.38315   0.45246   0.79596   0.00000  Uiso   1.00
C155   C     0.39053   0.45672   0.65894   0.00000  Uiso   1.00
C156   C     0.30283   0.39184   0.97638   0.00000  Uiso   1.00
C157   C     0.33344   0.37056   0.07049   0.00000  Uiso   1.00
C158   C     0.31810   0.33737   0.05904   0.00000  Uiso   1.00
C159   C     0.24869   0.44447   0.97834   0.00000  Uiso   1.00
C160   C     0.23378   0.46743   0.07411   0.00000  Uiso   1.00
C161   C     0.17284   0.47855   0.06433   0.00000  Uiso   1.00
H162   H     0.19621   0.39901   0.70315   0.00000  Uiso   1.00
H163   H     0.25842   0.42024   0.50945   0.00000  Uiso   1.00
H164   H     0.20872   0.33835   0.78396   0.00000  Uiso   1.00
H165   H     0.10907   0.43521   0.78757   0.00000  Uiso   1.00
H166   H     0.34697   0.44882   0.33965   0.00000  Uiso   1.00
H167   H     0.24216   0.27616   0.91850   0.00000  Uiso   1.00
H168   H     0.03203   0.48041   0.92612   0.00000  Uiso   1.00
H169   H     0.34699   0.43795   0.04956   0.00000  Uiso   1.00
H170   H     0.41747   0.46132   0.87487   0.00000  Uiso   1.00
H171   H     0.36777   0.37943   0.14937   0.00000  Uiso   1.00
H172   H     0.26813   0.47630   0.15299   0.00000  Uiso   1.00
H173   H     0.47607   0.48216   0.63624   0.00000  Uiso   1.00
H174   H     0.37125   0.30950   0.21509   0.00000  Uiso   1.00
H175   H     0.16113   0.51375   0.22271   0.00000  Uiso   1.00
O176   O     0.45518   0.48015   0.36677   0.00000  Uiso   1.00
O177   O     0.31766   0.25362   0.12621   0.00000  Uiso   1.00
O178   O     0.04198   0.52160   0.13621   0.00000  Uiso   1.00
N179   N     0.36768   0.45347   0.43343   0.00000  Uiso   1.00
N180   N     0.26969   0.29203   0.97460   0.00000  Uiso   1.00
N181   N     0.07323   0.48299   0.98175   0.00000  Uiso   1.00
N182   N     0.43714   0.47141   0.59302   0.00000  Uiso   1.00
N183   N     0.33915   0.30998   0.13419   0.00000  Uiso   1.00
N184   N     0.14270   0.50093   0.14134   0.00000  Uiso   1.00
C185   C     0.73075   0.09207   0.28251   0.00000  Uiso   1.00
C186   C     0.78546   0.07513   0.22530   0.00000  Uiso   1.00
C187   C     0.79277   0.07089   0.08831   0.00000  Uiso   1.00
C188   C     0.84608   0.05476   0.05681   0.00000  Uiso   1.00
C189   C     0.92429   0.03022   0.95248   0.00000  Uiso   1.00
C190   C     0.75846   0.11962   0.37444   0.00000  Uiso   1.00
C191   C     0.74306   0.15279   0.36285   0.00000  Uiso   1.00
C192   C     0.77365   0.17411   0.45692   0.00000  Uiso   1.00
C193   C     0.80991   0.21864   0.58418   0.00000  Uiso   1.00
C194   C     0.70432   0.06699   0.37640   0.00000  Uiso   1.00
C195   C     0.64340   0.05591   0.36647   0.00000  Uiso   1.00
C196   C     0.62839   0.03293   0.46221   0.00000  Uiso   1.00
C197   C     0.58060   0.99575   0.59251   0.00000  Uiso   1.00
C198   C     0.81244   0.07097   0.47019   0.00000  Uiso   1.00
C199   C     0.82983   0.06367   0.32725   0.00000  Uiso   1.00
C200   C     0.88315   0.04754   0.29596   0.00000  Uiso   1.00
C201   C     0.89053   0.04328   0.15894   0.00000  Uiso   1.00
C202   C     0.80283   0.10816   0.47638   0.00000  Uiso   1.00
C203   C     0.83344   0.12944   0.57049   0.00000  Uiso   1.00
C204   C     0.81810   0.16263   0.55904   0.00000  Uiso   1.00
C205   C     0.74869   0.05553   0.47834   0.00000  Uiso   1.00
C206   C     0.73378   0.03257   0.57411   0.00000  Uiso   1.00
C207   C     0.67284   0.02145   0.56433   0.00000  Uiso   1.00
H208   H     0.69621   0.10099   0.20315   0.00000  Uiso   1.00
H209   H     0.75842   0.07976   0.00945   0.00000  Uiso   1.00
H210   H     0.70872   0.16165   0.28396   0.00000  Uiso   1.00
H211   H     0.60907   0.06479   0.28757   0.00000  Uiso   1.00
H212   H     0.84697   0.05118   0.83965   0.00000  Uiso   1.00
H213   H     0.74216   0.22384   0.41850   0.00000  Uiso   1.00
H214   H     0.53203   0.01959   0.42612   0.00000  Uiso   1.00
H215   H     0.84699   0.06205   0.54956   0.00000  Uiso   1.00
H216   H     0.91747   0.03868   0.37487   0.00000  Uiso   1.00
H217   H     0.86777   0.12057   0.64937   0.00000  Uiso   1.00
H218   H     0.76813   0.02370   0.65299   0.00000  Uiso   1.00
H219   H     0.97607   0.01784   0.13624   0.00000  Uiso   1.00
H220   H     0.87125   0.19050   0.71509   0.00000  Uiso   1.00
H221   H     0.66113   0.98625   0.72271   0.00000  Uiso   1.00
O222   O     0.95518   0.01985   0.86677   0.00000  Uiso   1.00
O223   O     0.81766   0.24638   0.62621   0.00000  Uiso   1.00
O224   O     0.54198   0.97840   0.63621   0.00000  Uiso   1.00
N225   N     0.86768   0.04653   0.93343   0.00000  Uiso   1.00
N226   N     0.76969   0.20797   0.47460   0.00000  Uiso   1.00
N227   N     0.57323   0.01701   0.48175   0.00000  Uiso   1.00
N228   N     0.93714   0.02859   0.09302   0.00000  Uiso   1.00
N229   N     0.83915   0.19002   0.63419   0.00000  Uiso   1.00
N230   N     0.64270   0.99907   0.64134   0.00000  Uiso   1.00
C231   C     0.23075   0.59207   0.28251   0.00000  Uiso   1.00
C232   C     0.28546   0.57513   0.22530   0.00000  Uiso   1.00
C233   C     0.29277   0.57089   0.08831   0.00000  Uiso   1.00
C234   C     0.34608   0.55476   0.05681   0.00000  Uiso   1.00
C235   C     0.42429   0.53022   0.95248   0.00000  Uiso   1.00
C236   C     0.25846   0.61962   0.37444   0.00000  Uiso   1.00
C237   C     0.24306   0.65279   0.36285   0.00000  Uiso   1.00
C238   C     0.27365   0.67411   0.45692   0.00000  Uiso   1.00
C239   C     0.30991   0.71864   0.58418   0.00000  Uiso   1.00
C240   C     0.20432   0.56699   0.37640   0.00000  Uiso   1.00
C241   C     0.14340   0.55591   0.36647   0.00000  Uiso   1.00
C242   C     0.12839   0.53293   0.46221   0.00000  Uiso   1.00
C243   C     0.08060   0.49575   0.59251   0.00000  Uiso   1.00
C244   C     0.31244   0.57097   0.47019   0.00000  Uiso   1.00
C245   C     0.32983   0.56367   0.32725   0.00000  Uiso   1.00
C246   C     0.38315   0.54754   0.29596   0.00000  Uiso   1.00
C247   C     0.39053   0.54328   0.15894   0.00000  Uiso   1.00
C248   C     0.30283   0.60816   0.47638   0.00000  Uiso   1.00
C249   C     0.33344   0.62944   0.57049   0.00000  Uiso   1.00
C250   C     0.31810   0.66263   0.55904   0.00000  Uiso   1.00
C251   C     0.24869   0.55553   0.47834   0.00000  Uiso   1.00
C252   C     0.23378   0.53257   0.57411   0.00000  Uiso   1.00
C253   C     0.17284   0.52145   0.56433   0.00000  Uiso   1.00
H254   H     0.19621   0.60099   0.20315   0.00000  Uiso   1.00
H255   H     0.25842   0.57976   0.00945   0.00000  Uiso   1.00
H256   H     0.20872   0.66165   0.28396   0.00000  Uiso   1.00
H257   H     0.10907   0.56479   0.28757   0.00000  Uiso   1.00
H258   H     0.34697   0.55118   0.83965   0.00000  Uiso   1.00
H259   H     0.24216   0.72384   0.41850   0.00000  Uiso   1.00
H260   H     0.03203   0.51959   0.42612   0.00000  Uiso   1.00
H261   H     0.34699   0.56205   0.54956   0.00000  Uiso   1.00
H262   H     0.41747   0.53868   0.37487   0.00000  Uiso   1.00
H263   H     0.36777   0.62057   0.64937   0.00000  Uiso   1.00
H264   H     0.26813   0.52370   0.65299   0.00000  Uiso   1.00
H265   H     0.47607   0.51784   0.13624   0.00000  Uiso   1.00
H266   H     0.37125   0.69050   0.71509   0.00000  Uiso   1.00
H267   H     0.16113   0.48625   0.72271   0.00000  Uiso   1.00
O268   O     0.45518   0.51985   0.86677   0.00000  Uiso   1.00
O269   O     0.31766   0.74638   0.62621   0.00000  Uiso   1.00
O270   O     0.04198   0.47840   0.63621   0.00000  Uiso   1.00
N271   N     0.36768   0.54653   0.93343   0.00000  Uiso   1.00
N272   N     0.26969   0.70797   0.47460   0.00000  Uiso   1.00
N273   N     0.07323   0.51701   0.48175   0.00000  Uiso   1.00
N274   N     0.43714   0.52859   0.09302   0.00000  Uiso   1.00
N275   N     0.33915   0.69002   0.63419   0.00000  Uiso   1.00
N276   N     0.14270   0.49907   0.64134   0.00000  Uiso   1.00
C277   C     0.26925   0.09207   0.21749   0.00000  Uiso   1.00
C278   C     0.21454   0.07513   0.27470   0.00000  Uiso   1.00
C279   C     0.20723   0.07089   0.41169   0.00000  Uiso   1.00
C280   C     0.15392   0.05476   0.44319   0.00000  Uiso   1.00
C281   C     0.07571   0.03022   0.54752   0.00000  Uiso   1.00
C282   C     0.24154   0.11962   0.12556   0.00000  Uiso   1.00
C283   C     0.25694   0.15279   0.13715   0.00000  Uiso   1.00
C284   C     0.22635   0.17411   0.04308   0.00000  Uiso   1.00
C285   C     0.19009   0.21864   0.91582   0.00000  Uiso   1.00
C286   C     0.29568   0.06699   0.12360   0.00000  Uiso   1.00
C287   C     0.35660   0.05591   0.13353   0.00000  Uiso   1.00
C288   C     0.37161   0.03293   0.03779   0.00000  Uiso   1.00
C289   C     0.41940   0.99575   0.90749   0.00000  Uiso   1.00
C290   C     0.18756   0.07097   0.02981   0.00000  Uiso   1.00
C291   C     0.17017   0.06367   0.17275   0.00000  Uiso   1.00
C292   C     0.11685   0.04754   0.20404   0.00000  Uiso   1.00
C293   C     0.10947   0.04328   0.34106   0.00000  Uiso   1.00
C294   C     0.19717   0.10816   0.02362   0.00000  Uiso   1.00
C295   C     0.16656   0.12944   0.92951   0.00000  Uiso   1.00
C296   C     0.18190   0.16263   0.94096   0.00000  Uiso   1.00
C297   C     0.25131   0.05553   0.02166   0.00000  Uiso   1.00
C298   C     0.26622   0.03257   0.92589   0.00000  Uiso   1.00
C299   C     0.32716   0.02145   0.93567   0.00000  Uiso   1.00
H300   H     0.30379   0.10099   0.29685   0.00000  Uiso   1.00
H301   H     0.24158   0.07976   0.49055   0.00000  Uiso   1.00
H302   H     0.29128   0.16165   0.21604   0.00000  Uiso   1.00
H303   H     0.39093   0.06479   0.21243   0.00000  Uiso   1.00
H304   H     0.15303   0.05118   0.66035   0.00000  Uiso   1.00
H305   H     0.25784   0.22384   0.08150   0.00000  Uiso   1.00
H306   H     0.46797   0.01959   0.07388   0.00000  Uiso   1.00
H307   H     0.15301   0.06205   0.95044   0.00000  Uiso   1.00
H308   H     0.08253   0.03868   0.12513   0.00000  Uiso   1.00
H309   H     0.13223   0.12057   0.85063   0.00000  Uiso   1.00
H310   H     0.23187   0.02370   0.84701   0.00000  Uiso   1.00
H311   H     0.02393   0.01784   0.36376   0.00000  Uiso   1.00
H312   H     0.12875   0.19050   0.78491   0.00000  Uiso   1.00
H313   H     0.33887   0.98625   0.77729   0.00000  Uiso   1.00
O314   O     0.04482   0.01985   0.63323   0.00000  Uiso   1.00
O315   O     0.18234   0.24638   0.87379   0.00000  Uiso   1.00
O316   O     0.45802   0.97840   0.86379   0.00000  Uiso   1.00
N317   N     0.13232   0.04653   0.56657   0.00000  Uiso   1.00
N318   N     0.23031   0.20797   0.02540   0.00000  Uiso   1.00
N319   N     0.42677   0.01701   0.01825   0.00000  Uiso   1.00
N320   N     0.06286   0.02859   0.40698   0.00000  Uiso   1.00
N321   N     0.16085   0.19002   0.86581   0.00000  Uiso   1.00
N322   N     0.35730   0.99907   0.85866   0.00000  Uiso   1.00
C323   C     0.76925   0.59207   0.21749   0.00000  Uiso   1.00
C324   C     0.71454   0.57513   0.27470   0.00000  Uiso   1.00
C325   C     0.70723   0.57089   0.41169   0.00000  Uiso   1.00
C326   C     0.65392   0.55476   0.44319   0.00000  Uiso   1.00
C327   C     0.57571   0.53022   0.54752   0.00000  Uiso   1.00
C328   C     0.74154   0.61962   0.12556   0.00000  Uiso   1.00
C329   C     0.75694   0.65279   0.13715   0.00000  Uiso   1.00
C330   C     0.72635   0.67411   0.04308   0.00000  Uiso   1.00
C331   C     0.69009   0.71864   0.91582   0.00000  Uiso   1.00
C332   C     0.79568   0.56699   0.12360   0.00000  Uiso   1.00
C333   C     0.85660   0.55591   0.13353   0.00000  Uiso   1.00
C334   C     0.87161   0.53293   0.03779   0.00000  Uiso   1.00
C335   C     0.91940   0.49575   0.90749   0.00000  Uiso   1.00
C336   C     0.68756   0.57097   0.02981   0.00000  Uiso   1.00
C337   C     0.67017   0.56367   0.17275   0.00000  Uiso   1.00
C338   C     0.61685   0.54754   0.20404   0.00000  Uiso   1.00
C339   C     0.60947   0.54328   0.34106   0.00000  Uiso   1.00
C340   C     0.69717   0.60816   0.02362   0.00000  Uiso   1.00
C341   C     0.66656   0.62944   0.92951   0.00000  Uiso   1.00
C342   C     0.68190   0.66263   0.94096   0.00000  Uiso   1.00
C343   C     0.75131   0.55553   0.02166   0.00000  Uiso   1.00
C344   C     0.76622   0.53257   0.92589   0.00000  Uiso   1.00
C345   C     0.82716   0.52145   0.93567   0.00000  Uiso   1.00
H346   H     0.80379   0.60099   0.29685   0.00000  Uiso   1.00
H347   H     0.74158   0.57976   0.49055   0.00000  Uiso   1.00
H348   H     0.79128   0.66165   0.21604   0.00000  Uiso   1.00
H349   H     0.89093   0.56479   0.21243   0.00000  Uiso   1.00
H350   H     0.65303   0.55118   0.66035   0.00000  Uiso   1.00
H351   H     0.75784   0.72384   0.08150   0.00000  Uiso   1.00
H352   H     0.96797   0.51959   0.07388   0.00000  Uiso   1.00
H353   H     0.65301   0.56205   0.95044   0.00000  Uiso   1.00
H354   H     0.58253   0.53868   0.12513   0.00000  Uiso   1.00
H355   H     0.63223   0.62057   0.85063   0.00000  Uiso   1.00
H356   H     0.73187   0.52370   0.84701   0.00000  Uiso   1.00
H357   H     0.52393   0.51784   0.36376   0.00000  Uiso   1.00
H358   H     0.62875   0.69050   0.78491   0.00000  Uiso   1.00
H359   H     0.83887   0.48625   0.77729   0.00000  Uiso   1.00
O360   O     0.54482   0.51985   0.63323   0.00000  Uiso   1.00
O361   O     0.68234   0.74638   0.87379   0.00000  Uiso   1.00
O362   O     0.95802   0.47840   0.86379   0.00000  Uiso   1.00
N363   N     0.63232   0.54653   0.56657   0.00000  Uiso   1.00
N364   N     0.73031   0.70797   0.02540   0.00000  Uiso   1.00
N365   N     0.92677   0.51701   0.01825   0.00000  Uiso   1.00
N366   N     0.56286   0.52859   0.40698   0.00000  Uiso   1.00
N367   N     0.66085   0.69002   0.86581   0.00000  Uiso   1.00
N368   N     0.85730   0.49907   0.85866   0.00000  Uiso   1.00
