data_job_02988
_audit_creation_date              2018-12-19
_audit_creation_method            'Materials Studio'
_symmetry_space_group_name_H-M    'P1'
_symmetry_Int_Tables_number       1
_symmetry_cell_setting            triclinic
loop_
_symmetry_equiv_pos_as_xyz
  x,y,z
_cell_length_a                    17.5412
_cell_length_b                    7.3892
_cell_length_c                    18.9807
_cell_angle_alpha                 90.0000
_cell_angle_beta                  90.0000
_cell_angle_gamma                 90.0000
loop_
_atom_site_label
_atom_site_type_symbol
_atom_site_fract_x
_atom_site_fract_y
_atom_site_fract_z
_atom_site_U_iso_or_equiv
_atom_site_adp_type
_atom_site_occupancy
C1     C     0.20698   0.33455   0.13403   0.00000  Uiso   1.00
C2     C     0.27189   0.41825   0.17638   0.00000  Uiso   1.00
C3     C     0.31020   0.33622   0.23181   0.00000  Uiso   1.00
C4     C     0.36789   0.43527   0.26376   0.00000  Uiso   1.00
C5     C     0.46583   0.53870   0.33299   0.00000  Uiso   1.00
C6     C     0.14029   0.46609   0.13984   0.00000  Uiso   1.00
C7     C     0.06793   0.42427   0.16454   0.00000  Uiso   1.00
C8     C     0.01484   0.56360   0.16571   0.00000  Uiso   1.00
C9     C     0.90844   0.74125   0.17817   0.00000  Uiso   1.00
C10    C     0.23228   0.33982   0.05720   0.00000  Uiso   1.00
C11    C     0.23726   0.19184   0.01240   0.00000  Uiso   1.00
C12    C     0.26161   0.22486   0.94400   0.00000  Uiso   1.00
C13    C     0.29805   0.20646   0.82815   0.00000  Uiso   1.00
C14    C     0.24133   0.65633   0.09218   0.00000  Uiso   1.00
C15    C     0.29055   0.59304   0.15365   0.00000  Uiso   1.00
C16    C     0.34821   0.69224   0.18551   0.00000  Uiso   1.00
C17    C     0.38659   0.61037   0.24098   0.00000  Uiso   1.00
C18    C     0.15894   0.64087   0.11711   0.00000  Uiso   1.00
C19    C     0.10594   0.78029   0.11824   0.00000  Uiso   1.00
C20    C     0.03353   0.73869   0.14294   0.00000  Uiso   1.00
C21    C     0.25095   0.51460   0.03446   0.00000  Uiso   1.00
C22    C     0.27528   0.54786   0.96611   0.00000  Uiso   1.00
C23    C     0.28030   0.39996   0.92123   0.00000  Uiso   1.00
H24    H     0.19244   0.19848   0.15172   0.00000  Uiso   1.00
H25    H     0.29573   0.20096   0.24939   0.00000  Uiso   1.00
H26    H     0.05351   0.28900   0.18212   0.00000  Uiso   1.00
H27    H     0.22282   0.05661   0.03001   0.00000  Uiso   1.00
H28    H     0.41846   0.28083   0.34766   0.00000  Uiso   1.00
H29    H     0.90771   0.46643   0.20580   0.00000  Uiso   1.00
H30    H     0.26473   0.97638   0.88505   0.00000  Uiso   1.00
H31    H     0.25586   0.79241   0.07448   0.00000  Uiso   1.00
H32    H     0.36263   0.82749   0.16791   0.00000  Uiso   1.00
H33    H     0.12040   0.91552   0.10064   0.00000  Uiso   1.00
H34    H     0.28972   0.68313   0.94854   0.00000  Uiso   1.00
H35    H     0.47276   0.78934   0.28154   0.00000  Uiso   1.00
H36    H     0.96200   0.97494   0.13967   0.00000  Uiso   1.00
H37    H     0.31903   0.48490   0.81892   0.00000  Uiso   1.00
O38    O     0.51469   0.54747   0.37747   0.00000  Uiso   1.00
O39    O     0.84459   0.79096   0.19133   0.00000  Uiso   1.00
O40    O     0.31300   0.14803   0.77053   0.00000  Uiso   1.00
N41    N     0.41660   0.39568   0.31927   0.00000  Uiso   1.00
N42    N     0.93907   0.56921   0.18664   0.00000  Uiso   1.00
N43    N     0.27284   0.11107   0.88677   0.00000  Uiso   1.00
N44    N     0.44581   0.66931   0.28369   0.00000  Uiso   1.00
N45    N     0.96829   0.84284   0.15106   0.00000  Uiso   1.00
N46    N     0.30206   0.38470   0.85119   0.00000  Uiso   1.00
C47    C     0.29302   0.66545   0.63403   0.00000  Uiso   1.00
C48    C     0.22811   0.58175   0.67638   0.00000  Uiso   1.00
C49    C     0.18980   0.66378   0.73181   0.00000  Uiso   1.00
C50    C     0.13211   0.56473   0.76376   0.00000  Uiso   1.00
C51    C     0.03417   0.46130   0.83299   0.00000  Uiso   1.00
C52    C     0.35971   0.53391   0.63984   0.00000  Uiso   1.00
C53    C     0.43207   0.57573   0.66454   0.00000  Uiso   1.00
C54    C     0.48516   0.43640   0.66571   0.00000  Uiso   1.00
C55    C     0.59156   0.25875   0.67817   0.00000  Uiso   1.00
C56    C     0.26772   0.66018   0.55720   0.00000  Uiso   1.00
C57    C     0.26274   0.80816   0.51240   0.00000  Uiso   1.00
C58    C     0.23839   0.77514   0.44400   0.00000  Uiso   1.00
C59    C     0.20195   0.79354   0.32815   0.00000  Uiso   1.00
C60    C     0.25867   0.34367   0.59218   0.00000  Uiso   1.00
C61    C     0.20945   0.40696   0.65365   0.00000  Uiso   1.00
C62    C     0.15179   0.30776   0.68551   0.00000  Uiso   1.00
C63    C     0.11341   0.38963   0.74098   0.00000  Uiso   1.00
C64    C     0.34106   0.35913   0.61711   0.00000  Uiso   1.00
C65    C     0.39406   0.21971   0.61824   0.00000  Uiso   1.00
C66    C     0.46647   0.26131   0.64294   0.00000  Uiso   1.00
C67    C     0.24905   0.48540   0.53446   0.00000  Uiso   1.00
C68    C     0.22472   0.45214   0.46611   0.00000  Uiso   1.00
C69    C     0.21970   0.60004   0.42123   0.00000  Uiso   1.00
H70    H     0.30756   0.80152   0.65172   0.00000  Uiso   1.00
H71    H     0.20427   0.79904   0.74939   0.00000  Uiso   1.00
H72    H     0.44649   0.71100   0.68212   0.00000  Uiso   1.00
H73    H     0.27718   0.94339   0.53001   0.00000  Uiso   1.00
H74    H     0.08154   0.71917   0.84766   0.00000  Uiso   1.00
H75    H     0.59229   0.53357   0.70580   0.00000  Uiso   1.00
H76    H     0.23527   0.02362   0.38505   0.00000  Uiso   1.00
H77    H     0.24414   0.20759   0.57448   0.00000  Uiso   1.00
H78    H     0.13737   0.17251   0.66791   0.00000  Uiso   1.00
H79    H     0.37960   0.08448   0.60064   0.00000  Uiso   1.00
H80    H     0.21028   0.31687   0.44854   0.00000  Uiso   1.00
H81    H     0.02724   0.21066   0.78154   0.00000  Uiso   1.00
H82    H     0.53800   0.02506   0.63967   0.00000  Uiso   1.00
H83    H     0.18097   0.51510   0.31892   0.00000  Uiso   1.00
O84    O     0.98531   0.45253   0.87747   0.00000  Uiso   1.00
O85    O     0.65541   0.20904   0.69133   0.00000  Uiso   1.00
O86    O     0.18700   0.85197   0.27053   0.00000  Uiso   1.00
N87    N     0.08340   0.60432   0.81927   0.00000  Uiso   1.00
N88    N     0.56093   0.43079   0.68664   0.00000  Uiso   1.00
N89    N     0.22716   0.88893   0.38677   0.00000  Uiso   1.00
N90    N     0.05419   0.33069   0.78369   0.00000  Uiso   1.00
N91    N     0.53171   0.15716   0.65106   0.00000  Uiso   1.00
N92    N     0.19794   0.61530   0.35119   0.00000  Uiso   1.00
C93    C     0.79302   0.83455   0.36597   0.00000  Uiso   1.00
C94    C     0.72811   0.91825   0.32362   0.00000  Uiso   1.00
C95    C     0.68980   0.83622   0.26819   0.00000  Uiso   1.00
C96    C     0.63211   0.93527   0.23624   0.00000  Uiso   1.00
C97    C     0.53417   0.03870   0.16701   0.00000  Uiso   1.00
C98    C     0.85971   0.96609   0.36016   0.00000  Uiso   1.00
C99    C     0.93207   0.92427   0.33546   0.00000  Uiso   1.00
C100   C     0.98516   0.06360   0.33429   0.00000  Uiso   1.00
C101   C     0.09156   0.24125   0.32183   0.00000  Uiso   1.00
C102   C     0.76772   0.83982   0.44280   0.00000  Uiso   1.00
C103   C     0.76274   0.69184   0.48760   0.00000  Uiso   1.00
C104   C     0.73839   0.72486   0.55600   0.00000  Uiso   1.00
C105   C     0.70195   0.70646   0.67185   0.00000  Uiso   1.00
C106   C     0.75867   0.15633   0.40782   0.00000  Uiso   1.00
C107   C     0.70945   0.09304   0.34635   0.00000  Uiso   1.00
C108   C     0.65179   0.19224   0.31449   0.00000  Uiso   1.00
C109   C     0.61341   0.11037   0.25902   0.00000  Uiso   1.00
C110   C     0.84106   0.14087   0.38289   0.00000  Uiso   1.00
C111   C     0.89406   0.28029   0.38176   0.00000  Uiso   1.00
C112   C     0.96647   0.23869   0.35706   0.00000  Uiso   1.00
C113   C     0.74905   0.01460   0.46554   0.00000  Uiso   1.00
C114   C     0.72472   0.04786   0.53389   0.00000  Uiso   1.00
C115   C     0.71970   0.89996   0.57877   0.00000  Uiso   1.00
H116   H     0.80756   0.69848   0.34828   0.00000  Uiso   1.00
H117   H     0.70427   0.70096   0.25061   0.00000  Uiso   1.00
H118   H     0.94649   0.78900   0.31788   0.00000  Uiso   1.00
H119   H     0.77718   0.55661   0.46999   0.00000  Uiso   1.00
H120   H     0.58154   0.78083   0.15234   0.00000  Uiso   1.00
H121   H     0.09229   0.96643   0.29420   0.00000  Uiso   1.00
H122   H     0.73527   0.47638   0.61495   0.00000  Uiso   1.00
H123   H     0.74414   0.29241   0.42552   0.00000  Uiso   1.00
H124   H     0.63737   0.32749   0.33209   0.00000  Uiso   1.00
H125   H     0.87960   0.41552   0.39936   0.00000  Uiso   1.00
H126   H     0.71028   0.18313   0.55146   0.00000  Uiso   1.00
H127   H     0.52724   0.28934   0.21846   0.00000  Uiso   1.00
H128   H     0.03800   0.47494   0.36033   0.00000  Uiso   1.00
H129   H     0.68097   0.98490   0.68108   0.00000  Uiso   1.00
O130   O     0.48531   0.04747   0.12253   0.00000  Uiso   1.00
O131   O     0.15541   0.29096   0.30867   0.00000  Uiso   1.00
O132   O     0.68700   0.64803   0.72947   0.00000  Uiso   1.00
N133   N     0.58340   0.89568   0.18073   0.00000  Uiso   1.00
N134   N     0.06093   0.06921   0.31336   0.00000  Uiso   1.00
N135   N     0.72716   0.61107   0.61323   0.00000  Uiso   1.00
N136   N     0.55419   0.16931   0.21631   0.00000  Uiso   1.00
N137   N     0.03171   0.34284   0.34894   0.00000  Uiso   1.00
N138   N     0.69794   0.88470   0.64881   0.00000  Uiso   1.00
C139   C     0.70698   0.16545   0.86597   0.00000  Uiso   1.00
C140   C     0.77189   0.08175   0.82362   0.00000  Uiso   1.00
C141   C     0.81020   0.16378   0.76819   0.00000  Uiso   1.00
C142   C     0.86789   0.06473   0.73624   0.00000  Uiso   1.00
C143   C     0.96583   0.96130   0.66701   0.00000  Uiso   1.00
C144   C     0.64029   0.03391   0.86016   0.00000  Uiso   1.00
C145   C     0.56793   0.07573   0.83546   0.00000  Uiso   1.00
C146   C     0.51484   0.93640   0.83429   0.00000  Uiso   1.00
C147   C     0.40844   0.75875   0.82183   0.00000  Uiso   1.00
C148   C     0.73228   0.16018   0.94280   0.00000  Uiso   1.00
C149   C     0.73726   0.30816   0.98760   0.00000  Uiso   1.00
C150   C     0.76161   0.27514   0.05600   0.00000  Uiso   1.00
C151   C     0.79805   0.29354   0.17185   0.00000  Uiso   1.00
C152   C     0.74133   0.84367   0.90782   0.00000  Uiso   1.00
C153   C     0.79055   0.90696   0.84635   0.00000  Uiso   1.00
C154   C     0.84821   0.80776   0.81449   0.00000  Uiso   1.00
C155   C     0.88659   0.88963   0.75902   0.00000  Uiso   1.00
C156   C     0.65894   0.85913   0.88289   0.00000  Uiso   1.00
C157   C     0.60594   0.71971   0.88176   0.00000  Uiso   1.00
C158   C     0.53353   0.76131   0.85706   0.00000  Uiso   1.00
C159   C     0.75095   0.98540   0.96554   0.00000  Uiso   1.00
C160   C     0.77528   0.95214   0.03389   0.00000  Uiso   1.00
C161   C     0.78030   0.10004   0.07877   0.00000  Uiso   1.00
H162   H     0.69244   0.30152   0.84828   0.00000  Uiso   1.00
H163   H     0.79573   0.29904   0.75061   0.00000  Uiso   1.00
H164   H     0.55351   0.21100   0.81788   0.00000  Uiso   1.00
H165   H     0.72282   0.44339   0.96999   0.00000  Uiso   1.00
H166   H     0.91846   0.21917   0.65234   0.00000  Uiso   1.00
H167   H     0.40771   0.03357   0.79420   0.00000  Uiso   1.00
H168   H     0.76473   0.52362   0.11495   0.00000  Uiso   1.00
H169   H     0.75586   0.70759   0.92552   0.00000  Uiso   1.00
H170   H     0.86263   0.67251   0.83209   0.00000  Uiso   1.00
H171   H     0.62040   0.58448   0.89936   0.00000  Uiso   1.00
H172   H     0.78972   0.81687   0.05146   0.00000  Uiso   1.00
H173   H     0.97276   0.71066   0.71846   0.00000  Uiso   1.00
H174   H     0.46200   0.52506   0.86033   0.00000  Uiso   1.00
H175   H     0.81903   0.01510   0.18108   0.00000  Uiso   1.00
O176   O     0.01469   0.95253   0.62253   0.00000  Uiso   1.00
O177   O     0.34459   0.70904   0.80867   0.00000  Uiso   1.00
O178   O     0.81300   0.35197   0.22947   0.00000  Uiso   1.00
N179   N     0.91660   0.10432   0.68073   0.00000  Uiso   1.00
N180   N     0.43907   0.93079   0.81336   0.00000  Uiso   1.00
N181   N     0.77284   0.38893   0.11323   0.00000  Uiso   1.00
N182   N     0.94581   0.83069   0.71631   0.00000  Uiso   1.00
N183   N     0.46829   0.65716   0.84894   0.00000  Uiso   1.00
N184   N     0.80206   0.11530   0.14881   0.00000  Uiso   1.00
