data_job_03057
_audit_creation_date              2018-12-19
_audit_creation_method            'Materials Studio'
_symmetry_space_group_name_H-M    'P1'
_symmetry_Int_Tables_number       1
_symmetry_cell_setting            triclinic
loop_
_symmetry_equiv_pos_as_xyz
  x,y,z
_cell_length_a                    14.8858
_cell_length_b                    12.5182
_cell_length_c                    15.2548
_cell_angle_alpha                 90.0000
_cell_angle_beta                  90.0000
_cell_angle_gamma                 90.0000
loop_
_atom_site_label
_atom_site_type_symbol
_atom_site_fract_x
_atom_site_fract_y
_atom_site_fract_z
_atom_site_U_iso_or_equiv
_atom_site_adp_type
_atom_site_occupancy
C1     C     0.86258   0.76663   0.33410   0.00000  Uiso   1.00
C2     C     0.82613   0.65810   0.36232   0.00000  Uiso   1.00
C3     C     0.86196   0.59359   0.42752   0.00000  Uiso   1.00
C4     C     0.81882   0.49720   0.44349   0.00000  Uiso   1.00
C5     C     0.77385   0.33333   0.49452   0.00000  Uiso   1.00
C6     C     0.88054   0.75796   0.23594   0.00000  Uiso   1.00
C7     C     0.96211   0.77743   0.19488   0.00000  Uiso   1.00
C8     C     0.96477   0.76511   0.10446   0.00000  Uiso   1.00
C9     C     0.00424   0.75635   0.95927   0.00000  Uiso   1.00
C10    C     0.78491   0.84513   0.34402   0.00000  Uiso   1.00
C11    C     0.78609   0.93790   0.39381   0.00000  Uiso   1.00
C12    C     0.70824   0.99899   0.39437   0.00000  Uiso   1.00
C13    C     0.59924   0.12557   0.41699   0.00000  Uiso   1.00
C14    C     0.72225   0.71017   0.24653   0.00000  Uiso   1.00
C15    C     0.74991   0.62744   0.31475   0.00000  Uiso   1.00
C16    C     0.70670   0.53113   0.33063   0.00000  Uiso   1.00
C17    C     0.74246   0.46648   0.39585   0.00000  Uiso   1.00
C18    C     0.80432   0.72730   0.18837   0.00000  Uiso   1.00
C19    C     0.80685   0.71496   0.09799   0.00000  Uiso   1.00
C20    C     0.88841   0.73439   0.05681   0.00000  Uiso   1.00
C21    C     0.70869   0.81447   0.29645   0.00000  Uiso   1.00
C22    C     0.63083   0.87543   0.29693   0.00000  Uiso   1.00
C23    C     0.63188   0.96827   0.34672   0.00000  Uiso   1.00
H24    H     0.92192   0.79050   0.37112   0.00000  Uiso   1.00
H25    H     0.92095   0.61735   0.46431   0.00000  Uiso   1.00
H26    H     0.02108   0.80116   0.23171   0.00000  Uiso   1.00
H27    H     0.84508   0.96161   0.43061   0.00000  Uiso   1.00
H28    H     0.88628   0.41183   0.54662   0.00000  Uiso   1.00
H29    H     0.09740   0.79945   0.05616   0.00000  Uiso   1.00
H30    H     0.72628   0.13778   0.47559   0.00000  Uiso   1.00
H31    H     0.66291   0.68630   0.20949   0.00000  Uiso   1.00
H32    H     0.64772   0.50742   0.29381   0.00000  Uiso   1.00
H33    H     0.74785   0.69124   0.06121   0.00000  Uiso   1.00
H34    H     0.57185   0.85168   0.26011   0.00000  Uiso   1.00
H35    H     0.66452   0.32260   0.40824   0.00000  Uiso   1.00
H36    H     0.87564   0.71023   0.91778   0.00000  Uiso   1.00
H37    H     0.50451   0.04856   0.33721   0.00000  Uiso   1.00
O38    O     0.77010   0.25140   0.53580   0.00000  Uiso   1.00
O39    O     0.04708   0.75998   0.89233   0.00000  Uiso   1.00
O40    O     0.56017   0.20385   0.44262   0.00000  Uiso   1.00
N41    N     0.83616   0.41538   0.50250   0.00000  Uiso   1.00
N42    N     0.03355   0.77778   0.04395   0.00000  Uiso   1.00
N43    N     0.68659   0.09410   0.43606   0.00000  Uiso   1.00
N44    N     0.71683   0.36737   0.42803   0.00000  Uiso   1.00
N45    N     0.91422   0.72977   0.96948   0.00000  Uiso   1.00
N46    N     0.56726   0.04609   0.36159   0.00000  Uiso   1.00
C47    C     0.13742   0.23337   0.83410   0.00000  Uiso   1.00
C48    C     0.17387   0.34190   0.86232   0.00000  Uiso   1.00
C49    C     0.13804   0.40641   0.92752   0.00000  Uiso   1.00
C50    C     0.18118   0.50280   0.94349   0.00000  Uiso   1.00
C51    C     0.22615   0.66667   0.99452   0.00000  Uiso   1.00
C52    C     0.11946   0.24204   0.73594   0.00000  Uiso   1.00
C53    C     0.03789   0.22257   0.69488   0.00000  Uiso   1.00
C54    C     0.03523   0.23489   0.60446   0.00000  Uiso   1.00
C55    C     0.99576   0.24365   0.45927   0.00000  Uiso   1.00
C56    C     0.21509   0.15487   0.84402   0.00000  Uiso   1.00
C57    C     0.21391   0.06210   0.89381   0.00000  Uiso   1.00
C58    C     0.29176   0.00101   0.89437   0.00000  Uiso   1.00
C59    C     0.40076   0.87443   0.91699   0.00000  Uiso   1.00
C60    C     0.27775   0.28983   0.74653   0.00000  Uiso   1.00
C61    C     0.25009   0.37256   0.81475   0.00000  Uiso   1.00
C62    C     0.29330   0.46887   0.83063   0.00000  Uiso   1.00
C63    C     0.25754   0.53352   0.89585   0.00000  Uiso   1.00
C64    C     0.19568   0.27270   0.68837   0.00000  Uiso   1.00
C65    C     0.19315   0.28504   0.59799   0.00000  Uiso   1.00
C66    C     0.11159   0.26561   0.55681   0.00000  Uiso   1.00
C67    C     0.29131   0.18553   0.79645   0.00000  Uiso   1.00
C68    C     0.36917   0.12457   0.79693   0.00000  Uiso   1.00
C69    C     0.36812   0.03173   0.84672   0.00000  Uiso   1.00
H70    H     0.07808   0.20950   0.87112   0.00000  Uiso   1.00
H71    H     0.07905   0.38265   0.96431   0.00000  Uiso   1.00
H72    H     0.97892   0.19884   0.73171   0.00000  Uiso   1.00
H73    H     0.15492   0.03839   0.93061   0.00000  Uiso   1.00
H74    H     0.11372   0.58817   0.04662   0.00000  Uiso   1.00
H75    H     0.90260   0.20055   0.55616   0.00000  Uiso   1.00
H76    H     0.27372   0.86222   0.97559   0.00000  Uiso   1.00
H77    H     0.33709   0.31370   0.70949   0.00000  Uiso   1.00
H78    H     0.35228   0.49258   0.79381   0.00000  Uiso   1.00
H79    H     0.25215   0.30876   0.56121   0.00000  Uiso   1.00
H80    H     0.42815   0.14832   0.76011   0.00000  Uiso   1.00
H81    H     0.33548   0.67740   0.90824   0.00000  Uiso   1.00
H82    H     0.12436   0.28977   0.41778   0.00000  Uiso   1.00
H83    H     0.49549   0.95144   0.83721   0.00000  Uiso   1.00
O84    O     0.22990   0.74860   0.03580   0.00000  Uiso   1.00
O85    O     0.95292   0.24002   0.39233   0.00000  Uiso   1.00
O86    O     0.43983   0.79615   0.94262   0.00000  Uiso   1.00
N87    N     0.16384   0.58462   0.00250   0.00000  Uiso   1.00
N88    N     0.96645   0.22222   0.54395   0.00000  Uiso   1.00
N89    N     0.31341   0.90590   0.93606   0.00000  Uiso   1.00
N90    N     0.28317   0.63263   0.92803   0.00000  Uiso   1.00
N91    N     0.08578   0.27023   0.46948   0.00000  Uiso   1.00
N92    N     0.43274   0.95391   0.86159   0.00000  Uiso   1.00
C93    C     0.36258   0.23337   0.33410   0.00000  Uiso   1.00
C94    C     0.32613   0.34190   0.36232   0.00000  Uiso   1.00
C95    C     0.36196   0.40641   0.42752   0.00000  Uiso   1.00
C96    C     0.31882   0.50280   0.44349   0.00000  Uiso   1.00
C97    C     0.27385   0.66667   0.49452   0.00000  Uiso   1.00
C98    C     0.38054   0.24204   0.23594   0.00000  Uiso   1.00
C99    C     0.46211   0.22257   0.19488   0.00000  Uiso   1.00
C100   C     0.46477   0.23489   0.10446   0.00000  Uiso   1.00
C101   C     0.50424   0.24365   0.95927   0.00000  Uiso   1.00
C102   C     0.28491   0.15487   0.34402   0.00000  Uiso   1.00
C103   C     0.28609   0.06210   0.39381   0.00000  Uiso   1.00
C104   C     0.20824   0.00101   0.39437   0.00000  Uiso   1.00
C105   C     0.09924   0.87443   0.41699   0.00000  Uiso   1.00
C106   C     0.22225   0.28983   0.24653   0.00000  Uiso   1.00
C107   C     0.24991   0.37256   0.31475   0.00000  Uiso   1.00
C108   C     0.20670   0.46887   0.33063   0.00000  Uiso   1.00
C109   C     0.24246   0.53352   0.39585   0.00000  Uiso   1.00
C110   C     0.30432   0.27270   0.18837   0.00000  Uiso   1.00
C111   C     0.30685   0.28504   0.09799   0.00000  Uiso   1.00
C112   C     0.38841   0.26561   0.05681   0.00000  Uiso   1.00
C113   C     0.20869   0.18553   0.29645   0.00000  Uiso   1.00
C114   C     0.13083   0.12457   0.29693   0.00000  Uiso   1.00
C115   C     0.13188   0.03173   0.34672   0.00000  Uiso   1.00
H116   H     0.42192   0.20950   0.37112   0.00000  Uiso   1.00
H117   H     0.42095   0.38265   0.46431   0.00000  Uiso   1.00
H118   H     0.52108   0.19884   0.23171   0.00000  Uiso   1.00
H119   H     0.34508   0.03839   0.43061   0.00000  Uiso   1.00
H120   H     0.38628   0.58817   0.54662   0.00000  Uiso   1.00
H121   H     0.59740   0.20055   0.05616   0.00000  Uiso   1.00
H122   H     0.22628   0.86222   0.47559   0.00000  Uiso   1.00
H123   H     0.16291   0.31370   0.20949   0.00000  Uiso   1.00
H124   H     0.14772   0.49258   0.29381   0.00000  Uiso   1.00
H125   H     0.24785   0.30876   0.06121   0.00000  Uiso   1.00
H126   H     0.07185   0.14832   0.26011   0.00000  Uiso   1.00
H127   H     0.16452   0.67740   0.40824   0.00000  Uiso   1.00
H128   H     0.37564   0.28977   0.91778   0.00000  Uiso   1.00
H129   H     0.00451   0.95144   0.33721   0.00000  Uiso   1.00
O130   O     0.27010   0.74860   0.53580   0.00000  Uiso   1.00
O131   O     0.54708   0.24002   0.89233   0.00000  Uiso   1.00
O132   O     0.06017   0.79615   0.44262   0.00000  Uiso   1.00
N133   N     0.33616   0.58462   0.50250   0.00000  Uiso   1.00
N134   N     0.53355   0.22222   0.04395   0.00000  Uiso   1.00
N135   N     0.18659   0.90590   0.43606   0.00000  Uiso   1.00
N136   N     0.21683   0.63263   0.42803   0.00000  Uiso   1.00
N137   N     0.41422   0.27023   0.96948   0.00000  Uiso   1.00
N138   N     0.06726   0.95391   0.36159   0.00000  Uiso   1.00
C139   C     0.63742   0.76663   0.83410   0.00000  Uiso   1.00
C140   C     0.67387   0.65810   0.86232   0.00000  Uiso   1.00
C141   C     0.63804   0.59359   0.92752   0.00000  Uiso   1.00
C142   C     0.68118   0.49720   0.94349   0.00000  Uiso   1.00
C143   C     0.72615   0.33333   0.99452   0.00000  Uiso   1.00
C144   C     0.61946   0.75796   0.73594   0.00000  Uiso   1.00
C145   C     0.53789   0.77743   0.69488   0.00000  Uiso   1.00
C146   C     0.53523   0.76511   0.60446   0.00000  Uiso   1.00
C147   C     0.49576   0.75635   0.45927   0.00000  Uiso   1.00
C148   C     0.71509   0.84513   0.84402   0.00000  Uiso   1.00
C149   C     0.71391   0.93790   0.89381   0.00000  Uiso   1.00
C150   C     0.79176   0.99899   0.89437   0.00000  Uiso   1.00
C151   C     0.90076   0.12557   0.91699   0.00000  Uiso   1.00
C152   C     0.77775   0.71017   0.74653   0.00000  Uiso   1.00
C153   C     0.75009   0.62744   0.81475   0.00000  Uiso   1.00
C154   C     0.79330   0.53113   0.83063   0.00000  Uiso   1.00
C155   C     0.75754   0.46648   0.89585   0.00000  Uiso   1.00
C156   C     0.69568   0.72730   0.68837   0.00000  Uiso   1.00
C157   C     0.69315   0.71496   0.59799   0.00000  Uiso   1.00
C158   C     0.61159   0.73439   0.55681   0.00000  Uiso   1.00
C159   C     0.79131   0.81447   0.79645   0.00000  Uiso   1.00
C160   C     0.86917   0.87543   0.79693   0.00000  Uiso   1.00
C161   C     0.86812   0.96827   0.84672   0.00000  Uiso   1.00
H162   H     0.57808   0.79050   0.87112   0.00000  Uiso   1.00
H163   H     0.57905   0.61735   0.96431   0.00000  Uiso   1.00
H164   H     0.47892   0.80116   0.73171   0.00000  Uiso   1.00
H165   H     0.65492   0.96161   0.93061   0.00000  Uiso   1.00
H166   H     0.61372   0.41183   0.04662   0.00000  Uiso   1.00
H167   H     0.40260   0.79945   0.55616   0.00000  Uiso   1.00
H168   H     0.77372   0.13778   0.97559   0.00000  Uiso   1.00
H169   H     0.83709   0.68630   0.70949   0.00000  Uiso   1.00
H170   H     0.85228   0.50742   0.79381   0.00000  Uiso   1.00
H171   H     0.75215   0.69124   0.56121   0.00000  Uiso   1.00
H172   H     0.92815   0.85168   0.76011   0.00000  Uiso   1.00
H173   H     0.83548   0.32260   0.90824   0.00000  Uiso   1.00
H174   H     0.62436   0.71023   0.41778   0.00000  Uiso   1.00
H175   H     0.99549   0.04856   0.83721   0.00000  Uiso   1.00
O176   O     0.72990   0.25140   0.03580   0.00000  Uiso   1.00
O177   O     0.45292   0.75998   0.39233   0.00000  Uiso   1.00
O178   O     0.93983   0.20385   0.94262   0.00000  Uiso   1.00
N179   N     0.66384   0.41538   0.00250   0.00000  Uiso   1.00
N180   N     0.46645   0.77778   0.54395   0.00000  Uiso   1.00
N181   N     0.81341   0.09410   0.93606   0.00000  Uiso   1.00
N182   N     0.78317   0.36737   0.92803   0.00000  Uiso   1.00
N183   N     0.58578   0.72977   0.46948   0.00000  Uiso   1.00
N184   N     0.93274   0.04609   0.86159   0.00000  Uiso   1.00
