data_job_04991
_audit_creation_date              2018-12-19
_audit_creation_method            'Materials Studio'
_symmetry_space_group_name_H-M    'P1'
_symmetry_Int_Tables_number       1
_symmetry_cell_setting            triclinic
loop_
_symmetry_equiv_pos_as_xyz
  x,y,z
_cell_length_a                    11.2353
_cell_length_b                    16.1245
_cell_length_c                    22.0520
_cell_angle_alpha                 90.0000
_cell_angle_beta                  133.9956
_cell_angle_gamma                 90.0000
loop_
_atom_site_label
_atom_site_type_symbol
_atom_site_fract_x
_atom_site_fract_y
_atom_site_fract_z
_atom_site_U_iso_or_equiv
_atom_site_adp_type
_atom_site_occupancy
C1     C     0.08278   0.99192   0.77152   0.00000  Uiso   1.00
C2     C     0.02406   0.07278   0.72206   0.00000  Uiso   1.00
C3     C     0.09532   0.11158   0.69755   0.00000  Uiso   1.00
C4     C     0.02329   0.18514   0.65272   0.00000  Uiso   1.00
C5     C     0.95320   0.30563   0.57893   0.00000  Uiso   1.00
C6     C     0.11565   0.01152   0.84972   0.00000  Uiso   1.00
C7     C     0.26391   0.99881   0.93254   0.00000  Uiso   1.00
C8     C     0.26896   0.02079   0.99518   0.00000  Uiso   1.00
C9     C     0.34103   0.04612   0.11958   0.00000  Uiso   1.00
C10    C     0.93414   0.93369   0.71811   0.00000  Uiso   1.00
C11    C     0.92979   0.85552   0.69028   0.00000  Uiso   1.00
C12    C     0.78203   0.81197   0.64212   0.00000  Uiso   1.00
C13    C     0.57227   0.71645   0.56217   0.00000  Uiso   1.00
C14    C     0.82812   0.05356   0.73549   0.00000  Uiso   1.00
C15    C     0.88574   0.10626   0.70249   0.00000  Uiso   1.00
C16    C     0.81357   0.17978   0.65769   0.00000  Uiso   1.00
C17    C     0.88472   0.21868   0.63311   0.00000  Uiso   1.00
C18    C     0.97733   0.04500   0.83016   0.00000  Uiso   1.00
C19    C     0.98216   0.06700   0.89268   0.00000  Uiso   1.00
C20    C     0.13040   0.05433   0.97558   0.00000  Uiso   1.00
C21    C     0.79581   0.96717   0.69853   0.00000  Uiso   1.00
C22    C     0.64803   0.92373   0.65041   0.00000  Uiso   1.00
C23    C     0.64346   0.84551   0.62252   0.00000  Uiso   1.00
H24    H     0.19048   0.96585   0.78676   0.00000  Uiso   1.00
H25    H     0.20238   0.08565   0.71271   0.00000  Uiso   1.00
H26    H     0.37093   0.97289   0.94767   0.00000  Uiso   1.00
H27    H     0.03685   0.82963   0.70544   0.00000  Uiso   1.00
H28    H     0.15461   0.23325   0.62201   0.00000  Uiso   1.00
H29    H     0.51000   0.99546   0.11743   0.00000  Uiso   1.00
H30    H     0.80554   0.69338   0.60664   0.00000  Uiso   1.00
H31    H     0.72043   0.07962   0.72026   0.00000  Uiso   1.00
H32    H     0.70653   0.20567   0.64255   0.00000  Uiso   1.00
H33    H     0.87509   0.09291   0.87751   0.00000  Uiso   1.00
H34    H     0.54102   0.94965   0.63528   0.00000  Uiso   1.00
H35    H     0.75217   0.33067   0.56507   0.00000  Uiso   1.00
H36    H     0.10756   0.09287   0.06049   0.00000  Uiso   1.00
H37    H     0.40310   0.79079   0.54970   0.00000  Uiso   1.00
O38    O     0.95277   0.36284   0.54365   0.00000  Uiso   1.00
O39    O     0.41901   0.05085   0.19361   0.00000  Uiso   1.00
O40    O     0.49478   0.65453   0.52347   0.00000  Uiso   1.00
N41    N     0.06178   0.23887   0.61926   0.00000  Uiso   1.00
N42    N     0.39406   0.01656   0.08244   0.00000  Uiso   1.00
N43    N     0.73546   0.73413   0.60492   0.00000  Uiso   1.00
N44    N     0.84523   0.29129   0.58862   0.00000  Uiso   1.00
N45    N     0.17750   0.06898   0.05180   0.00000  Uiso   1.00
N46    N     0.51891   0.78655   0.57428   0.00000  Uiso   1.00
C47    C     0.91722   0.49192   0.72848   0.00000  Uiso   1.00
C48    C     0.97594   0.57278   0.77794   0.00000  Uiso   1.00
C49    C     0.90468   0.61158   0.80245   0.00000  Uiso   1.00
C50    C     0.97671   0.68514   0.84728   0.00000  Uiso   1.00
C51    C     0.04680   0.80563   0.92107   0.00000  Uiso   1.00
C52    C     0.88435   0.51152   0.65028   0.00000  Uiso   1.00
C53    C     0.73609   0.49881   0.56746   0.00000  Uiso   1.00
C54    C     0.73104   0.52079   0.50482   0.00000  Uiso   1.00
C55    C     0.65897   0.54612   0.38042   0.00000  Uiso   1.00
C56    C     0.06586   0.43369   0.78189   0.00000  Uiso   1.00
C57    C     0.07021   0.35552   0.80972   0.00000  Uiso   1.00
C58    C     0.21797   0.31197   0.85788   0.00000  Uiso   1.00
C59    C     0.42773   0.21645   0.93783   0.00000  Uiso   1.00
C60    C     0.17188   0.55356   0.76451   0.00000  Uiso   1.00
C61    C     0.11426   0.60626   0.79751   0.00000  Uiso   1.00
C62    C     0.18643   0.67978   0.84231   0.00000  Uiso   1.00
C63    C     0.11528   0.71868   0.86689   0.00000  Uiso   1.00
C64    C     0.02267   0.54500   0.66984   0.00000  Uiso   1.00
C65    C     0.01784   0.56700   0.60732   0.00000  Uiso   1.00
C66    C     0.86960   0.55433   0.52442   0.00000  Uiso   1.00
C67    C     0.20419   0.46717   0.80147   0.00000  Uiso   1.00
C68    C     0.35197   0.42373   0.84959   0.00000  Uiso   1.00
C69    C     0.35654   0.34551   0.87748   0.00000  Uiso   1.00
H70    H     0.80952   0.46585   0.71324   0.00000  Uiso   1.00
H71    H     0.79762   0.58565   0.78729   0.00000  Uiso   1.00
H72    H     0.62907   0.47289   0.55233   0.00000  Uiso   1.00
H73    H     0.96315   0.32963   0.79456   0.00000  Uiso   1.00
H74    H     0.84539   0.73325   0.87799   0.00000  Uiso   1.00
H75    H     0.49000   0.49546   0.38257   0.00000  Uiso   1.00
H76    H     0.19446   0.19338   0.89336   0.00000  Uiso   1.00
H77    H     0.27957   0.57962   0.77974   0.00000  Uiso   1.00
H78    H     0.29347   0.70567   0.85745   0.00000  Uiso   1.00
H79    H     0.12491   0.59291   0.62249   0.00000  Uiso   1.00
H80    H     0.45898   0.44965   0.86472   0.00000  Uiso   1.00
H81    H     0.24783   0.83067   0.93493   0.00000  Uiso   1.00
H82    H     0.89244   0.59287   0.43951   0.00000  Uiso   1.00
H83    H     0.59690   0.29079   0.95030   0.00000  Uiso   1.00
O84    O     0.04723   0.86284   0.95635   0.00000  Uiso   1.00
O85    O     0.58099   0.55085   0.30639   0.00000  Uiso   1.00
O86    O     0.50522   0.15453   0.97653   0.00000  Uiso   1.00
N87    N     0.93822   0.73887   0.88074   0.00000  Uiso   1.00
N88    N     0.60594   0.51656   0.41756   0.00000  Uiso   1.00
N89    N     0.26454   0.23413   0.89508   0.00000  Uiso   1.00
N90    N     0.15477   0.79129   0.91138   0.00000  Uiso   1.00
N91    N     0.82250   0.56898   0.44820   0.00000  Uiso   1.00
N92    N     0.48109   0.28655   0.92572   0.00000  Uiso   1.00
C93    C     0.91722   0.00808   0.22848   0.00000  Uiso   1.00
C94    C     0.97594   0.92722   0.27794   0.00000  Uiso   1.00
C95    C     0.90468   0.88842   0.30245   0.00000  Uiso   1.00
C96    C     0.97671   0.81486   0.34728   0.00000  Uiso   1.00
C97    C     0.04680   0.69437   0.42107   0.00000  Uiso   1.00
C98    C     0.88435   0.98848   0.15028   0.00000  Uiso   1.00
C99    C     0.73609   0.00119   0.06746   0.00000  Uiso   1.00
C100   C     0.73104   0.97921   0.00482   0.00000  Uiso   1.00
C101   C     0.65897   0.95388   0.88042   0.00000  Uiso   1.00
C102   C     0.06586   0.06631   0.28189   0.00000  Uiso   1.00
C103   C     0.07021   0.14448   0.30972   0.00000  Uiso   1.00
C104   C     0.21797   0.18803   0.35788   0.00000  Uiso   1.00
C105   C     0.42773   0.28355   0.43783   0.00000  Uiso   1.00
C106   C     0.17188   0.94644   0.26451   0.00000  Uiso   1.00
C107   C     0.11426   0.89374   0.29751   0.00000  Uiso   1.00
C108   C     0.18643   0.82022   0.34231   0.00000  Uiso   1.00
C109   C     0.11528   0.78132   0.36689   0.00000  Uiso   1.00
C110   C     0.02267   0.95500   0.16984   0.00000  Uiso   1.00
C111   C     0.01784   0.93300   0.10732   0.00000  Uiso   1.00
C112   C     0.86960   0.94567   0.02442   0.00000  Uiso   1.00
C113   C     0.20419   0.03283   0.30147   0.00000  Uiso   1.00
C114   C     0.35197   0.07627   0.34959   0.00000  Uiso   1.00
C115   C     0.35654   0.15449   0.37748   0.00000  Uiso   1.00
H116   H     0.80952   0.03415   0.21324   0.00000  Uiso   1.00
H117   H     0.79762   0.91435   0.28729   0.00000  Uiso   1.00
H118   H     0.62907   0.02711   0.05233   0.00000  Uiso   1.00
H119   H     0.96315   0.17037   0.29456   0.00000  Uiso   1.00
H120   H     0.84539   0.76675   0.37799   0.00000  Uiso   1.00
H121   H     0.49000   0.00454   0.88257   0.00000  Uiso   1.00
H122   H     0.19446   0.30662   0.39336   0.00000  Uiso   1.00
H123   H     0.27957   0.92038   0.27974   0.00000  Uiso   1.00
H124   H     0.29347   0.79433   0.35745   0.00000  Uiso   1.00
H125   H     0.12491   0.90709   0.12249   0.00000  Uiso   1.00
H126   H     0.45898   0.05035   0.36472   0.00000  Uiso   1.00
H127   H     0.24783   0.66933   0.43493   0.00000  Uiso   1.00
H128   H     0.89244   0.90713   0.93951   0.00000  Uiso   1.00
H129   H     0.59690   0.20921   0.45030   0.00000  Uiso   1.00
O130   O     0.04723   0.63716   0.45635   0.00000  Uiso   1.00
O131   O     0.58099   0.94915   0.80639   0.00000  Uiso   1.00
O132   O     0.50522   0.34547   0.47653   0.00000  Uiso   1.00
N133   N     0.93822   0.76113   0.38074   0.00000  Uiso   1.00
N134   N     0.60594   0.98344   0.91756   0.00000  Uiso   1.00
N135   N     0.26454   0.26587   0.39508   0.00000  Uiso   1.00
N136   N     0.15477   0.70871   0.41138   0.00000  Uiso   1.00
N137   N     0.82250   0.93102   0.94820   0.00000  Uiso   1.00
N138   N     0.48109   0.21345   0.42572   0.00000  Uiso   1.00
C139   C     0.08278   0.50808   0.27152   0.00000  Uiso   1.00
C140   C     0.02406   0.42722   0.22206   0.00000  Uiso   1.00
C141   C     0.09532   0.38842   0.19755   0.00000  Uiso   1.00
C142   C     0.02329   0.31486   0.15272   0.00000  Uiso   1.00
C143   C     0.95320   0.19437   0.07893   0.00000  Uiso   1.00
C144   C     0.11565   0.48848   0.34972   0.00000  Uiso   1.00
C145   C     0.26391   0.50119   0.43254   0.00000  Uiso   1.00
C146   C     0.26896   0.47921   0.49518   0.00000  Uiso   1.00
C147   C     0.34103   0.45388   0.61958   0.00000  Uiso   1.00
C148   C     0.93414   0.56631   0.21811   0.00000  Uiso   1.00
C149   C     0.92979   0.64448   0.19028   0.00000  Uiso   1.00
C150   C     0.78203   0.68803   0.14212   0.00000  Uiso   1.00
C151   C     0.57227   0.78355   0.06217   0.00000  Uiso   1.00
C152   C     0.82812   0.44644   0.23549   0.00000  Uiso   1.00
C153   C     0.88574   0.39374   0.20249   0.00000  Uiso   1.00
C154   C     0.81357   0.32022   0.15769   0.00000  Uiso   1.00
C155   C     0.88472   0.28132   0.13311   0.00000  Uiso   1.00
C156   C     0.97733   0.45500   0.33016   0.00000  Uiso   1.00
C157   C     0.98216   0.43300   0.39268   0.00000  Uiso   1.00
C158   C     0.13040   0.44567   0.47558   0.00000  Uiso   1.00
C159   C     0.79581   0.53283   0.19853   0.00000  Uiso   1.00
C160   C     0.64803   0.57627   0.15041   0.00000  Uiso   1.00
C161   C     0.64346   0.65449   0.12252   0.00000  Uiso   1.00
H162   H     0.19048   0.53415   0.28676   0.00000  Uiso   1.00
H163   H     0.20238   0.41435   0.21271   0.00000  Uiso   1.00
H164   H     0.37093   0.52711   0.44767   0.00000  Uiso   1.00
H165   H     0.03685   0.67037   0.20544   0.00000  Uiso   1.00
H166   H     0.15461   0.26675   0.12201   0.00000  Uiso   1.00
H167   H     0.51000   0.50454   0.61743   0.00000  Uiso   1.00
H168   H     0.80554   0.80662   0.10664   0.00000  Uiso   1.00
H169   H     0.72043   0.42038   0.22026   0.00000  Uiso   1.00
H170   H     0.70653   0.29433   0.14255   0.00000  Uiso   1.00
H171   H     0.87509   0.40709   0.37751   0.00000  Uiso   1.00
H172   H     0.54102   0.55035   0.13528   0.00000  Uiso   1.00
H173   H     0.75217   0.16933   0.06507   0.00000  Uiso   1.00
H174   H     0.10756   0.40713   0.56049   0.00000  Uiso   1.00
H175   H     0.40310   0.70921   0.04970   0.00000  Uiso   1.00
O176   O     0.95277   0.13716   0.04365   0.00000  Uiso   1.00
O177   O     0.41901   0.44915   0.69361   0.00000  Uiso   1.00
O178   O     0.49478   0.84547   0.02347   0.00000  Uiso   1.00
N179   N     0.06178   0.26113   0.11926   0.00000  Uiso   1.00
N180   N     0.39406   0.48344   0.58244   0.00000  Uiso   1.00
N181   N     0.73546   0.76587   0.10492   0.00000  Uiso   1.00
N182   N     0.84523   0.20871   0.08862   0.00000  Uiso   1.00
N183   N     0.17750   0.43102   0.55180   0.00000  Uiso   1.00
N184   N     0.51891   0.71345   0.07428   0.00000  Uiso   1.00
