data_job_02167
_audit_creation_date              2018-12-19
_audit_creation_method            'Materials Studio'
_symmetry_space_group_name_H-M    'P1'
_symmetry_Int_Tables_number       1
_symmetry_cell_setting            triclinic
loop_
_symmetry_equiv_pos_as_xyz
  x,y,z
_cell_length_a                    45.7592
_cell_length_b                    45.7592
_cell_length_c                    6.9676
_cell_angle_alpha                 90.0000
_cell_angle_beta                  90.0000
_cell_angle_gamma                 90.0000
loop_
_atom_site_label
_atom_site_type_symbol
_atom_site_fract_x
_atom_site_fract_y
_atom_site_fract_z
_atom_site_U_iso_or_equiv
_atom_site_adp_type
_atom_site_occupancy
C1     C     0.84912   0.64538   0.78336   0.00000  Uiso   1.00
C2     C     0.84581   0.61522   0.87396   0.00000  Uiso   1.00
C3     C     0.83701   0.59003   0.77938   0.00000  Uiso   1.00
C4     C     0.83534   0.56461   0.88768   0.00000  Uiso   1.00
C5     C     0.82913   0.51782   0.99859   0.00000  Uiso   1.00
C6     C     0.82975   0.66583   0.90033   0.00000  Uiso   1.00
C7     C     0.80746   0.68318   0.82789   0.00000  Uiso   1.00
C8     C     0.79228   0.70037   0.95838   0.00000  Uiso   1.00
C9     C     0.76115   0.73215   0.11020   0.00000  Uiso   1.00
C10    C     0.88050   0.65486   0.82287   0.00000  Uiso   1.00
C11    C     0.90087   0.66299   0.68531   0.00000  Uiso   1.00
C12    C     0.92841   0.67095   0.75060   0.00000  Uiso   1.00
C13    C     0.97608   0.68571   0.78215   0.00000  Uiso   1.00
C14    C     0.86181   0.64505   0.14390   0.00000  Uiso   1.00
C15    C     0.85270   0.61505   0.06980   0.00000  Uiso   1.00
C16    C     0.85104   0.58966   0.17827   0.00000  Uiso   1.00
C17    C     0.84224   0.56443   0.08386   0.00000  Uiso   1.00
C18    C     0.83664   0.66565   0.09615   0.00000  Uiso   1.00
C19    C     0.82149   0.68282   0.22678   0.00000  Uiso   1.00
C20    C     0.79918   0.70019   0.15457   0.00000  Uiso   1.00
C21    C     0.88739   0.65468   0.01870   0.00000  Uiso   1.00
C22    C     0.91490   0.66263   0.08421   0.00000  Uiso   1.00
C23    C     0.93531   0.67078   0.94678   0.00000  Uiso   1.00
H24    H     0.84376   0.64552   0.63090   0.00000  Uiso   1.00
H25    H     0.83167   0.59017   0.62783   0.00000  Uiso   1.00
H26    H     0.80213   0.68331   0.67634   0.00000  Uiso   1.00
H27    H     0.89553   0.66313   0.53378   0.00000  Uiso   1.00
H28    H     0.82131   0.52874   0.71080   0.00000  Uiso   1.00
H29    H     0.75902   0.72514   0.81306   0.00000  Uiso   1.00
H30    H     0.95596   0.68258   0.51246   0.00000  Uiso   1.00
H31    H     0.86717   0.64491   0.29637   0.00000  Uiso   1.00
H32    H     0.85638   0.58953   0.32981   0.00000  Uiso   1.00
H33    H     0.82683   0.68267   0.37831   0.00000  Uiso   1.00
H34    H     0.92023   0.66249   0.23576   0.00000  Uiso   1.00
H35    H     0.84136   0.52822   0.28055   0.00000  Uiso   1.00
H36    H     0.77907   0.72462   0.38282   0.00000  Uiso   1.00
H37    H     0.97601   0.68206   0.08222   0.00000  Uiso   1.00
O38    O     0.82380   0.49206   0.00568   0.00000  Uiso   1.00
O39    O     0.74208   0.74973   0.13984   0.00000  Uiso   1.00
O40    O     0.00047   0.69389   0.74546   0.00000  Uiso   1.00
N41    N     0.82751   0.53621   0.84029   0.00000  Uiso   1.00
N42    N     0.76927   0.71983   0.93591   0.00000  Uiso   1.00
N43    N     0.95340   0.68005   0.65487   0.00000  Uiso   1.00
N44    N     0.83830   0.53593   0.14687   0.00000  Uiso   1.00
N45    N     0.78006   0.71955   0.24249   0.00000  Uiso   1.00
N46    N     0.96419   0.67977   0.96145   0.00000  Uiso   1.00
C47    C     0.15088   0.35462   0.28336   0.00000  Uiso   1.00
C48    C     0.15419   0.38478   0.37396   0.00000  Uiso   1.00
C49    C     0.16299   0.40997   0.27938   0.00000  Uiso   1.00
C50    C     0.16466   0.43539   0.38768   0.00000  Uiso   1.00
C51    C     0.17087   0.48218   0.49859   0.00000  Uiso   1.00
C52    C     0.17025   0.33417   0.40033   0.00000  Uiso   1.00
C53    C     0.19254   0.31682   0.32789   0.00000  Uiso   1.00
C54    C     0.20772   0.29963   0.45838   0.00000  Uiso   1.00
C55    C     0.23885   0.26785   0.61020   0.00000  Uiso   1.00
C56    C     0.11950   0.34514   0.32287   0.00000  Uiso   1.00
C57    C     0.09913   0.33701   0.18531   0.00000  Uiso   1.00
C58    C     0.07159   0.32905   0.25060   0.00000  Uiso   1.00
C59    C     0.02392   0.31429   0.28215   0.00000  Uiso   1.00
C60    C     0.13819   0.35495   0.64390   0.00000  Uiso   1.00
C61    C     0.14730   0.38495   0.56980   0.00000  Uiso   1.00
C62    C     0.14896   0.41034   0.67827   0.00000  Uiso   1.00
C63    C     0.15776   0.43557   0.58386   0.00000  Uiso   1.00
C64    C     0.16336   0.33435   0.59615   0.00000  Uiso   1.00
C65    C     0.17851   0.31718   0.72678   0.00000  Uiso   1.00
C66    C     0.20082   0.29981   0.65457   0.00000  Uiso   1.00
C67    C     0.11261   0.34532   0.51870   0.00000  Uiso   1.00
C68    C     0.08510   0.33737   0.58421   0.00000  Uiso   1.00
C69    C     0.06469   0.32922   0.44678   0.00000  Uiso   1.00
H70    H     0.15624   0.35448   0.13090   0.00000  Uiso   1.00
H71    H     0.16833   0.40983   0.12783   0.00000  Uiso   1.00
H72    H     0.19787   0.31669   0.17634   0.00000  Uiso   1.00
H73    H     0.10447   0.33687   0.03378   0.00000  Uiso   1.00
H74    H     0.17869   0.47126   0.21080   0.00000  Uiso   1.00
H75    H     0.24098   0.27486   0.31306   0.00000  Uiso   1.00
H76    H     0.04404   0.31742   0.01246   0.00000  Uiso   1.00
H77    H     0.13283   0.35509   0.79637   0.00000  Uiso   1.00
H78    H     0.14362   0.41047   0.82981   0.00000  Uiso   1.00
H79    H     0.17317   0.31733   0.87831   0.00000  Uiso   1.00
H80    H     0.07977   0.33751   0.73576   0.00000  Uiso   1.00
H81    H     0.15864   0.47178   0.78055   0.00000  Uiso   1.00
H82    H     0.22093   0.27538   0.88282   0.00000  Uiso   1.00
H83    H     0.02399   0.31794   0.58222   0.00000  Uiso   1.00
O84    O     0.17620   0.50794   0.50568   0.00000  Uiso   1.00
O85    O     0.25792   0.25027   0.63984   0.00000  Uiso   1.00
O86    O     0.99953   0.30611   0.24546   0.00000  Uiso   1.00
N87    N     0.17249   0.46379   0.34029   0.00000  Uiso   1.00
N88    N     0.23073   0.28017   0.43591   0.00000  Uiso   1.00
N89    N     0.04660   0.31995   0.15487   0.00000  Uiso   1.00
N90    N     0.16170   0.46407   0.64687   0.00000  Uiso   1.00
N91    N     0.21994   0.28045   0.74249   0.00000  Uiso   1.00
N92    N     0.03581   0.32023   0.46145   0.00000  Uiso   1.00
C93    C     0.35462   0.84912   0.03336   0.00000  Uiso   1.00
C94    C     0.38478   0.84581   0.12396   0.00000  Uiso   1.00
C95    C     0.40997   0.83701   0.02938   0.00000  Uiso   1.00
C96    C     0.43539   0.83534   0.13768   0.00000  Uiso   1.00
C97    C     0.48218   0.82913   0.24859   0.00000  Uiso   1.00
C98    C     0.33417   0.82975   0.15033   0.00000  Uiso   1.00
C99    C     0.31682   0.80746   0.07789   0.00000  Uiso   1.00
C100   C     0.29963   0.79228   0.20838   0.00000  Uiso   1.00
C101   C     0.26785   0.76115   0.36020   0.00000  Uiso   1.00
C102   C     0.34514   0.88050   0.07287   0.00000  Uiso   1.00
C103   C     0.33701   0.90087   0.93531   0.00000  Uiso   1.00
C104   C     0.32905   0.92841   0.00060   0.00000  Uiso   1.00
C105   C     0.31429   0.97608   0.03215   0.00000  Uiso   1.00
C106   C     0.35495   0.86181   0.39390   0.00000  Uiso   1.00
C107   C     0.38495   0.85270   0.31980   0.00000  Uiso   1.00
C108   C     0.41034   0.85104   0.42827   0.00000  Uiso   1.00
C109   C     0.43557   0.84224   0.33386   0.00000  Uiso   1.00
C110   C     0.33435   0.83664   0.34615   0.00000  Uiso   1.00
C111   C     0.31718   0.82149   0.47678   0.00000  Uiso   1.00
C112   C     0.29981   0.79918   0.40457   0.00000  Uiso   1.00
C113   C     0.34532   0.88739   0.26870   0.00000  Uiso   1.00
C114   C     0.33737   0.91490   0.33421   0.00000  Uiso   1.00
C115   C     0.32922   0.93531   0.19678   0.00000  Uiso   1.00
H116   H     0.35448   0.84376   0.88090   0.00000  Uiso   1.00
H117   H     0.40983   0.83167   0.87783   0.00000  Uiso   1.00
H118   H     0.31669   0.80213   0.92634   0.00000  Uiso   1.00
H119   H     0.33687   0.89553   0.78378   0.00000  Uiso   1.00
H120   H     0.47126   0.82131   0.96080   0.00000  Uiso   1.00
H121   H     0.27486   0.75902   0.06306   0.00000  Uiso   1.00
H122   H     0.31742   0.95596   0.76246   0.00000  Uiso   1.00
H123   H     0.35509   0.86717   0.54637   0.00000  Uiso   1.00
H124   H     0.41047   0.85638   0.57981   0.00000  Uiso   1.00
H125   H     0.31733   0.82683   0.62831   0.00000  Uiso   1.00
H126   H     0.33751   0.92023   0.48576   0.00000  Uiso   1.00
H127   H     0.47178   0.84136   0.53055   0.00000  Uiso   1.00
H128   H     0.27538   0.77907   0.63282   0.00000  Uiso   1.00
H129   H     0.31794   0.97601   0.33222   0.00000  Uiso   1.00
O130   O     0.50794   0.82380   0.25568   0.00000  Uiso   1.00
O131   O     0.25027   0.74208   0.38984   0.00000  Uiso   1.00
O132   O     0.30611   0.00047   0.99546   0.00000  Uiso   1.00
N133   N     0.46379   0.82751   0.09029   0.00000  Uiso   1.00
N134   N     0.28017   0.76927   0.18591   0.00000  Uiso   1.00
N135   N     0.31995   0.95340   0.90487   0.00000  Uiso   1.00
N136   N     0.46407   0.83830   0.39687   0.00000  Uiso   1.00
N137   N     0.28045   0.78006   0.49249   0.00000  Uiso   1.00
N138   N     0.32023   0.96419   0.21145   0.00000  Uiso   1.00
C139   C     0.64538   0.15088   0.53336   0.00000  Uiso   1.00
C140   C     0.61522   0.15419   0.62396   0.00000  Uiso   1.00
C141   C     0.59003   0.16299   0.52938   0.00000  Uiso   1.00
C142   C     0.56461   0.16466   0.63768   0.00000  Uiso   1.00
C143   C     0.51782   0.17087   0.74859   0.00000  Uiso   1.00
C144   C     0.66583   0.17025   0.65033   0.00000  Uiso   1.00
C145   C     0.68318   0.19254   0.57789   0.00000  Uiso   1.00
C146   C     0.70037   0.20772   0.70838   0.00000  Uiso   1.00
C147   C     0.73215   0.23885   0.86020   0.00000  Uiso   1.00
C148   C     0.65486   0.11950   0.57287   0.00000  Uiso   1.00
C149   C     0.66299   0.09913   0.43531   0.00000  Uiso   1.00
C150   C     0.67095   0.07159   0.50060   0.00000  Uiso   1.00
C151   C     0.68571   0.02392   0.53215   0.00000  Uiso   1.00
C152   C     0.64505   0.13819   0.89390   0.00000  Uiso   1.00
C153   C     0.61505   0.14730   0.81980   0.00000  Uiso   1.00
C154   C     0.58966   0.14896   0.92827   0.00000  Uiso   1.00
C155   C     0.56443   0.15776   0.83386   0.00000  Uiso   1.00
C156   C     0.66565   0.16336   0.84615   0.00000  Uiso   1.00
C157   C     0.68282   0.17851   0.97678   0.00000  Uiso   1.00
C158   C     0.70019   0.20082   0.90457   0.00000  Uiso   1.00
C159   C     0.65468   0.11261   0.76870   0.00000  Uiso   1.00
C160   C     0.66263   0.08510   0.83421   0.00000  Uiso   1.00
C161   C     0.67078   0.06469   0.69678   0.00000  Uiso   1.00
H162   H     0.64552   0.15624   0.38090   0.00000  Uiso   1.00
H163   H     0.59017   0.16833   0.37783   0.00000  Uiso   1.00
H164   H     0.68331   0.19787   0.42634   0.00000  Uiso   1.00
H165   H     0.66313   0.10447   0.28378   0.00000  Uiso   1.00
H166   H     0.52874   0.17869   0.46080   0.00000  Uiso   1.00
H167   H     0.72514   0.24098   0.56306   0.00000  Uiso   1.00
H168   H     0.68258   0.04404   0.26246   0.00000  Uiso   1.00
H169   H     0.64491   0.13283   0.04637   0.00000  Uiso   1.00
H170   H     0.58953   0.14362   0.07981   0.00000  Uiso   1.00
H171   H     0.68267   0.17317   0.12831   0.00000  Uiso   1.00
H172   H     0.66249   0.07977   0.98576   0.00000  Uiso   1.00
H173   H     0.52822   0.15864   0.03055   0.00000  Uiso   1.00
H174   H     0.72462   0.22093   0.13282   0.00000  Uiso   1.00
H175   H     0.68206   0.02399   0.83222   0.00000  Uiso   1.00
O176   O     0.49206   0.17620   0.75568   0.00000  Uiso   1.00
O177   O     0.74973   0.25792   0.88984   0.00000  Uiso   1.00
O178   O     0.69389   0.99953   0.49546   0.00000  Uiso   1.00
N179   N     0.53621   0.17249   0.59029   0.00000  Uiso   1.00
N180   N     0.71983   0.23073   0.68591   0.00000  Uiso   1.00
N181   N     0.68005   0.04660   0.40487   0.00000  Uiso   1.00
N182   N     0.53593   0.16170   0.89687   0.00000  Uiso   1.00
N183   N     0.71955   0.21994   0.99249   0.00000  Uiso   1.00
N184   N     0.67977   0.03581   0.71145   0.00000  Uiso   1.00
C185   C     0.15088   0.64538   0.21664   0.00000  Uiso   1.00
C186   C     0.15419   0.61522   0.12604   0.00000  Uiso   1.00
C187   C     0.16299   0.59003   0.22062   0.00000  Uiso   1.00
C188   C     0.16466   0.56461   0.11232   0.00000  Uiso   1.00
C189   C     0.17087   0.51782   0.00141   0.00000  Uiso   1.00
C190   C     0.17025   0.66583   0.09967   0.00000  Uiso   1.00
C191   C     0.19254   0.68318   0.17211   0.00000  Uiso   1.00
C192   C     0.20772   0.70037   0.04162   0.00000  Uiso   1.00
C193   C     0.23885   0.73215   0.88980   0.00000  Uiso   1.00
C194   C     0.11950   0.65486   0.17713   0.00000  Uiso   1.00
C195   C     0.09913   0.66299   0.31469   0.00000  Uiso   1.00
C196   C     0.07159   0.67095   0.24940   0.00000  Uiso   1.00
C197   C     0.02392   0.68571   0.21785   0.00000  Uiso   1.00
C198   C     0.13819   0.64505   0.85610   0.00000  Uiso   1.00
C199   C     0.14730   0.61505   0.93020   0.00000  Uiso   1.00
C200   C     0.14896   0.58966   0.82173   0.00000  Uiso   1.00
C201   C     0.15776   0.56443   0.91614   0.00000  Uiso   1.00
C202   C     0.16336   0.66565   0.90385   0.00000  Uiso   1.00
C203   C     0.17851   0.68282   0.77322   0.00000  Uiso   1.00
C204   C     0.20082   0.70019   0.84543   0.00000  Uiso   1.00
C205   C     0.11261   0.65468   0.98130   0.00000  Uiso   1.00
C206   C     0.08510   0.66263   0.91579   0.00000  Uiso   1.00
C207   C     0.06469   0.67078   0.05322   0.00000  Uiso   1.00
H208   H     0.15624   0.64552   0.36910   0.00000  Uiso   1.00
H209   H     0.16833   0.59017   0.37217   0.00000  Uiso   1.00
H210   H     0.19787   0.68331   0.32366   0.00000  Uiso   1.00
H211   H     0.10447   0.66313   0.46622   0.00000  Uiso   1.00
H212   H     0.17869   0.52874   0.28920   0.00000  Uiso   1.00
H213   H     0.24098   0.72514   0.18694   0.00000  Uiso   1.00
H214   H     0.04404   0.68258   0.48754   0.00000  Uiso   1.00
H215   H     0.13283   0.64491   0.70363   0.00000  Uiso   1.00
H216   H     0.14362   0.58953   0.67019   0.00000  Uiso   1.00
H217   H     0.17317   0.68267   0.62169   0.00000  Uiso   1.00
H218   H     0.07977   0.66249   0.76424   0.00000  Uiso   1.00
H219   H     0.15864   0.52822   0.71945   0.00000  Uiso   1.00
H220   H     0.22093   0.72462   0.61718   0.00000  Uiso   1.00
H221   H     0.02399   0.68206   0.91778   0.00000  Uiso   1.00
O222   O     0.17620   0.49206   0.99432   0.00000  Uiso   1.00
O223   O     0.25792   0.74973   0.86016   0.00000  Uiso   1.00
O224   O     0.99953   0.69389   0.25454   0.00000  Uiso   1.00
N225   N     0.17249   0.53621   0.15971   0.00000  Uiso   1.00
N226   N     0.23073   0.71983   0.06409   0.00000  Uiso   1.00
N227   N     0.04660   0.68005   0.34513   0.00000  Uiso   1.00
N228   N     0.16170   0.53593   0.85313   0.00000  Uiso   1.00
N229   N     0.21994   0.71955   0.75751   0.00000  Uiso   1.00
N230   N     0.03581   0.67977   0.03855   0.00000  Uiso   1.00
C231   C     0.84912   0.35462   0.71664   0.00000  Uiso   1.00
C232   C     0.84581   0.38478   0.62604   0.00000  Uiso   1.00
C233   C     0.83701   0.40997   0.72062   0.00000  Uiso   1.00
C234   C     0.83534   0.43539   0.61232   0.00000  Uiso   1.00
C235   C     0.82913   0.48218   0.50141   0.00000  Uiso   1.00
C236   C     0.82975   0.33417   0.59967   0.00000  Uiso   1.00
C237   C     0.80746   0.31682   0.67211   0.00000  Uiso   1.00
C238   C     0.79228   0.29963   0.54162   0.00000  Uiso   1.00
C239   C     0.76115   0.26785   0.38980   0.00000  Uiso   1.00
C240   C     0.88050   0.34514   0.67713   0.00000  Uiso   1.00
C241   C     0.90087   0.33701   0.81469   0.00000  Uiso   1.00
C242   C     0.92841   0.32905   0.74940   0.00000  Uiso   1.00
C243   C     0.97608   0.31429   0.71785   0.00000  Uiso   1.00
C244   C     0.86181   0.35495   0.35610   0.00000  Uiso   1.00
C245   C     0.85270   0.38495   0.43020   0.00000  Uiso   1.00
C246   C     0.85104   0.41034   0.32173   0.00000  Uiso   1.00
C247   C     0.84224   0.43557   0.41614   0.00000  Uiso   1.00
C248   C     0.83664   0.33435   0.40385   0.00000  Uiso   1.00
C249   C     0.82149   0.31718   0.27322   0.00000  Uiso   1.00
C250   C     0.79918   0.29981   0.34543   0.00000  Uiso   1.00
C251   C     0.88739   0.34532   0.48130   0.00000  Uiso   1.00
C252   C     0.91490   0.33737   0.41579   0.00000  Uiso   1.00
C253   C     0.93531   0.32922   0.55322   0.00000  Uiso   1.00
H254   H     0.84376   0.35448   0.86910   0.00000  Uiso   1.00
H255   H     0.83167   0.40983   0.87217   0.00000  Uiso   1.00
H256   H     0.80213   0.31669   0.82366   0.00000  Uiso   1.00
H257   H     0.89553   0.33687   0.96622   0.00000  Uiso   1.00
H258   H     0.82131   0.47126   0.78920   0.00000  Uiso   1.00
H259   H     0.75902   0.27486   0.68694   0.00000  Uiso   1.00
H260   H     0.95596   0.31742   0.98754   0.00000  Uiso   1.00
H261   H     0.86717   0.35509   0.20363   0.00000  Uiso   1.00
H262   H     0.85638   0.41047   0.17019   0.00000  Uiso   1.00
H263   H     0.82683   0.31733   0.12169   0.00000  Uiso   1.00
H264   H     0.92023   0.33751   0.26424   0.00000  Uiso   1.00
H265   H     0.84136   0.47178   0.21945   0.00000  Uiso   1.00
H266   H     0.77907   0.27538   0.11718   0.00000  Uiso   1.00
H267   H     0.97601   0.31794   0.41778   0.00000  Uiso   1.00
O268   O     0.82380   0.50794   0.49432   0.00000  Uiso   1.00
O269   O     0.74208   0.25027   0.36016   0.00000  Uiso   1.00
O270   O     0.00047   0.30611   0.75454   0.00000  Uiso   1.00
N271   N     0.82751   0.46379   0.65971   0.00000  Uiso   1.00
N272   N     0.76927   0.28017   0.56409   0.00000  Uiso   1.00
N273   N     0.95340   0.31995   0.84513   0.00000  Uiso   1.00
N274   N     0.83830   0.46407   0.35313   0.00000  Uiso   1.00
N275   N     0.78006   0.28045   0.25751   0.00000  Uiso   1.00
N276   N     0.96419   0.32023   0.53855   0.00000  Uiso   1.00
C277   C     0.64538   0.84912   0.96664   0.00000  Uiso   1.00
C278   C     0.61522   0.84581   0.87604   0.00000  Uiso   1.00
C279   C     0.59003   0.83701   0.97062   0.00000  Uiso   1.00
C280   C     0.56461   0.83534   0.86232   0.00000  Uiso   1.00
C281   C     0.51782   0.82913   0.75141   0.00000  Uiso   1.00
C282   C     0.66583   0.82975   0.84967   0.00000  Uiso   1.00
C283   C     0.68318   0.80746   0.92211   0.00000  Uiso   1.00
C284   C     0.70037   0.79228   0.79162   0.00000  Uiso   1.00
C285   C     0.73215   0.76115   0.63980   0.00000  Uiso   1.00
C286   C     0.65486   0.88050   0.92713   0.00000  Uiso   1.00
C287   C     0.66299   0.90087   0.06469   0.00000  Uiso   1.00
C288   C     0.67095   0.92841   0.99940   0.00000  Uiso   1.00
C289   C     0.68571   0.97608   0.96785   0.00000  Uiso   1.00
C290   C     0.64505   0.86181   0.60610   0.00000  Uiso   1.00
C291   C     0.61505   0.85270   0.68020   0.00000  Uiso   1.00
C292   C     0.58966   0.85104   0.57173   0.00000  Uiso   1.00
C293   C     0.56443   0.84224   0.66614   0.00000  Uiso   1.00
C294   C     0.66565   0.83664   0.65385   0.00000  Uiso   1.00
C295   C     0.68282   0.82149   0.52322   0.00000  Uiso   1.00
C296   C     0.70019   0.79918   0.59543   0.00000  Uiso   1.00
C297   C     0.65468   0.88739   0.73130   0.00000  Uiso   1.00
C298   C     0.66263   0.91490   0.66579   0.00000  Uiso   1.00
C299   C     0.67078   0.93531   0.80322   0.00000  Uiso   1.00
H300   H     0.64552   0.84376   0.11910   0.00000  Uiso   1.00
H301   H     0.59017   0.83167   0.12217   0.00000  Uiso   1.00
H302   H     0.68331   0.80213   0.07366   0.00000  Uiso   1.00
H303   H     0.66313   0.89553   0.21622   0.00000  Uiso   1.00
H304   H     0.52874   0.82131   0.03920   0.00000  Uiso   1.00
H305   H     0.72514   0.75902   0.93694   0.00000  Uiso   1.00
H306   H     0.68258   0.95596   0.23754   0.00000  Uiso   1.00
H307   H     0.64491   0.86717   0.45363   0.00000  Uiso   1.00
H308   H     0.58953   0.85638   0.42019   0.00000  Uiso   1.00
H309   H     0.68267   0.82683   0.37169   0.00000  Uiso   1.00
H310   H     0.66249   0.92023   0.51424   0.00000  Uiso   1.00
H311   H     0.52822   0.84136   0.46945   0.00000  Uiso   1.00
H312   H     0.72462   0.77907   0.36718   0.00000  Uiso   1.00
H313   H     0.68206   0.97601   0.66778   0.00000  Uiso   1.00
O314   O     0.49206   0.82380   0.74432   0.00000  Uiso   1.00
O315   O     0.74973   0.74208   0.61016   0.00000  Uiso   1.00
O316   O     0.69389   0.00047   0.00454   0.00000  Uiso   1.00
N317   N     0.53621   0.82751   0.90971   0.00000  Uiso   1.00
N318   N     0.71983   0.76927   0.81409   0.00000  Uiso   1.00
N319   N     0.68005   0.95340   0.09513   0.00000  Uiso   1.00
N320   N     0.53593   0.83830   0.60313   0.00000  Uiso   1.00
N321   N     0.71955   0.78006   0.50751   0.00000  Uiso   1.00
N322   N     0.67977   0.96419   0.78855   0.00000  Uiso   1.00
C323   C     0.35462   0.15088   0.46664   0.00000  Uiso   1.00
C324   C     0.38478   0.15419   0.37604   0.00000  Uiso   1.00
C325   C     0.40997   0.16299   0.47062   0.00000  Uiso   1.00
C326   C     0.43539   0.16466   0.36232   0.00000  Uiso   1.00
C327   C     0.48218   0.17087   0.25141   0.00000  Uiso   1.00
C328   C     0.33417   0.17025   0.34967   0.00000  Uiso   1.00
C329   C     0.31682   0.19254   0.42211   0.00000  Uiso   1.00
C330   C     0.29963   0.20772   0.29162   0.00000  Uiso   1.00
C331   C     0.26785   0.23885   0.13980   0.00000  Uiso   1.00
C332   C     0.34514   0.11950   0.42713   0.00000  Uiso   1.00
C333   C     0.33701   0.09913   0.56469   0.00000  Uiso   1.00
C334   C     0.32905   0.07159   0.49940   0.00000  Uiso   1.00
C335   C     0.31429   0.02392   0.46785   0.00000  Uiso   1.00
C336   C     0.35495   0.13819   0.10610   0.00000  Uiso   1.00
C337   C     0.38495   0.14730   0.18020   0.00000  Uiso   1.00
C338   C     0.41034   0.14896   0.07173   0.00000  Uiso   1.00
C339   C     0.43557   0.15776   0.16614   0.00000  Uiso   1.00
C340   C     0.33435   0.16336   0.15385   0.00000  Uiso   1.00
C341   C     0.31718   0.17851   0.02322   0.00000  Uiso   1.00
C342   C     0.29981   0.20082   0.09543   0.00000  Uiso   1.00
C343   C     0.34532   0.11261   0.23130   0.00000  Uiso   1.00
C344   C     0.33737   0.08510   0.16579   0.00000  Uiso   1.00
C345   C     0.32922   0.06469   0.30322   0.00000  Uiso   1.00
H346   H     0.35448   0.15624   0.61910   0.00000  Uiso   1.00
H347   H     0.40983   0.16833   0.62217   0.00000  Uiso   1.00
H348   H     0.31669   0.19787   0.57366   0.00000  Uiso   1.00
H349   H     0.33687   0.10447   0.71622   0.00000  Uiso   1.00
H350   H     0.47126   0.17869   0.53920   0.00000  Uiso   1.00
H351   H     0.27486   0.24098   0.43694   0.00000  Uiso   1.00
H352   H     0.31742   0.04404   0.73754   0.00000  Uiso   1.00
H353   H     0.35509   0.13283   0.95363   0.00000  Uiso   1.00
H354   H     0.41047   0.14362   0.92019   0.00000  Uiso   1.00
H355   H     0.31733   0.17317   0.87169   0.00000  Uiso   1.00
H356   H     0.33751   0.07977   0.01424   0.00000  Uiso   1.00
H357   H     0.47178   0.15864   0.96945   0.00000  Uiso   1.00
H358   H     0.27538   0.22093   0.86718   0.00000  Uiso   1.00
H359   H     0.31794   0.02399   0.16778   0.00000  Uiso   1.00
O360   O     0.50794   0.17620   0.24432   0.00000  Uiso   1.00
O361   O     0.25027   0.25792   0.11016   0.00000  Uiso   1.00
O362   O     0.30611   0.99953   0.50454   0.00000  Uiso   1.00
N363   N     0.46379   0.17249   0.40971   0.00000  Uiso   1.00
N364   N     0.28017   0.23073   0.31409   0.00000  Uiso   1.00
N365   N     0.31995   0.04660   0.59513   0.00000  Uiso   1.00
N366   N     0.46407   0.16170   0.10313   0.00000  Uiso   1.00
N367   N     0.28045   0.21994   0.00751   0.00000  Uiso   1.00
N368   N     0.32023   0.03581   0.28855   0.00000  Uiso   1.00
