data_job_06078
_audit_creation_date              2018-12-19
_audit_creation_method            'Materials Studio'
_symmetry_space_group_name_H-M    'P1'
_symmetry_Int_Tables_number       1
_symmetry_cell_setting            triclinic
loop_
_symmetry_equiv_pos_as_xyz
  x,y,z
_cell_length_a                    7.7910
_cell_length_b                    22.8341
_cell_length_c                    23.4431
_cell_angle_alpha                 118.5530
_cell_angle_beta                  81.1134
_cell_angle_gamma                 88.9911
loop_
_atom_site_label
_atom_site_type_symbol
_atom_site_fract_x
_atom_site_fract_y
_atom_site_fract_z
_atom_site_U_iso_or_equiv
_atom_site_adp_type
_atom_site_occupancy
C1     C     0.37434   0.89933   0.25488   0.00000  Uiso   1.00
C2     C     0.23068   0.94551   0.31271   0.00000  Uiso   1.00
C3     C     0.25469   0.00295   0.36896   0.00000  Uiso   1.00
C4     C     0.10661   0.03834   0.41622   0.00000  Uiso   1.00
C5     C     0.90882   0.11327   0.50736   0.00000  Uiso   1.00
C6     C     0.36104   0.82956   0.24745   0.00000  Uiso   1.00
C7     C     0.49466   0.78951   0.24883   0.00000  Uiso   1.00
C8     C     0.45632   0.72727   0.24114   0.00000  Uiso   1.00
C9     C     0.46095   0.62217   0.23091   0.00000  Uiso   1.00
C10    C     0.32183   0.89598   0.19344   0.00000  Uiso   1.00
C11    C     0.42248   0.91175   0.14940   0.00000  Uiso   1.00
C12    C     0.35114   0.90543   0.09624   0.00000  Uiso   1.00
C13    C     0.29488   0.90345   0.00216   0.00000  Uiso   1.00
C14    C     0.06868   0.86002   0.23877   0.00000  Uiso   1.00
C15    C     0.06467   0.92416   0.30395   0.00000  Uiso   1.00
C16    C     0.91651   0.95946   0.35114   0.00000  Uiso   1.00
C17    C     0.94029   0.01695   0.40745   0.00000  Uiso   1.00
C18    C     0.19503   0.80820   0.23870   0.00000  Uiso   1.00
C19    C     0.15648   0.74601   0.23100   0.00000  Uiso   1.00
C20    C     0.29000   0.70588   0.23237   0.00000  Uiso   1.00
C21    C     0.15580   0.87463   0.18469   0.00000  Uiso   1.00
C22    C     0.08430   0.86827   0.13158   0.00000  Uiso   1.00
C23    C     0.18482   0.88404   0.08747   0.00000  Uiso   1.00
H24    H     0.50360   0.91595   0.26169   0.00000  Uiso   1.00
H25    H     0.38319   0.01946   0.37572   0.00000  Uiso   1.00
H26    H     0.62313   0.80604   0.25559   0.00000  Uiso   1.00
H27    H     0.55095   0.92827   0.15619   0.00000  Uiso   1.00
H28    H     0.17649   0.12479   0.49829   0.00000  Uiso   1.00
H29    H     0.68243   0.67478   0.24498   0.00000  Uiso   1.00
H30    H     0.53025   0.93253   0.03537   0.00000  Uiso   1.00
H31    H     0.93942   0.84339   0.23195   0.00000  Uiso   1.00
H32    H     0.78805   0.94293   0.34435   0.00000  Uiso   1.00
H33    H     0.02799   0.72951   0.22423   0.00000  Uiso   1.00
H34    H     0.95582   0.85174   0.12482   0.00000  Uiso   1.00
H35    H     0.69346   0.06267   0.47284   0.00000  Uiso   1.00
H36    H     0.19940   0.61266   0.21952   0.00000  Uiso   1.00
H37    H     0.04721   0.87041   0.00991   0.00000  Uiso   1.00
O38    O     0.84559   0.16050   0.56005   0.00000  Uiso   1.00
O39    O     0.50937   0.57010   0.22770   0.00000  Uiso   1.00
O40    O     0.30970   0.90827   0.95270   0.00000  Uiso   1.00
N41    N     0.08358   0.09652   0.47687   0.00000  Uiso   1.00
N42    N     0.55659   0.67579   0.24005   0.00000  Uiso   1.00
N43    N     0.41433   0.91675   0.04407   0.00000  Uiso   1.00
N44    N     0.82366   0.06309   0.46317   0.00000  Uiso   1.00
N45    N     0.29667   0.64236   0.22635   0.00000  Uiso   1.00
N46    N     0.15442   0.88332   0.03037   0.00000  Uiso   1.00
C47    C     0.62203   0.75259   0.63581   0.00000  Uiso   1.00
C48    C     0.52867   0.69129   0.62626   0.00000  Uiso   1.00
C49    C     0.60018   0.63509   0.62608   0.00000  Uiso   1.00
C50    C     0.49347   0.58434   0.61656   0.00000  Uiso   1.00
C51    C     0.37469   0.48832   0.60307   0.00000  Uiso   1.00
C52    C     0.61129   0.76053   0.57542   0.00000  Uiso   1.00
C53    C     0.75227   0.76256   0.53249   0.00000  Uiso   1.00
C54    C     0.71511   0.77012   0.48018   0.00000  Uiso   1.00
C55    C     0.72461   0.78165   0.38779   0.00000  Uiso   1.00
C56    C     0.50912   0.81269   0.69438   0.00000  Uiso   1.00
C57    C     0.56420   0.85858   0.75147   0.00000  Uiso   1.00
C58    C     0.44102   0.91006   0.79931   0.00000  Uiso   1.00
C59    C     0.29187   0.00257   0.89162   0.00000  Uiso   1.00
C60    C     0.30535   0.76241   0.61924   0.00000  Uiso   1.00
C61    C     0.35666   0.69662   0.61726   0.00000  Uiso   1.00
C62    C     0.24981   0.64595   0.60775   0.00000  Uiso   1.00
C63    C     0.32115   0.58968   0.60755   0.00000  Uiso   1.00
C64    C     0.43929   0.76586   0.56642   0.00000  Uiso   1.00
C65    C     0.40190   0.77342   0.51416   0.00000  Uiso   1.00
C66    C     0.54279   0.77546   0.47116   0.00000  Uiso   1.00
C67    C     0.33711   0.81802   0.68538   0.00000  Uiso   1.00
C68    C     0.21382   0.86944   0.73314   0.00000  Uiso   1.00
C69    C     0.26870   0.91540   0.79029   0.00000  Uiso   1.00
H70    H     0.75595   0.74844   0.64281   0.00000  Uiso   1.00
H71    H     0.73330   0.63098   0.63303   0.00000  Uiso   1.00
H72    H     0.88537   0.75844   0.53947   0.00000  Uiso   1.00
H73    H     0.69732   0.85444   0.75841   0.00000  Uiso   1.00
H74    H     0.63236   0.50308   0.61820   0.00000  Uiso   1.00
H75    H     0.95300   0.77187   0.42093   0.00000  Uiso   1.00
H76    H     0.55646   0.97430   0.88262   0.00000  Uiso   1.00
H77    H     0.17143   0.76656   0.61223   0.00000  Uiso   1.00
H78    H     0.11670   0.65009   0.60078   0.00000  Uiso   1.00
H79    H     0.26878   0.77755   0.50721   0.00000  Uiso   1.00
H80    H     0.08073   0.87355   0.72616   0.00000  Uiso   1.00
H81    H     0.13191   0.51859   0.59202   0.00000  Uiso   1.00
H82    H     0.45255   0.78738   0.39475   0.00000  Uiso   1.00
H83    H     0.05601   0.98981   0.85644   0.00000  Uiso   1.00
O84    O     0.35670   0.43388   0.59811   0.00000  Uiso   1.00
O85    O     0.77737   0.78653   0.33930   0.00000  Uiso   1.00
O86    O     0.25712   0.05212   0.94503   0.00000  Uiso   1.00
N87    N     0.52208   0.52272   0.61363   0.00000  Uiso   1.00
N88    N     0.82186   0.77401   0.42918   0.00000  Uiso   1.00
N89    N     0.45114   0.96328   0.86081   0.00000  Uiso   1.00
N90    N     0.25279   0.53107   0.59954   0.00000  Uiso   1.00
N91    N     0.55257   0.78236   0.41510   0.00000  Uiso   1.00
N92    N     0.18185   0.97163   0.84673   0.00000  Uiso   1.00
C93    C     0.25418   0.37171   0.11015   0.00000  Uiso   1.00
C94    C     0.15990   0.37990   0.06162   0.00000  Uiso   1.00
C95    C     0.23938   0.38232   0.00568   0.00000  Uiso   1.00
C96    C     0.13025   0.39007   0.96767   0.00000  Uiso   1.00
C97    C     0.01155   0.40204   0.88969   0.00000  Uiso   1.00
C98    C     0.18256   0.43155   0.17789   0.00000  Uiso   1.00
C99    C     0.28112   0.47738   0.21972   0.00000  Uiso   1.00
C100   C     0.19105   0.52859   0.27960   0.00000  Uiso   1.00
C101   C     0.10755   0.62071   0.38216   0.00000  Uiso   1.00
C102   C     0.19038   0.31018   0.11284   0.00000  Uiso   1.00
C103   C     0.29551   0.25396   0.09998   0.00000  Uiso   1.00
C104   C     0.21203   0.20300   0.10511   0.00000  Uiso   1.00
C105   C     0.14067   0.10667   0.10666   0.00000  Uiso   1.00
C106   C     0.91900   0.38116   0.14212   0.00000  Uiso   1.00
C107   C     0.97784   0.38504   0.07899   0.00000  Uiso   1.00
C108   C     0.86855   0.39278   0.04105   0.00000  Uiso   1.00
C109   C     0.94787   0.39521   0.98506   0.00000  Uiso   1.00
C110   C     0.00051   0.43668   0.19526   0.00000  Uiso   1.00
C111   C     0.91028   0.48783   0.25509   0.00000  Uiso   1.00
C112   C     0.00867   0.53373   0.29699   0.00000  Uiso   1.00
C113   C     0.00832   0.31531   0.13020   0.00000  Uiso   1.00
C114   C     0.92467   0.26442   0.13535   0.00000  Uiso   1.00
C115   C     0.02965   0.20814   0.12250   0.00000  Uiso   1.00
H116   H     0.39591   0.36772   0.09663   0.00000  Uiso   1.00
H117   H     0.38028   0.37836   0.99226   0.00000  Uiso   1.00
H118   H     0.42200   0.47339   0.20627   0.00000  Uiso   1.00
H119   H     0.43639   0.25001   0.08655   0.00000  Uiso   1.00
H120   H     0.28266   0.39243   0.88422   0.00000  Uiso   1.00
H121   H     0.37064   0.59281   0.33548   0.00000  Uiso   1.00
H122   H     0.40098   0.12177   0.08302   0.00000  Uiso   1.00
H123   H     0.77726   0.38516   0.15564   0.00000  Uiso   1.00
H124   H     0.72767   0.39675   0.05450   0.00000  Uiso   1.00
H125   H     0.76940   0.49178   0.26851   0.00000  Uiso   1.00
H126   H     0.78378   0.26841   0.14879   0.00000  Uiso   1.00
H127   H     0.75298   0.40736   0.93473   0.00000  Uiso   1.00
H128   H     0.84096   0.60774   0.38600   0.00000  Uiso   1.00
H129   H     0.87130   0.13670   0.13354   0.00000  Uiso   1.00
O130   O     0.99636   0.40723   0.84189   0.00000  Uiso   1.00
O131   O     0.11180   0.67010   0.43394   0.00000  Uiso   1.00
O132   O     0.15160   0.05211   0.10272   0.00000  Uiso   1.00
N133   N     0.16480   0.39434   0.90998   0.00000  Uiso   1.00
N134   N     0.24706   0.58169   0.33188   0.00000  Uiso   1.00
N135   N     0.27543   0.14131   0.09587   0.00000  Uiso   1.00
N136   N     0.87979   0.40238   0.93716   0.00000  Uiso   1.00
N137   N     0.96204   0.58972   0.35906   0.00000  Uiso   1.00
N138   N     0.99041   0.14934   0.12305   0.00000  Uiso   1.00
C139   C     0.62566   0.10067   0.74512   0.00000  Uiso   1.00
C140   C     0.76932   0.05449   0.68729   0.00000  Uiso   1.00
C141   C     0.74531   0.99705   0.63104   0.00000  Uiso   1.00
C142   C     0.89339   0.96166   0.58378   0.00000  Uiso   1.00
C143   C     0.09118   0.88673   0.49264   0.00000  Uiso   1.00
C144   C     0.63896   0.17045   0.75255   0.00000  Uiso   1.00
C145   C     0.50534   0.21050   0.75117   0.00000  Uiso   1.00
C146   C     0.54368   0.27273   0.75886   0.00000  Uiso   1.00
C147   C     0.53905   0.37783   0.76909   0.00000  Uiso   1.00
C148   C     0.67817   0.10402   0.80656   0.00000  Uiso   1.00
C149   C     0.57752   0.08825   0.85060   0.00000  Uiso   1.00
C150   C     0.64886   0.09457   0.90376   0.00000  Uiso   1.00
C151   C     0.70512   0.09655   0.99784   0.00000  Uiso   1.00
C152   C     0.93132   0.13998   0.76123   0.00000  Uiso   1.00
C153   C     0.93533   0.07584   0.69605   0.00000  Uiso   1.00
C154   C     0.08349   0.04054   0.64886   0.00000  Uiso   1.00
C155   C     0.05971   0.98305   0.59255   0.00000  Uiso   1.00
C156   C     0.80497   0.19180   0.76130   0.00000  Uiso   1.00
C157   C     0.84352   0.25399   0.76900   0.00000  Uiso   1.00
C158   C     0.71000   0.29412   0.76763   0.00000  Uiso   1.00
C159   C     0.84420   0.12537   0.81531   0.00000  Uiso   1.00
C160   C     0.91570   0.13173   0.86842   0.00000  Uiso   1.00
C161   C     0.81518   0.11596   0.91253   0.00000  Uiso   1.00
H162   H     0.49640   0.08405   0.73831   0.00000  Uiso   1.00
H163   H     0.61681   0.98054   0.62428   0.00000  Uiso   1.00
H164   H     0.37687   0.19396   0.74441   0.00000  Uiso   1.00
H165   H     0.44905   0.07173   0.84381   0.00000  Uiso   1.00
H166   H     0.82351   0.87521   0.50171   0.00000  Uiso   1.00
H167   H     0.31757   0.32523   0.75502   0.00000  Uiso   1.00
H168   H     0.46975   0.06747   0.96463   0.00000  Uiso   1.00
H169   H     0.06058   0.15661   0.76805   0.00000  Uiso   1.00
H170   H     0.21195   0.05707   0.65565   0.00000  Uiso   1.00
H171   H     0.97201   0.27049   0.77577   0.00000  Uiso   1.00
H172   H     0.04418   0.14826   0.87518   0.00000  Uiso   1.00
H173   H     0.30654   0.93733   0.52716   0.00000  Uiso   1.00
H174   H     0.80060   0.38734   0.78048   0.00000  Uiso   1.00
H175   H     0.95279   0.12959   0.99009   0.00000  Uiso   1.00
O176   O     0.15441   0.83950   0.43995   0.00000  Uiso   1.00
O177   O     0.49063   0.42990   0.77230   0.00000  Uiso   1.00
O178   O     0.69030   0.09173   0.04730   0.00000  Uiso   1.00
N179   N     0.91642   0.90348   0.52313   0.00000  Uiso   1.00
N180   N     0.44341   0.32422   0.75995   0.00000  Uiso   1.00
N181   N     0.58567   0.08325   0.95593   0.00000  Uiso   1.00
N182   N     0.17634   0.93691   0.53683   0.00000  Uiso   1.00
N183   N     0.70333   0.35764   0.77365   0.00000  Uiso   1.00
N184   N     0.84558   0.11668   0.96963   0.00000  Uiso   1.00
C185   C     0.37797   0.24741   0.36419   0.00000  Uiso   1.00
C186   C     0.47133   0.30871   0.37374   0.00000  Uiso   1.00
C187   C     0.39982   0.36491   0.37392   0.00000  Uiso   1.00
C188   C     0.50653   0.41566   0.38344   0.00000  Uiso   1.00
C189   C     0.62531   0.51168   0.39693   0.00000  Uiso   1.00
C190   C     0.38871   0.23947   0.42458   0.00000  Uiso   1.00
C191   C     0.24773   0.23744   0.46751   0.00000  Uiso   1.00
C192   C     0.28489   0.22988   0.51982   0.00000  Uiso   1.00
C193   C     0.27539   0.21835   0.61221   0.00000  Uiso   1.00
C194   C     0.49088   0.18732   0.30562   0.00000  Uiso   1.00
C195   C     0.43580   0.14142   0.24853   0.00000  Uiso   1.00
C196   C     0.55898   0.08995   0.20069   0.00000  Uiso   1.00
C197   C     0.70812   0.99743   0.10838   0.00000  Uiso   1.00
C198   C     0.69465   0.23759   0.38076   0.00000  Uiso   1.00
C199   C     0.64334   0.30338   0.38274   0.00000  Uiso   1.00
C200   C     0.75019   0.35405   0.39225   0.00000  Uiso   1.00
C201   C     0.67885   0.41032   0.39245   0.00000  Uiso   1.00
C202   C     0.56071   0.23414   0.43358   0.00000  Uiso   1.00
C203   C     0.59810   0.22658   0.48584   0.00000  Uiso   1.00
C204   C     0.45721   0.22454   0.52884   0.00000  Uiso   1.00
C205   C     0.66289   0.18198   0.31462   0.00000  Uiso   1.00
C206   C     0.78618   0.13056   0.26686   0.00000  Uiso   1.00
C207   C     0.73130   0.08460   0.20971   0.00000  Uiso   1.00
H208   H     0.24405   0.25156   0.35719   0.00000  Uiso   1.00
H209   H     0.26670   0.36902   0.36697   0.00000  Uiso   1.00
H210   H     0.11463   0.24156   0.46053   0.00000  Uiso   1.00
H211   H     0.30268   0.14556   0.24159   0.00000  Uiso   1.00
H212   H     0.36764   0.49692   0.38180   0.00000  Uiso   1.00
H213   H     0.04700   0.22813   0.57907   0.00000  Uiso   1.00
H214   H     0.44354   0.02570   0.11738   0.00000  Uiso   1.00
H215   H     0.82857   0.23344   0.38777   0.00000  Uiso   1.00
H216   H     0.88330   0.34991   0.39922   0.00000  Uiso   1.00
H217   H     0.73122   0.22245   0.49279   0.00000  Uiso   1.00
H218   H     0.91927   0.12645   0.27384   0.00000  Uiso   1.00
H219   H     0.86809   0.48141   0.40798   0.00000  Uiso   1.00
H220   H     0.54745   0.21262   0.60525   0.00000  Uiso   1.00
H221   H     0.94399   0.01019   0.14356   0.00000  Uiso   1.00
O222   O     0.64330   0.56612   0.40189   0.00000  Uiso   1.00
O223   O     0.22263   0.21347   0.66070   0.00000  Uiso   1.00
O224   O     0.74288   0.94789   0.05498   0.00000  Uiso   1.00
N225   N     0.47792   0.47728   0.38637   0.00000  Uiso   1.00
N226   N     0.17814   0.22599   0.57082   0.00000  Uiso   1.00
N227   N     0.54886   0.03672   0.13919   0.00000  Uiso   1.00
N228   N     0.74721   0.46893   0.40046   0.00000  Uiso   1.00
N229   N     0.44743   0.21764   0.58490   0.00000  Uiso   1.00
N230   N     0.81815   0.02837   0.15327   0.00000  Uiso   1.00
C231   C     0.74582   0.62829   0.88985   0.00000  Uiso   1.00
C232   C     0.84010   0.62010   0.93838   0.00000  Uiso   1.00
C233   C     0.76062   0.61768   0.99432   0.00000  Uiso   1.00
C234   C     0.86975   0.60993   0.03233   0.00000  Uiso   1.00
C235   C     0.98845   0.59796   0.11031   0.00000  Uiso   1.00
C236   C     0.81744   0.56846   0.82211   0.00000  Uiso   1.00
C237   C     0.71888   0.52262   0.78028   0.00000  Uiso   1.00
C238   C     0.80895   0.47141   0.72040   0.00000  Uiso   1.00
C239   C     0.89245   0.37929   0.61784   0.00000  Uiso   1.00
C240   C     0.80962   0.68983   0.88716   0.00000  Uiso   1.00
C241   C     0.70449   0.74604   0.90002   0.00000  Uiso   1.00
C242   C     0.78797   0.79701   0.89490   0.00000  Uiso   1.00
C243   C     0.85933   0.89334   0.89334   0.00000  Uiso   1.00
C244   C     0.08100   0.61884   0.85788   0.00000  Uiso   1.00
C245   C     0.02216   0.61496   0.92101   0.00000  Uiso   1.00
C246   C     0.13145   0.60722   0.95895   0.00000  Uiso   1.00
C247   C     0.05213   0.60479   0.01494   0.00000  Uiso   1.00
C248   C     0.99949   0.56332   0.80474   0.00000  Uiso   1.00
C249   C     0.08972   0.51217   0.74491   0.00000  Uiso   1.00
C250   C     0.99133   0.46627   0.70301   0.00000  Uiso   1.00
C251   C     0.99168   0.68470   0.86980   0.00000  Uiso   1.00
C252   C     0.07533   0.73558   0.86465   0.00000  Uiso   1.00
C253   C     0.97035   0.79186   0.87750   0.00000  Uiso   1.00
H254   H     0.60409   0.63228   0.90337   0.00000  Uiso   1.00
H255   H     0.61972   0.62165   0.00774   0.00000  Uiso   1.00
H256   H     0.57800   0.52661   0.79373   0.00000  Uiso   1.00
H257   H     0.56361   0.74999   0.91345   0.00000  Uiso   1.00
H258   H     0.71734   0.60757   0.11578   0.00000  Uiso   1.00
H259   H     0.62936   0.40719   0.66452   0.00000  Uiso   1.00
H260   H     0.59902   0.87824   0.91698   0.00000  Uiso   1.00
H261   H     0.22274   0.61484   0.84436   0.00000  Uiso   1.00
H262   H     0.27233   0.60325   0.94550   0.00000  Uiso   1.00
H263   H     0.23060   0.50822   0.73149   0.00000  Uiso   1.00
H264   H     0.21622   0.73160   0.85121   0.00000  Uiso   1.00
H265   H     0.24702   0.59264   0.06527   0.00000  Uiso   1.00
H266   H     0.15904   0.39226   0.61400   0.00000  Uiso   1.00
H267   H     0.12870   0.86330   0.86646   0.00000  Uiso   1.00
O268   O     0.00364   0.59277   0.15811   0.00000  Uiso   1.00
O269   O     0.88820   0.32990   0.56606   0.00000  Uiso   1.00
O270   O     0.84840   0.94789   0.89728   0.00000  Uiso   1.00
N271   N     0.83520   0.60566   0.09002   0.00000  Uiso   1.00
N272   N     0.75294   0.41831   0.66812   0.00000  Uiso   1.00
N273   N     0.72457   0.85869   0.90413   0.00000  Uiso   1.00
N274   N     0.12021   0.59762   0.06284   0.00000  Uiso   1.00
N275   N     0.03796   0.41028   0.64094   0.00000  Uiso   1.00
N276   N     0.00959   0.85066   0.87695   0.00000  Uiso   1.00
