data_job_04031
_audit_creation_date              2018-12-19
_audit_creation_method            'Materials Studio'
_symmetry_space_group_name_H-M    'P1'
_symmetry_Int_Tables_number       1
_symmetry_cell_setting            triclinic
loop_
_symmetry_equiv_pos_as_xyz
  x,y,z
_cell_length_a                    22.9620
_cell_length_b                    12.7776
_cell_length_c                    29.8263
_cell_angle_alpha                 90.0000
_cell_angle_beta                  90.0000
_cell_angle_gamma                 90.0000
loop_
_atom_site_label
_atom_site_type_symbol
_atom_site_fract_x
_atom_site_fract_y
_atom_site_fract_z
_atom_site_U_iso_or_equiv
_atom_site_adp_type
_atom_site_occupancy
C1     C     0.49033   0.86355   0.31127   0.00000  Uiso   1.00
C2     C     0.51112   0.96689   0.33122   0.00000  Uiso   1.00
C3     C     0.55694   0.02715   0.31528   0.00000  Uiso   1.00
C4     C     0.56913   0.11913   0.33822   0.00000  Uiso   1.00
C5     C     0.60637   0.27492   0.36351   0.00000  Uiso   1.00
C6     C     0.49297   0.78381   0.34925   0.00000  Uiso   1.00
C7     C     0.52354   0.69012   0.34847   0.00000  Uiso   1.00
C8     C     0.52045   0.62798   0.38658   0.00000  Uiso   1.00
C9     C     0.52949   0.49949   0.43985   0.00000  Uiso   1.00
C10    C     0.42590   0.87847   0.30067   0.00000  Uiso   1.00
C11    C     0.40006   0.86436   0.25904   0.00000  Uiso   1.00
C12    C     0.34049   0.88189   0.25625   0.00000  Uiso   1.00
C13    C     0.24538   0.90038   0.23409   0.00000  Uiso   1.00
C14    C     0.43049   0.91976   0.38034   0.00000  Uiso   1.00
C15    C     0.47861   0.99742   0.36874   0.00000  Uiso   1.00
C16    C     0.49074   0.08933   0.39170   0.00000  Uiso   1.00
C17    C     0.53657   0.14972   0.37580   0.00000  Uiso   1.00
C18    C     0.46047   0.81433   0.38677   0.00000  Uiso   1.00
C19    C     0.45734   0.75231   0.42489   0.00000  Uiso   1.00
C20    C     0.48789   0.65856   0.42417   0.00000  Uiso   1.00
C21    C     0.39339   0.90900   0.33818   0.00000  Uiso   1.00
C22    C     0.33385   0.92655   0.33546   0.00000  Uiso   1.00
C23    C     0.30793   0.91247   0.29384   0.00000  Uiso   1.00
H24    H     0.51563   0.83978   0.28206   0.00000  Uiso   1.00
H25    H     0.58209   0.00349   0.28625   0.00000  Uiso   1.00
H26    H     0.54868   0.66652   0.31943   0.00000  Uiso   1.00
H27    H     0.42522   0.84073   0.23002   0.00000  Uiso   1.00
H28    H     0.64144   0.19844   0.30745   0.00000  Uiso   1.00
H29    H     0.57100   0.48789   0.37741   0.00000  Uiso   1.00
H30    H     0.31065   0.85525   0.18886   0.00000  Uiso   1.00
H31    H     0.40519   0.94353   0.40955   0.00000  Uiso   1.00
H32    H     0.46558   0.11294   0.42073   0.00000  Uiso   1.00
H33    H     0.43218   0.77596   0.45391   0.00000  Uiso   1.00
H34    H     0.30872   0.95017   0.36450   0.00000  Uiso   1.00
H35    H     0.54688   0.28727   0.41660   0.00000  Uiso   1.00
H36    H     0.47643   0.57671   0.48656   0.00000  Uiso   1.00
H37    H     0.21609   0.94408   0.29801   0.00000  Uiso   1.00
O38    O     0.63589   0.35240   0.36709   0.00000  Uiso   1.00
O39    O     0.54346   0.42019   0.45887   0.00000  Uiso   1.00
O40    O     0.20190   0.90216   0.21150   0.00000  Uiso   1.00
N41    N     0.61089   0.19610   0.33160   0.00000  Uiso   1.00
N42    N     0.54504   0.53179   0.39701   0.00000  Uiso   1.00
N43    N     0.30163   0.87522   0.22073   0.00000  Uiso   1.00
N44    N     0.56001   0.24390   0.39033   0.00000  Uiso   1.00
N45    N     0.49415   0.57959   0.45574   0.00000  Uiso   1.00
N46    N     0.25075   0.92302   0.27947   0.00000  Uiso   1.00
C47    C     0.00967   0.63645   0.31127   0.00000  Uiso   1.00
C48    C     0.98888   0.53311   0.33122   0.00000  Uiso   1.00
C49    C     0.94306   0.47285   0.31528   0.00000  Uiso   1.00
C50    C     0.93087   0.38087   0.33822   0.00000  Uiso   1.00
C51    C     0.89363   0.22508   0.36351   0.00000  Uiso   1.00
C52    C     0.00703   0.71619   0.34925   0.00000  Uiso   1.00
C53    C     0.97646   0.80988   0.34847   0.00000  Uiso   1.00
C54    C     0.97955   0.87202   0.38658   0.00000  Uiso   1.00
C55    C     0.97051   0.00051   0.43985   0.00000  Uiso   1.00
C56    C     0.07410   0.62153   0.30067   0.00000  Uiso   1.00
C57    C     0.09994   0.63564   0.25904   0.00000  Uiso   1.00
C58    C     0.15951   0.61811   0.25625   0.00000  Uiso   1.00
C59    C     0.25462   0.59962   0.23409   0.00000  Uiso   1.00
C60    C     0.06951   0.58024   0.38034   0.00000  Uiso   1.00
C61    C     0.02139   0.50258   0.36874   0.00000  Uiso   1.00
C62    C     0.00926   0.41067   0.39170   0.00000  Uiso   1.00
C63    C     0.96343   0.35028   0.37580   0.00000  Uiso   1.00
C64    C     0.03953   0.68567   0.38677   0.00000  Uiso   1.00
C65    C     0.04266   0.74769   0.42489   0.00000  Uiso   1.00
C66    C     0.01211   0.84144   0.42417   0.00000  Uiso   1.00
C67    C     0.10661   0.59100   0.33818   0.00000  Uiso   1.00
C68    C     0.16615   0.57345   0.33546   0.00000  Uiso   1.00
C69    C     0.19207   0.58753   0.29384   0.00000  Uiso   1.00
H70    H     0.98437   0.66022   0.28206   0.00000  Uiso   1.00
H71    H     0.91791   0.49651   0.28625   0.00000  Uiso   1.00
H72    H     0.95132   0.83348   0.31943   0.00000  Uiso   1.00
H73    H     0.07478   0.65927   0.23002   0.00000  Uiso   1.00
H74    H     0.85856   0.30156   0.30745   0.00000  Uiso   1.00
H75    H     0.92900   0.01211   0.37741   0.00000  Uiso   1.00
H76    H     0.18935   0.64475   0.18886   0.00000  Uiso   1.00
H77    H     0.09481   0.55647   0.40955   0.00000  Uiso   1.00
H78    H     0.03442   0.38706   0.42073   0.00000  Uiso   1.00
H79    H     0.06782   0.72404   0.45391   0.00000  Uiso   1.00
H80    H     0.19128   0.54983   0.36450   0.00000  Uiso   1.00
H81    H     0.95312   0.21273   0.41660   0.00000  Uiso   1.00
H82    H     0.02357   0.92329   0.48656   0.00000  Uiso   1.00
H83    H     0.28391   0.55592   0.29801   0.00000  Uiso   1.00
O84    O     0.86411   0.14760   0.36709   0.00000  Uiso   1.00
O85    O     0.95654   0.07981   0.45887   0.00000  Uiso   1.00
O86    O     0.29810   0.59784   0.21150   0.00000  Uiso   1.00
N87    N     0.88911   0.30390   0.33160   0.00000  Uiso   1.00
N88    N     0.95496   0.96821   0.39701   0.00000  Uiso   1.00
N89    N     0.19837   0.62478   0.22073   0.00000  Uiso   1.00
N90    N     0.93999   0.25610   0.39033   0.00000  Uiso   1.00
N91    N     0.00585   0.92041   0.45574   0.00000  Uiso   1.00
N92    N     0.24925   0.57698   0.27947   0.00000  Uiso   1.00
C93    C     0.50967   0.36355   0.18873   0.00000  Uiso   1.00
C94    C     0.48888   0.46689   0.16878   0.00000  Uiso   1.00
C95    C     0.44306   0.52715   0.18472   0.00000  Uiso   1.00
C96    C     0.43087   0.61913   0.16178   0.00000  Uiso   1.00
C97    C     0.39363   0.77492   0.13649   0.00000  Uiso   1.00
C98    C     0.50703   0.28381   0.15075   0.00000  Uiso   1.00
C99    C     0.47646   0.19012   0.15153   0.00000  Uiso   1.00
C100   C     0.47955   0.12798   0.11342   0.00000  Uiso   1.00
C101   C     0.47051   0.99949   0.06015   0.00000  Uiso   1.00
C102   C     0.57410   0.37847   0.19933   0.00000  Uiso   1.00
C103   C     0.59994   0.36436   0.24096   0.00000  Uiso   1.00
C104   C     0.65951   0.38189   0.24375   0.00000  Uiso   1.00
C105   C     0.75462   0.40038   0.26591   0.00000  Uiso   1.00
C106   C     0.56951   0.41976   0.11966   0.00000  Uiso   1.00
C107   C     0.52139   0.49742   0.13126   0.00000  Uiso   1.00
C108   C     0.50926   0.58933   0.10830   0.00000  Uiso   1.00
C109   C     0.46343   0.64972   0.12420   0.00000  Uiso   1.00
C110   C     0.53953   0.31433   0.11323   0.00000  Uiso   1.00
C111   C     0.54266   0.25231   0.07511   0.00000  Uiso   1.00
C112   C     0.51211   0.15856   0.07583   0.00000  Uiso   1.00
C113   C     0.60661   0.40900   0.16182   0.00000  Uiso   1.00
C114   C     0.66615   0.42655   0.16454   0.00000  Uiso   1.00
C115   C     0.69207   0.41247   0.20616   0.00000  Uiso   1.00
H116   H     0.48437   0.33978   0.21794   0.00000  Uiso   1.00
H117   H     0.41791   0.50349   0.21375   0.00000  Uiso   1.00
H118   H     0.45132   0.16652   0.18057   0.00000  Uiso   1.00
H119   H     0.57478   0.34073   0.26998   0.00000  Uiso   1.00
H120   H     0.35856   0.69844   0.19255   0.00000  Uiso   1.00
H121   H     0.42900   0.98789   0.12259   0.00000  Uiso   1.00
H122   H     0.68935   0.35525   0.31114   0.00000  Uiso   1.00
H123   H     0.59481   0.44353   0.09045   0.00000  Uiso   1.00
H124   H     0.53442   0.61294   0.07927   0.00000  Uiso   1.00
H125   H     0.56782   0.27596   0.04609   0.00000  Uiso   1.00
H126   H     0.69128   0.45017   0.13550   0.00000  Uiso   1.00
H127   H     0.45312   0.78727   0.08340   0.00000  Uiso   1.00
H128   H     0.52357   0.07671   0.01344   0.00000  Uiso   1.00
H129   H     0.78391   0.44408   0.20199   0.00000  Uiso   1.00
O130   O     0.36411   0.85240   0.13291   0.00000  Uiso   1.00
O131   O     0.45654   0.92019   0.04113   0.00000  Uiso   1.00
O132   O     0.79810   0.40216   0.28850   0.00000  Uiso   1.00
N133   N     0.38911   0.69610   0.16840   0.00000  Uiso   1.00
N134   N     0.45496   0.03179   0.10299   0.00000  Uiso   1.00
N135   N     0.69837   0.37522   0.27927   0.00000  Uiso   1.00
N136   N     0.43999   0.74390   0.10967   0.00000  Uiso   1.00
N137   N     0.50585   0.07959   0.04426   0.00000  Uiso   1.00
N138   N     0.74925   0.42302   0.22053   0.00000  Uiso   1.00
C139   C     0.99033   0.13645   0.18873   0.00000  Uiso   1.00
C140   C     0.01112   0.03311   0.16878   0.00000  Uiso   1.00
C141   C     0.05694   0.97285   0.18472   0.00000  Uiso   1.00
C142   C     0.06913   0.88087   0.16178   0.00000  Uiso   1.00
C143   C     0.10637   0.72508   0.13649   0.00000  Uiso   1.00
C144   C     0.99297   0.21619   0.15075   0.00000  Uiso   1.00
C145   C     0.02354   0.30988   0.15153   0.00000  Uiso   1.00
C146   C     0.02045   0.37202   0.11342   0.00000  Uiso   1.00
C147   C     0.02949   0.50051   0.06015   0.00000  Uiso   1.00
C148   C     0.92590   0.12153   0.19933   0.00000  Uiso   1.00
C149   C     0.90006   0.13564   0.24096   0.00000  Uiso   1.00
C150   C     0.84049   0.11811   0.24375   0.00000  Uiso   1.00
C151   C     0.74538   0.09962   0.26591   0.00000  Uiso   1.00
C152   C     0.93049   0.08024   0.11966   0.00000  Uiso   1.00
C153   C     0.97861   0.00258   0.13126   0.00000  Uiso   1.00
C154   C     0.99074   0.91067   0.10830   0.00000  Uiso   1.00
C155   C     0.03657   0.85028   0.12420   0.00000  Uiso   1.00
C156   C     0.96047   0.18567   0.11323   0.00000  Uiso   1.00
C157   C     0.95734   0.24769   0.07511   0.00000  Uiso   1.00
C158   C     0.98789   0.34144   0.07583   0.00000  Uiso   1.00
C159   C     0.89339   0.09100   0.16182   0.00000  Uiso   1.00
C160   C     0.83385   0.07345   0.16454   0.00000  Uiso   1.00
C161   C     0.80793   0.08753   0.20616   0.00000  Uiso   1.00
H162   H     0.01563   0.16022   0.21794   0.00000  Uiso   1.00
H163   H     0.08209   0.99651   0.21375   0.00000  Uiso   1.00
H164   H     0.04868   0.33348   0.18057   0.00000  Uiso   1.00
H165   H     0.92522   0.15927   0.26998   0.00000  Uiso   1.00
H166   H     0.14144   0.80156   0.19255   0.00000  Uiso   1.00
H167   H     0.07100   0.51211   0.12259   0.00000  Uiso   1.00
H168   H     0.81065   0.14475   0.31114   0.00000  Uiso   1.00
H169   H     0.90519   0.05647   0.09045   0.00000  Uiso   1.00
H170   H     0.96558   0.88706   0.07927   0.00000  Uiso   1.00
H171   H     0.93218   0.22404   0.04609   0.00000  Uiso   1.00
H172   H     0.80872   0.04983   0.13550   0.00000  Uiso   1.00
H173   H     0.04688   0.71273   0.08340   0.00000  Uiso   1.00
H174   H     0.97643   0.42329   0.01344   0.00000  Uiso   1.00
H175   H     0.71609   0.05592   0.20199   0.00000  Uiso   1.00
O176   O     0.13589   0.64760   0.13291   0.00000  Uiso   1.00
O177   O     0.04346   0.57981   0.04113   0.00000  Uiso   1.00
O178   O     0.70190   0.09784   0.28850   0.00000  Uiso   1.00
N179   N     0.11089   0.80390   0.16840   0.00000  Uiso   1.00
N180   N     0.04504   0.46821   0.10299   0.00000  Uiso   1.00
N181   N     0.80163   0.12478   0.27927   0.00000  Uiso   1.00
N182   N     0.06001   0.75610   0.10967   0.00000  Uiso   1.00
N183   N     0.99415   0.42041   0.04426   0.00000  Uiso   1.00
N184   N     0.75075   0.07698   0.22053   0.00000  Uiso   1.00
C185   C     0.50967   0.13645   0.68873   0.00000  Uiso   1.00
C186   C     0.48888   0.03311   0.66878   0.00000  Uiso   1.00
C187   C     0.44306   0.97285   0.68472   0.00000  Uiso   1.00
C188   C     0.43087   0.88087   0.66178   0.00000  Uiso   1.00
C189   C     0.39363   0.72508   0.63649   0.00000  Uiso   1.00
C190   C     0.50703   0.21619   0.65075   0.00000  Uiso   1.00
C191   C     0.47646   0.30988   0.65153   0.00000  Uiso   1.00
C192   C     0.47955   0.37202   0.61342   0.00000  Uiso   1.00
C193   C     0.47051   0.50051   0.56015   0.00000  Uiso   1.00
C194   C     0.57410   0.12153   0.69933   0.00000  Uiso   1.00
C195   C     0.59994   0.13564   0.74096   0.00000  Uiso   1.00
C196   C     0.65951   0.11811   0.74375   0.00000  Uiso   1.00
C197   C     0.75462   0.09962   0.76591   0.00000  Uiso   1.00
C198   C     0.56951   0.08024   0.61966   0.00000  Uiso   1.00
C199   C     0.52139   0.00258   0.63126   0.00000  Uiso   1.00
C200   C     0.50926   0.91067   0.60830   0.00000  Uiso   1.00
C201   C     0.46343   0.85028   0.62420   0.00000  Uiso   1.00
C202   C     0.53953   0.18567   0.61323   0.00000  Uiso   1.00
C203   C     0.54266   0.24769   0.57511   0.00000  Uiso   1.00
C204   C     0.51211   0.34144   0.57583   0.00000  Uiso   1.00
C205   C     0.60661   0.09100   0.66182   0.00000  Uiso   1.00
C206   C     0.66615   0.07345   0.66454   0.00000  Uiso   1.00
C207   C     0.69207   0.08753   0.70616   0.00000  Uiso   1.00
H208   H     0.48437   0.16022   0.71794   0.00000  Uiso   1.00
H209   H     0.41791   0.99651   0.71375   0.00000  Uiso   1.00
H210   H     0.45132   0.33348   0.68057   0.00000  Uiso   1.00
H211   H     0.57478   0.15927   0.76998   0.00000  Uiso   1.00
H212   H     0.35856   0.80156   0.69255   0.00000  Uiso   1.00
H213   H     0.42900   0.51211   0.62259   0.00000  Uiso   1.00
H214   H     0.68935   0.14475   0.81114   0.00000  Uiso   1.00
H215   H     0.59481   0.05647   0.59045   0.00000  Uiso   1.00
H216   H     0.53442   0.88706   0.57927   0.00000  Uiso   1.00
H217   H     0.56782   0.22404   0.54609   0.00000  Uiso   1.00
H218   H     0.69128   0.04983   0.63550   0.00000  Uiso   1.00
H219   H     0.45312   0.71273   0.58340   0.00000  Uiso   1.00
H220   H     0.52357   0.42329   0.51344   0.00000  Uiso   1.00
H221   H     0.78391   0.05592   0.70199   0.00000  Uiso   1.00
O222   O     0.36411   0.64760   0.63291   0.00000  Uiso   1.00
O223   O     0.45654   0.57981   0.54113   0.00000  Uiso   1.00
O224   O     0.79810   0.09784   0.78850   0.00000  Uiso   1.00
N225   N     0.38911   0.80390   0.66840   0.00000  Uiso   1.00
N226   N     0.45496   0.46821   0.60299   0.00000  Uiso   1.00
N227   N     0.69837   0.12478   0.77927   0.00000  Uiso   1.00
N228   N     0.43999   0.75610   0.60967   0.00000  Uiso   1.00
N229   N     0.50585   0.42041   0.54426   0.00000  Uiso   1.00
N230   N     0.74925   0.07698   0.72053   0.00000  Uiso   1.00
C231   C     0.99033   0.36355   0.68873   0.00000  Uiso   1.00
C232   C     0.01112   0.46689   0.66878   0.00000  Uiso   1.00
C233   C     0.05694   0.52715   0.68472   0.00000  Uiso   1.00
C234   C     0.06913   0.61913   0.66178   0.00000  Uiso   1.00
C235   C     0.10637   0.77492   0.63649   0.00000  Uiso   1.00
C236   C     0.99297   0.28381   0.65075   0.00000  Uiso   1.00
C237   C     0.02354   0.19012   0.65153   0.00000  Uiso   1.00
C238   C     0.02045   0.12798   0.61342   0.00000  Uiso   1.00
C239   C     0.02949   0.99949   0.56015   0.00000  Uiso   1.00
C240   C     0.92590   0.37847   0.69933   0.00000  Uiso   1.00
C241   C     0.90006   0.36436   0.74096   0.00000  Uiso   1.00
C242   C     0.84049   0.38189   0.74375   0.00000  Uiso   1.00
C243   C     0.74538   0.40038   0.76591   0.00000  Uiso   1.00
C244   C     0.93049   0.41976   0.61966   0.00000  Uiso   1.00
C245   C     0.97861   0.49742   0.63126   0.00000  Uiso   1.00
C246   C     0.99074   0.58933   0.60830   0.00000  Uiso   1.00
C247   C     0.03657   0.64972   0.62420   0.00000  Uiso   1.00
C248   C     0.96047   0.31433   0.61323   0.00000  Uiso   1.00
C249   C     0.95734   0.25231   0.57511   0.00000  Uiso   1.00
C250   C     0.98789   0.15856   0.57583   0.00000  Uiso   1.00
C251   C     0.89339   0.40900   0.66182   0.00000  Uiso   1.00
C252   C     0.83385   0.42655   0.66454   0.00000  Uiso   1.00
C253   C     0.80793   0.41247   0.70616   0.00000  Uiso   1.00
H254   H     0.01563   0.33978   0.71794   0.00000  Uiso   1.00
H255   H     0.08209   0.50349   0.71375   0.00000  Uiso   1.00
H256   H     0.04868   0.16652   0.68057   0.00000  Uiso   1.00
H257   H     0.92522   0.34073   0.76998   0.00000  Uiso   1.00
H258   H     0.14144   0.69844   0.69255   0.00000  Uiso   1.00
H259   H     0.07100   0.98789   0.62259   0.00000  Uiso   1.00
H260   H     0.81065   0.35525   0.81114   0.00000  Uiso   1.00
H261   H     0.90519   0.44353   0.59045   0.00000  Uiso   1.00
H262   H     0.96558   0.61294   0.57927   0.00000  Uiso   1.00
H263   H     0.93218   0.27596   0.54609   0.00000  Uiso   1.00
H264   H     0.80872   0.45017   0.63550   0.00000  Uiso   1.00
H265   H     0.04688   0.78727   0.58340   0.00000  Uiso   1.00
H266   H     0.97643   0.07671   0.51344   0.00000  Uiso   1.00
H267   H     0.71609   0.44408   0.70199   0.00000  Uiso   1.00
O268   O     0.13589   0.85240   0.63291   0.00000  Uiso   1.00
O269   O     0.04346   0.92019   0.54113   0.00000  Uiso   1.00
O270   O     0.70190   0.40216   0.78850   0.00000  Uiso   1.00
N271   N     0.11089   0.69610   0.66840   0.00000  Uiso   1.00
N272   N     0.04504   0.03179   0.60299   0.00000  Uiso   1.00
N273   N     0.80163   0.37522   0.77927   0.00000  Uiso   1.00
N274   N     0.06001   0.74390   0.60967   0.00000  Uiso   1.00
N275   N     0.99415   0.07959   0.54426   0.00000  Uiso   1.00
N276   N     0.75075   0.42302   0.72053   0.00000  Uiso   1.00
C277   C     0.49033   0.63645   0.81127   0.00000  Uiso   1.00
C278   C     0.51112   0.53311   0.83122   0.00000  Uiso   1.00
C279   C     0.55694   0.47285   0.81528   0.00000  Uiso   1.00
C280   C     0.56913   0.38087   0.83822   0.00000  Uiso   1.00
C281   C     0.60637   0.22508   0.86351   0.00000  Uiso   1.00
C282   C     0.49297   0.71619   0.84925   0.00000  Uiso   1.00
C283   C     0.52354   0.80988   0.84847   0.00000  Uiso   1.00
C284   C     0.52045   0.87202   0.88658   0.00000  Uiso   1.00
C285   C     0.52949   0.00051   0.93985   0.00000  Uiso   1.00
C286   C     0.42590   0.62153   0.80067   0.00000  Uiso   1.00
C287   C     0.40006   0.63564   0.75904   0.00000  Uiso   1.00
C288   C     0.34049   0.61811   0.75625   0.00000  Uiso   1.00
C289   C     0.24538   0.59962   0.73409   0.00000  Uiso   1.00
C290   C     0.43049   0.58024   0.88034   0.00000  Uiso   1.00
C291   C     0.47861   0.50258   0.86874   0.00000  Uiso   1.00
C292   C     0.49074   0.41067   0.89170   0.00000  Uiso   1.00
C293   C     0.53657   0.35028   0.87580   0.00000  Uiso   1.00
C294   C     0.46047   0.68567   0.88677   0.00000  Uiso   1.00
C295   C     0.45734   0.74769   0.92489   0.00000  Uiso   1.00
C296   C     0.48789   0.84144   0.92417   0.00000  Uiso   1.00
C297   C     0.39339   0.59100   0.83818   0.00000  Uiso   1.00
C298   C     0.33385   0.57345   0.83546   0.00000  Uiso   1.00
C299   C     0.30793   0.58753   0.79384   0.00000  Uiso   1.00
H300   H     0.51563   0.66022   0.78206   0.00000  Uiso   1.00
H301   H     0.58209   0.49651   0.78625   0.00000  Uiso   1.00
H302   H     0.54868   0.83348   0.81943   0.00000  Uiso   1.00
H303   H     0.42522   0.65927   0.73002   0.00000  Uiso   1.00
H304   H     0.64144   0.30156   0.80745   0.00000  Uiso   1.00
H305   H     0.57100   0.01211   0.87741   0.00000  Uiso   1.00
H306   H     0.31065   0.64475   0.68886   0.00000  Uiso   1.00
H307   H     0.40519   0.55647   0.90955   0.00000  Uiso   1.00
H308   H     0.46558   0.38706   0.92073   0.00000  Uiso   1.00
H309   H     0.43218   0.72404   0.95391   0.00000  Uiso   1.00
H310   H     0.30872   0.54983   0.86450   0.00000  Uiso   1.00
H311   H     0.54688   0.21273   0.91660   0.00000  Uiso   1.00
H312   H     0.47643   0.92329   0.98656   0.00000  Uiso   1.00
H313   H     0.21609   0.55592   0.79801   0.00000  Uiso   1.00
O314   O     0.63589   0.14760   0.86709   0.00000  Uiso   1.00
O315   O     0.54346   0.07981   0.95887   0.00000  Uiso   1.00
O316   O     0.20190   0.59784   0.71150   0.00000  Uiso   1.00
N317   N     0.61089   0.30390   0.83160   0.00000  Uiso   1.00
N318   N     0.54504   0.96821   0.89701   0.00000  Uiso   1.00
N319   N     0.30163   0.62478   0.72073   0.00000  Uiso   1.00
N320   N     0.56001   0.25610   0.89033   0.00000  Uiso   1.00
N321   N     0.49415   0.92041   0.95574   0.00000  Uiso   1.00
N322   N     0.25075   0.57698   0.77947   0.00000  Uiso   1.00
C323   C     0.00967   0.86355   0.81127   0.00000  Uiso   1.00
C324   C     0.98888   0.96689   0.83122   0.00000  Uiso   1.00
C325   C     0.94306   0.02715   0.81528   0.00000  Uiso   1.00
C326   C     0.93087   0.11913   0.83822   0.00000  Uiso   1.00
C327   C     0.89363   0.27492   0.86351   0.00000  Uiso   1.00
C328   C     0.00703   0.78381   0.84925   0.00000  Uiso   1.00
C329   C     0.97646   0.69012   0.84847   0.00000  Uiso   1.00
C330   C     0.97955   0.62798   0.88658   0.00000  Uiso   1.00
C331   C     0.97051   0.49949   0.93985   0.00000  Uiso   1.00
C332   C     0.07410   0.87847   0.80067   0.00000  Uiso   1.00
C333   C     0.09994   0.86436   0.75904   0.00000  Uiso   1.00
C334   C     0.15951   0.88189   0.75625   0.00000  Uiso   1.00
C335   C     0.25462   0.90038   0.73409   0.00000  Uiso   1.00
C336   C     0.06951   0.91976   0.88034   0.00000  Uiso   1.00
C337   C     0.02139   0.99742   0.86874   0.00000  Uiso   1.00
C338   C     0.00926   0.08933   0.89170   0.00000  Uiso   1.00
C339   C     0.96343   0.14972   0.87580   0.00000  Uiso   1.00
C340   C     0.03953   0.81433   0.88677   0.00000  Uiso   1.00
C341   C     0.04266   0.75231   0.92489   0.00000  Uiso   1.00
C342   C     0.01211   0.65856   0.92417   0.00000  Uiso   1.00
C343   C     0.10661   0.90900   0.83818   0.00000  Uiso   1.00
C344   C     0.16615   0.92655   0.83546   0.00000  Uiso   1.00
C345   C     0.19207   0.91247   0.79384   0.00000  Uiso   1.00
H346   H     0.98437   0.83978   0.78206   0.00000  Uiso   1.00
H347   H     0.91791   0.00349   0.78625   0.00000  Uiso   1.00
H348   H     0.95132   0.66652   0.81943   0.00000  Uiso   1.00
H349   H     0.07478   0.84073   0.73002   0.00000  Uiso   1.00
H350   H     0.85856   0.19844   0.80745   0.00000  Uiso   1.00
H351   H     0.92900   0.48789   0.87741   0.00000  Uiso   1.00
H352   H     0.18935   0.85525   0.68886   0.00000  Uiso   1.00
H353   H     0.09481   0.94353   0.90955   0.00000  Uiso   1.00
H354   H     0.03442   0.11294   0.92073   0.00000  Uiso   1.00
H355   H     0.06782   0.77596   0.95391   0.00000  Uiso   1.00
H356   H     0.19128   0.95017   0.86450   0.00000  Uiso   1.00
H357   H     0.95312   0.28727   0.91660   0.00000  Uiso   1.00
H358   H     0.02357   0.57671   0.98656   0.00000  Uiso   1.00
H359   H     0.28391   0.94408   0.79801   0.00000  Uiso   1.00
O360   O     0.86411   0.35240   0.86709   0.00000  Uiso   1.00
O361   O     0.95654   0.42019   0.95887   0.00000  Uiso   1.00
O362   O     0.29810   0.90216   0.71150   0.00000  Uiso   1.00
N363   N     0.88911   0.19610   0.83160   0.00000  Uiso   1.00
N364   N     0.95496   0.53179   0.89701   0.00000  Uiso   1.00
N365   N     0.19837   0.87522   0.72073   0.00000  Uiso   1.00
N366   N     0.93999   0.24390   0.89033   0.00000  Uiso   1.00
N367   N     0.00585   0.57959   0.95574   0.00000  Uiso   1.00
N368   N     0.24925   0.92302   0.77947   0.00000  Uiso   1.00
