data_job_03648
_audit_creation_date              2018-12-19
_audit_creation_method            'Materials Studio'
_symmetry_space_group_name_H-M    'P1'
_symmetry_Int_Tables_number       1
_symmetry_cell_setting            triclinic
loop_
_symmetry_equiv_pos_as_xyz
  x,y,z
_cell_length_a                    21.6894
_cell_length_b                    7.3824
_cell_length_c                    34.8692
_cell_angle_alpha                 90.0000
_cell_angle_beta                  148.4340
_cell_angle_gamma                 90.0000
loop_
_atom_site_label
_atom_site_type_symbol
_atom_site_fract_x
_atom_site_fract_y
_atom_site_fract_z
_atom_site_U_iso_or_equiv
_atom_site_adp_type
_atom_site_occupancy
C1     C     0.95957   0.05456   0.58492   0.00000  Uiso   1.00
C2     C     0.86992   0.04050   0.56983   0.00000  Uiso   1.00
C3     C     0.80194   0.18168   0.54797   0.00000  Uiso   1.00
C4     C     0.72510   0.14117   0.53700   0.00000  Uiso   1.00
C5     C     0.58722   0.14604   0.51201   0.00000  Uiso   1.00
C6     C     0.07584   0.98648   0.66301   0.00000  Uiso   1.00
C7     C     0.18101   0.08223   0.71949   0.00000  Uiso   1.00
C8     C     0.27752   0.99622   0.78696   0.00000  Uiso   1.00
C9     C     0.45937   0.91718   0.90662   0.00000  Uiso   1.00
C10    C     0.92226   0.91536   0.53521   0.00000  Uiso   1.00
C11    C     0.89832   0.95130   0.48424   0.00000  Uiso   1.00
C12    C     0.86555   0.80540   0.44412   0.00000  Uiso   1.00
C13    C     0.80894   0.61594   0.36534   0.00000  Uiso   1.00
C14    C     0.94397   0.73156   0.60431   0.00000  Uiso   1.00
C15    C     0.86145   0.86506   0.58037   0.00000  Uiso   1.00
C16    C     0.78468   0.82432   0.56943   0.00000  Uiso   1.00
C17    C     0.71660   0.96541   0.54755   0.00000  Uiso   1.00
C18    C     0.06738   0.81104   0.67355   0.00000  Uiso   1.00
C19    C     0.16375   0.72487   0.74095   0.00000  Uiso   1.00
C20    C     0.26903   0.82047   0.79752   0.00000  Uiso   1.00
C21    C     0.91379   0.73991   0.54574   0.00000  Uiso   1.00
C22    C     0.88106   0.59394   0.50569   0.00000  Uiso   1.00
C23    C     0.85707   0.62965   0.45467   0.00000  Uiso   1.00
H24    H     0.96617   0.19115   0.57672   0.00000  Uiso   1.00
H25    H     0.80853   0.31744   0.53983   0.00000  Uiso   1.00
H26    H     0.18754   0.21799   0.71132   0.00000  Uiso   1.00
H27    H     0.90489   0.08708   0.47610   0.00000  Uiso   1.00
H28    H     0.63005   0.38009   0.50360   0.00000  Uiso   1.00
H29    H     0.42923   0.17038   0.86519   0.00000  Uiso   1.00
H30    H     0.83321   0.89434   0.36919   0.00000  Uiso   1.00
H31    H     0.93738   0.59496   0.61251   0.00000  Uiso   1.00
H32    H     0.77815   0.68854   0.57758   0.00000  Uiso   1.00
H33    H     0.15716   0.58910   0.74908   0.00000  Uiso   1.00
H34    H     0.87451   0.45819   0.51386   0.00000  Uiso   1.00
H35    H     0.60540   0.86966   0.53425   0.00000  Uiso   1.00
H36    H     0.40458   0.65995   0.89584   0.00000  Uiso   1.00
H37    H     0.80855   0.38390   0.39984   0.00000  Uiso   1.00
O38    O     0.51353   0.19720   0.49533   0.00000  Uiso   1.00
O39    O     0.56202   0.92206   0.96971   0.00000  Uiso   1.00
O40    O     0.78004   0.55990   0.31897   0.00000  Uiso   1.00
N41    N     0.64608   0.24711   0.51559   0.00000  Uiso   1.00
N42    N     0.39326   0.05106   0.85366   0.00000  Uiso   1.00
N43    N     0.83606   0.79297   0.38996   0.00000  Uiso   1.00
N44    N     0.63281   0.97245   0.53208   0.00000  Uiso   1.00
N45    N     0.37999   0.77640   0.87015   0.00000  Uiso   1.00
N46    N     0.82279   0.51831   0.40645   0.00000  Uiso   1.00
C47    C     0.04043   0.55456   0.91508   0.00000  Uiso   1.00
C48    C     0.13008   0.54050   0.93017   0.00000  Uiso   1.00
C49    C     0.19806   0.68168   0.95203   0.00000  Uiso   1.00
C50    C     0.27490   0.64117   0.96300   0.00000  Uiso   1.00
C51    C     0.41278   0.64604   0.98799   0.00000  Uiso   1.00
C52    C     0.92416   0.48648   0.83699   0.00000  Uiso   1.00
C53    C     0.81899   0.58223   0.78051   0.00000  Uiso   1.00
C54    C     0.72248   0.49622   0.71304   0.00000  Uiso   1.00
C55    C     0.54063   0.41718   0.59338   0.00000  Uiso   1.00
C56    C     0.07774   0.41536   0.96479   0.00000  Uiso   1.00
C57    C     0.10168   0.45130   0.01576   0.00000  Uiso   1.00
C58    C     0.13445   0.30540   0.05588   0.00000  Uiso   1.00
C59    C     0.19106   0.11594   0.13466   0.00000  Uiso   1.00
C60    C     0.05603   0.23156   0.89569   0.00000  Uiso   1.00
C61    C     0.13855   0.36506   0.91963   0.00000  Uiso   1.00
C62    C     0.21532   0.32432   0.93057   0.00000  Uiso   1.00
C63    C     0.28340   0.46541   0.95245   0.00000  Uiso   1.00
C64    C     0.93262   0.31104   0.82645   0.00000  Uiso   1.00
C65    C     0.83625   0.22487   0.75905   0.00000  Uiso   1.00
C66    C     0.73097   0.32047   0.70248   0.00000  Uiso   1.00
C67    C     0.08621   0.23991   0.95426   0.00000  Uiso   1.00
C68    C     0.11894   0.09394   0.99431   0.00000  Uiso   1.00
C69    C     0.14293   0.12965   0.04533   0.00000  Uiso   1.00
H70    H     0.03383   0.69115   0.92328   0.00000  Uiso   1.00
H71    H     0.19147   0.81744   0.96017   0.00000  Uiso   1.00
H72    H     0.81246   0.71799   0.78868   0.00000  Uiso   1.00
H73    H     0.09511   0.58708   0.02390   0.00000  Uiso   1.00
H74    H     0.36995   0.88009   0.99640   0.00000  Uiso   1.00
H75    H     0.57077   0.67038   0.63481   0.00000  Uiso   1.00
H76    H     0.16679   0.39434   0.13081   0.00000  Uiso   1.00
H77    H     0.06262   0.09496   0.88749   0.00000  Uiso   1.00
H78    H     0.22185   0.18854   0.92242   0.00000  Uiso   1.00
H79    H     0.84284   0.08910   0.75092   0.00000  Uiso   1.00
H80    H     0.12549   0.95819   0.98614   0.00000  Uiso   1.00
H81    H     0.39460   0.36966   0.96575   0.00000  Uiso   1.00
H82    H     0.59542   0.15995   0.60416   0.00000  Uiso   1.00
H83    H     0.19145   0.88390   0.10016   0.00000  Uiso   1.00
O84    O     0.48647   0.69720   0.00467   0.00000  Uiso   1.00
O85    O     0.43798   0.42206   0.53029   0.00000  Uiso   1.00
O86    O     0.21996   0.05990   0.18103   0.00000  Uiso   1.00
N87    N     0.35392   0.74711   0.98441   0.00000  Uiso   1.00
N88    N     0.60674   0.55106   0.64634   0.00000  Uiso   1.00
N89    N     0.16394   0.29297   0.11004   0.00000  Uiso   1.00
N90    N     0.36719   0.47245   0.96792   0.00000  Uiso   1.00
N91    N     0.62001   0.27640   0.62985   0.00000  Uiso   1.00
N92    N     0.17721   0.01831   0.09355   0.00000  Uiso   1.00
C93    C     0.04043   0.94544   0.41508   0.00000  Uiso   1.00
C94    C     0.13008   0.95950   0.43017   0.00000  Uiso   1.00
C95    C     0.19806   0.81832   0.45203   0.00000  Uiso   1.00
C96    C     0.27490   0.85883   0.46300   0.00000  Uiso   1.00
C97    C     0.41278   0.85396   0.48799   0.00000  Uiso   1.00
C98    C     0.92416   0.01352   0.33699   0.00000  Uiso   1.00
C99    C     0.81899   0.91777   0.28051   0.00000  Uiso   1.00
C100   C     0.72248   0.00378   0.21304   0.00000  Uiso   1.00
C101   C     0.54063   0.08282   0.09338   0.00000  Uiso   1.00
C102   C     0.07774   0.08464   0.46479   0.00000  Uiso   1.00
C103   C     0.10168   0.04870   0.51576   0.00000  Uiso   1.00
C104   C     0.13445   0.19460   0.55588   0.00000  Uiso   1.00
C105   C     0.19106   0.38406   0.63466   0.00000  Uiso   1.00
C106   C     0.05603   0.26844   0.39569   0.00000  Uiso   1.00
C107   C     0.13855   0.13494   0.41963   0.00000  Uiso   1.00
C108   C     0.21532   0.17568   0.43057   0.00000  Uiso   1.00
C109   C     0.28340   0.03459   0.45245   0.00000  Uiso   1.00
C110   C     0.93262   0.18896   0.32645   0.00000  Uiso   1.00
C111   C     0.83625   0.27513   0.25905   0.00000  Uiso   1.00
C112   C     0.73097   0.17953   0.20248   0.00000  Uiso   1.00
C113   C     0.08621   0.26009   0.45426   0.00000  Uiso   1.00
C114   C     0.11894   0.40606   0.49431   0.00000  Uiso   1.00
C115   C     0.14293   0.37035   0.54533   0.00000  Uiso   1.00
H116   H     0.03383   0.80885   0.42328   0.00000  Uiso   1.00
H117   H     0.19147   0.68256   0.46017   0.00000  Uiso   1.00
H118   H     0.81246   0.78201   0.28868   0.00000  Uiso   1.00
H119   H     0.09511   0.91292   0.52390   0.00000  Uiso   1.00
H120   H     0.36995   0.61991   0.49640   0.00000  Uiso   1.00
H121   H     0.57077   0.82962   0.13481   0.00000  Uiso   1.00
H122   H     0.16679   0.10566   0.63081   0.00000  Uiso   1.00
H123   H     0.06262   0.40504   0.38749   0.00000  Uiso   1.00
H124   H     0.22185   0.31146   0.42242   0.00000  Uiso   1.00
H125   H     0.84284   0.41090   0.25092   0.00000  Uiso   1.00
H126   H     0.12549   0.54181   0.48614   0.00000  Uiso   1.00
H127   H     0.39460   0.13034   0.46575   0.00000  Uiso   1.00
H128   H     0.59542   0.34005   0.10416   0.00000  Uiso   1.00
H129   H     0.19145   0.61610   0.60016   0.00000  Uiso   1.00
O130   O     0.48647   0.80280   0.50467   0.00000  Uiso   1.00
O131   O     0.43798   0.07794   0.03029   0.00000  Uiso   1.00
O132   O     0.21996   0.44010   0.68103   0.00000  Uiso   1.00
N133   N     0.35392   0.75289   0.48441   0.00000  Uiso   1.00
N134   N     0.60674   0.94894   0.14634   0.00000  Uiso   1.00
N135   N     0.16394   0.20703   0.61004   0.00000  Uiso   1.00
N136   N     0.36719   0.02755   0.46792   0.00000  Uiso   1.00
N137   N     0.62001   0.22360   0.12985   0.00000  Uiso   1.00
N138   N     0.17721   0.48169   0.59355   0.00000  Uiso   1.00
C139   C     0.95957   0.44544   0.08492   0.00000  Uiso   1.00
C140   C     0.86992   0.45950   0.06983   0.00000  Uiso   1.00
C141   C     0.80194   0.31832   0.04797   0.00000  Uiso   1.00
C142   C     0.72510   0.35883   0.03700   0.00000  Uiso   1.00
C143   C     0.58722   0.35396   0.01201   0.00000  Uiso   1.00
C144   C     0.07584   0.51352   0.16301   0.00000  Uiso   1.00
C145   C     0.18101   0.41777   0.21949   0.00000  Uiso   1.00
C146   C     0.27752   0.50378   0.28696   0.00000  Uiso   1.00
C147   C     0.45937   0.58282   0.40662   0.00000  Uiso   1.00
C148   C     0.92226   0.58464   0.03521   0.00000  Uiso   1.00
C149   C     0.89832   0.54870   0.98424   0.00000  Uiso   1.00
C150   C     0.86555   0.69460   0.94412   0.00000  Uiso   1.00
C151   C     0.80894   0.88406   0.86534   0.00000  Uiso   1.00
C152   C     0.94397   0.76844   0.10431   0.00000  Uiso   1.00
C153   C     0.86145   0.63494   0.08037   0.00000  Uiso   1.00
C154   C     0.78468   0.67568   0.06943   0.00000  Uiso   1.00
C155   C     0.71660   0.53459   0.04755   0.00000  Uiso   1.00
C156   C     0.06738   0.68896   0.17355   0.00000  Uiso   1.00
C157   C     0.16375   0.77513   0.24095   0.00000  Uiso   1.00
C158   C     0.26903   0.67953   0.29752   0.00000  Uiso   1.00
C159   C     0.91379   0.76009   0.04574   0.00000  Uiso   1.00
C160   C     0.88106   0.90606   0.00569   0.00000  Uiso   1.00
C161   C     0.85707   0.87035   0.95467   0.00000  Uiso   1.00
H162   H     0.96617   0.30885   0.07672   0.00000  Uiso   1.00
H163   H     0.80853   0.18256   0.03983   0.00000  Uiso   1.00
H164   H     0.18754   0.28201   0.21132   0.00000  Uiso   1.00
H165   H     0.90489   0.41292   0.97610   0.00000  Uiso   1.00
H166   H     0.63005   0.11991   0.00360   0.00000  Uiso   1.00
H167   H     0.42923   0.32962   0.36519   0.00000  Uiso   1.00
H168   H     0.83321   0.60566   0.86919   0.00000  Uiso   1.00
H169   H     0.93738   0.90504   0.11251   0.00000  Uiso   1.00
H170   H     0.77815   0.81146   0.07758   0.00000  Uiso   1.00
H171   H     0.15716   0.91090   0.24908   0.00000  Uiso   1.00
H172   H     0.87451   0.04181   0.01386   0.00000  Uiso   1.00
H173   H     0.60540   0.63034   0.03425   0.00000  Uiso   1.00
H174   H     0.40458   0.84005   0.39584   0.00000  Uiso   1.00
H175   H     0.80855   0.11610   0.89984   0.00000  Uiso   1.00
O176   O     0.51353   0.30280   0.99533   0.00000  Uiso   1.00
O177   O     0.56202   0.57794   0.46971   0.00000  Uiso   1.00
O178   O     0.78004   0.94010   0.81897   0.00000  Uiso   1.00
N179   N     0.64608   0.25289   0.01559   0.00000  Uiso   1.00
N180   N     0.39326   0.44894   0.35366   0.00000  Uiso   1.00
N181   N     0.83606   0.70703   0.88996   0.00000  Uiso   1.00
N182   N     0.63281   0.52755   0.03208   0.00000  Uiso   1.00
N183   N     0.37999   0.72360   0.37015   0.00000  Uiso   1.00
N184   N     0.82279   0.98169   0.90645   0.00000  Uiso   1.00
