data_job_03059
_audit_creation_date              2018-12-19
_audit_creation_method            'Materials Studio'
_symmetry_space_group_name_H-M    'P1'
_symmetry_Int_Tables_number       1
_symmetry_cell_setting            triclinic
loop_
_symmetry_equiv_pos_as_xyz
  x,y,z
_cell_length_a                    16.7420
_cell_length_b                    22.8971
_cell_length_c                    20.5287
_cell_angle_alpha                 90.0000
_cell_angle_beta                  90.0000
_cell_angle_gamma                 90.0000
loop_
_atom_site_label
_atom_site_type_symbol
_atom_site_fract_x
_atom_site_fract_y
_atom_site_fract_z
_atom_site_U_iso_or_equiv
_atom_site_adp_type
_atom_site_occupancy
C1     C     0.64384   0.67525   0.94605   0.00000  Uiso   1.00
C2     C     0.64271   0.66133   0.01869   0.00000  Uiso   1.00
C3     C     0.61833   0.69897   0.06780   0.00000  Uiso   1.00
C4     C     0.62179   0.67800   0.13119   0.00000  Uiso   1.00
C5     C     0.61599   0.66499   0.24189   0.00000  Uiso   1.00
C6     C     0.72941   0.66478   0.92346   0.00000  Uiso   1.00
C7     C     0.77793   0.70534   0.89248   0.00000  Uiso   1.00
C8     C     0.85437   0.68727   0.87570   0.00000  Uiso   1.00
C9     C     0.98316   0.67962   0.83851   0.00000  Uiso   1.00
C10    C     0.59331   0.62825   0.91333   0.00000  Uiso   1.00
C11    C     0.52740   0.63808   0.87382   0.00000  Uiso   1.00
C12    C     0.48927   0.58925   0.84850   0.00000  Uiso   1.00
C13    C     0.40674   0.52488   0.79558   0.00000  Uiso   1.00
C14    C     0.69333   0.57106   0.97131   0.00000  Uiso   1.00
C15    C     0.66960   0.60473   0.03241   0.00000  Uiso   1.00
C16    C     0.67309   0.58369   0.09574   0.00000  Uiso   1.00
C17    C     0.64872   0.62130   0.14494   0.00000  Uiso   1.00
C18    C     0.75630   0.60819   0.93718   0.00000  Uiso   1.00
C19    C     0.83269   0.59006   0.92043   0.00000  Uiso   1.00
C20    C     0.88130   0.63057   0.88945   0.00000  Uiso   1.00
C21    C     0.62019   0.57165   0.92705   0.00000  Uiso   1.00
C22    C     0.58216   0.52280   0.90178   0.00000  Uiso   1.00
C23    C     0.51620   0.53255   0.86224   0.00000  Uiso   1.00
H24    H     0.62291   0.71932   0.93537   0.00000  Uiso   1.00
H25    H     0.59754   0.74277   0.05716   0.00000  Uiso   1.00
H26    H     0.75710   0.74913   0.88187   0.00000  Uiso   1.00
H27    H     0.50661   0.68188   0.86322   0.00000  Uiso   1.00
H28    H     0.58129   0.74382   0.19824   0.00000  Uiso   1.00
H29    H     0.91773   0.75723   0.82861   0.00000  Uiso   1.00
H30    H     0.38953   0.61543   0.78927   0.00000  Uiso   1.00
H31    H     0.71426   0.52699   0.98199   0.00000  Uiso   1.00
H32    H     0.69390   0.53989   0.10635   0.00000  Uiso   1.00
H33    H     0.85347   0.54625   0.93105   0.00000  Uiso   1.00
H34    H     0.60298   0.47901   0.91240   0.00000  Uiso   1.00
H35    H     0.65950   0.57916   0.23816   0.00000  Uiso   1.00
H36    H     0.99595   0.59256   0.86853   0.00000  Uiso   1.00
H37    H     0.46774   0.45076   0.82919   0.00000  Uiso   1.00
O38    O     0.60537   0.67345   0.29916   0.00000  Uiso   1.00
O39    O     0.04677   0.69104   0.81421   0.00000  Uiso   1.00
O40    O     0.35378   0.50500   0.76261   0.00000  Uiso   1.00
N41    N     0.60247   0.70329   0.19057   0.00000  Uiso   1.00
N42    N     0.91704   0.71583   0.84499   0.00000  Uiso   1.00
N43    N     0.42322   0.58326   0.80821   0.00000  Uiso   1.00
N44    N     0.64456   0.61469   0.21205   0.00000  Uiso   1.00
N45    N     0.95912   0.62723   0.86648   0.00000  Uiso   1.00
N46    N     0.46531   0.49466   0.82969   0.00000  Uiso   1.00
C47    C     0.85616   0.82475   0.44605   0.00000  Uiso   1.00
C48    C     0.85729   0.83867   0.51869   0.00000  Uiso   1.00
C49    C     0.88167   0.80103   0.56780   0.00000  Uiso   1.00
C50    C     0.87821   0.82200   0.63119   0.00000  Uiso   1.00
C51    C     0.88401   0.83501   0.74189   0.00000  Uiso   1.00
C52    C     0.77059   0.83522   0.42346   0.00000  Uiso   1.00
C53    C     0.72207   0.79466   0.39248   0.00000  Uiso   1.00
C54    C     0.64563   0.81273   0.37570   0.00000  Uiso   1.00
C55    C     0.51684   0.82038   0.33851   0.00000  Uiso   1.00
C56    C     0.90669   0.87175   0.41333   0.00000  Uiso   1.00
C57    C     0.97260   0.86192   0.37382   0.00000  Uiso   1.00
C58    C     0.01073   0.91075   0.34850   0.00000  Uiso   1.00
C59    C     0.09326   0.97512   0.29558   0.00000  Uiso   1.00
C60    C     0.80667   0.92894   0.47131   0.00000  Uiso   1.00
C61    C     0.83040   0.89527   0.53241   0.00000  Uiso   1.00
C62    C     0.82691   0.91631   0.59574   0.00000  Uiso   1.00
C63    C     0.85128   0.87870   0.64494   0.00000  Uiso   1.00
C64    C     0.74370   0.89181   0.43718   0.00000  Uiso   1.00
C65    C     0.66731   0.90994   0.42043   0.00000  Uiso   1.00
C66    C     0.61870   0.86943   0.38945   0.00000  Uiso   1.00
C67    C     0.87981   0.92835   0.42705   0.00000  Uiso   1.00
C68    C     0.91784   0.97720   0.40178   0.00000  Uiso   1.00
C69    C     0.98380   0.96745   0.36224   0.00000  Uiso   1.00
H70    H     0.87709   0.78068   0.43537   0.00000  Uiso   1.00
H71    H     0.90246   0.75723   0.55716   0.00000  Uiso   1.00
H72    H     0.74290   0.75087   0.38187   0.00000  Uiso   1.00
H73    H     0.99339   0.81812   0.36322   0.00000  Uiso   1.00
H74    H     0.91871   0.75618   0.69824   0.00000  Uiso   1.00
H75    H     0.58227   0.74277   0.32861   0.00000  Uiso   1.00
H76    H     0.11047   0.88457   0.28927   0.00000  Uiso   1.00
H77    H     0.78574   0.97301   0.48199   0.00000  Uiso   1.00
H78    H     0.80610   0.96011   0.60635   0.00000  Uiso   1.00
H79    H     0.64653   0.95375   0.43105   0.00000  Uiso   1.00
H80    H     0.89702   0.02099   0.41240   0.00000  Uiso   1.00
H81    H     0.84050   0.92084   0.73816   0.00000  Uiso   1.00
H82    H     0.50405   0.90744   0.36853   0.00000  Uiso   1.00
H83    H     0.03226   0.04924   0.32919   0.00000  Uiso   1.00
O84    O     0.89463   0.82655   0.79916   0.00000  Uiso   1.00
O85    O     0.45323   0.80896   0.31421   0.00000  Uiso   1.00
O86    O     0.14622   0.99500   0.26261   0.00000  Uiso   1.00
N87    N     0.89753   0.79671   0.69057   0.00000  Uiso   1.00
N88    N     0.58296   0.78417   0.34499   0.00000  Uiso   1.00
N89    N     0.07678   0.91674   0.30821   0.00000  Uiso   1.00
N90    N     0.85544   0.88531   0.71205   0.00000  Uiso   1.00
N91    N     0.54088   0.87277   0.36648   0.00000  Uiso   1.00
N92    N     0.03469   0.00534   0.32969   0.00000  Uiso   1.00
C93    C     0.35616   0.67525   0.55395   0.00000  Uiso   1.00
C94    C     0.35729   0.66133   0.48131   0.00000  Uiso   1.00
C95    C     0.38167   0.69897   0.43220   0.00000  Uiso   1.00
C96    C     0.37821   0.67800   0.36881   0.00000  Uiso   1.00
C97    C     0.38401   0.66499   0.25811   0.00000  Uiso   1.00
C98    C     0.27059   0.66478   0.57654   0.00000  Uiso   1.00
C99    C     0.22207   0.70534   0.60752   0.00000  Uiso   1.00
C100   C     0.14563   0.68727   0.62430   0.00000  Uiso   1.00
C101   C     0.01684   0.67962   0.66149   0.00000  Uiso   1.00
C102   C     0.40669   0.62825   0.58667   0.00000  Uiso   1.00
C103   C     0.47260   0.63808   0.62618   0.00000  Uiso   1.00
C104   C     0.51073   0.58925   0.65150   0.00000  Uiso   1.00
C105   C     0.59326   0.52488   0.70442   0.00000  Uiso   1.00
C106   C     0.30667   0.57106   0.52869   0.00000  Uiso   1.00
C107   C     0.33040   0.60473   0.46759   0.00000  Uiso   1.00
C108   C     0.32691   0.58369   0.40426   0.00000  Uiso   1.00
C109   C     0.35128   0.62130   0.35506   0.00000  Uiso   1.00
C110   C     0.24370   0.60819   0.56282   0.00000  Uiso   1.00
C111   C     0.16731   0.59006   0.57957   0.00000  Uiso   1.00
C112   C     0.11870   0.63057   0.61055   0.00000  Uiso   1.00
C113   C     0.37981   0.57165   0.57295   0.00000  Uiso   1.00
C114   C     0.41784   0.52280   0.59822   0.00000  Uiso   1.00
C115   C     0.48380   0.53255   0.63776   0.00000  Uiso   1.00
H116   H     0.37709   0.71932   0.56463   0.00000  Uiso   1.00
H117   H     0.40246   0.74277   0.44284   0.00000  Uiso   1.00
H118   H     0.24290   0.74913   0.61813   0.00000  Uiso   1.00
H119   H     0.49339   0.68188   0.63678   0.00000  Uiso   1.00
H120   H     0.41871   0.74382   0.30176   0.00000  Uiso   1.00
H121   H     0.08227   0.75723   0.67139   0.00000  Uiso   1.00
H122   H     0.61047   0.61543   0.71073   0.00000  Uiso   1.00
H123   H     0.28574   0.52699   0.51801   0.00000  Uiso   1.00
H124   H     0.30610   0.53989   0.39365   0.00000  Uiso   1.00
H125   H     0.14653   0.54625   0.56895   0.00000  Uiso   1.00
H126   H     0.39702   0.47901   0.58760   0.00000  Uiso   1.00
H127   H     0.34050   0.57916   0.26184   0.00000  Uiso   1.00
H128   H     0.00405   0.59256   0.63147   0.00000  Uiso   1.00
H129   H     0.53226   0.45076   0.67081   0.00000  Uiso   1.00
O130   O     0.39463   0.67345   0.20084   0.00000  Uiso   1.00
O131   O     0.95323   0.69104   0.68579   0.00000  Uiso   1.00
O132   O     0.64622   0.50500   0.73739   0.00000  Uiso   1.00
N133   N     0.39753   0.70329   0.30943   0.00000  Uiso   1.00
N134   N     0.08296   0.71583   0.65501   0.00000  Uiso   1.00
N135   N     0.57678   0.58326   0.69179   0.00000  Uiso   1.00
N136   N     0.35544   0.61469   0.28795   0.00000  Uiso   1.00
N137   N     0.04088   0.62723   0.63352   0.00000  Uiso   1.00
N138   N     0.53469   0.49466   0.67031   0.00000  Uiso   1.00
C139   C     0.14384   0.82475   0.05395   0.00000  Uiso   1.00
C140   C     0.14271   0.83867   0.98131   0.00000  Uiso   1.00
C141   C     0.11833   0.80103   0.93220   0.00000  Uiso   1.00
C142   C     0.12179   0.82200   0.86881   0.00000  Uiso   1.00
C143   C     0.11599   0.83501   0.75811   0.00000  Uiso   1.00
C144   C     0.22941   0.83522   0.07654   0.00000  Uiso   1.00
C145   C     0.27793   0.79466   0.10752   0.00000  Uiso   1.00
C146   C     0.35437   0.81273   0.12430   0.00000  Uiso   1.00
C147   C     0.48316   0.82038   0.16149   0.00000  Uiso   1.00
C148   C     0.09331   0.87175   0.08667   0.00000  Uiso   1.00
C149   C     0.02740   0.86192   0.12618   0.00000  Uiso   1.00
C150   C     0.98927   0.91075   0.15150   0.00000  Uiso   1.00
C151   C     0.90674   0.97512   0.20442   0.00000  Uiso   1.00
C152   C     0.19333   0.92894   0.02869   0.00000  Uiso   1.00
C153   C     0.16960   0.89527   0.96759   0.00000  Uiso   1.00
C154   C     0.17309   0.91631   0.90426   0.00000  Uiso   1.00
C155   C     0.14872   0.87870   0.85506   0.00000  Uiso   1.00
C156   C     0.25630   0.89181   0.06282   0.00000  Uiso   1.00
C157   C     0.33269   0.90994   0.07957   0.00000  Uiso   1.00
C158   C     0.38130   0.86943   0.11055   0.00000  Uiso   1.00
C159   C     0.12019   0.92835   0.07295   0.00000  Uiso   1.00
C160   C     0.08216   0.97720   0.09822   0.00000  Uiso   1.00
C161   C     0.01620   0.96745   0.13776   0.00000  Uiso   1.00
H162   H     0.12291   0.78068   0.06463   0.00000  Uiso   1.00
H163   H     0.09754   0.75723   0.94284   0.00000  Uiso   1.00
H164   H     0.25710   0.75087   0.11813   0.00000  Uiso   1.00
H165   H     0.00661   0.81812   0.13678   0.00000  Uiso   1.00
H166   H     0.08129   0.75618   0.80176   0.00000  Uiso   1.00
H167   H     0.41773   0.74277   0.17139   0.00000  Uiso   1.00
H168   H     0.88953   0.88457   0.21073   0.00000  Uiso   1.00
H169   H     0.21426   0.97301   0.01801   0.00000  Uiso   1.00
H170   H     0.19390   0.96011   0.89365   0.00000  Uiso   1.00
H171   H     0.35347   0.95375   0.06895   0.00000  Uiso   1.00
H172   H     0.10298   0.02099   0.08760   0.00000  Uiso   1.00
H173   H     0.15950   0.92084   0.76184   0.00000  Uiso   1.00
H174   H     0.49595   0.90744   0.13147   0.00000  Uiso   1.00
H175   H     0.96774   0.04924   0.17081   0.00000  Uiso   1.00
O176   O     0.10537   0.82655   0.70084   0.00000  Uiso   1.00
O177   O     0.54677   0.80896   0.18579   0.00000  Uiso   1.00
O178   O     0.85378   0.99500   0.23739   0.00000  Uiso   1.00
N179   N     0.10247   0.79671   0.80943   0.00000  Uiso   1.00
N180   N     0.41704   0.78417   0.15501   0.00000  Uiso   1.00
N181   N     0.92322   0.91674   0.19179   0.00000  Uiso   1.00
N182   N     0.14456   0.88531   0.78795   0.00000  Uiso   1.00
N183   N     0.45912   0.87277   0.13352   0.00000  Uiso   1.00
N184   N     0.96531   0.00534   0.17031   0.00000  Uiso   1.00
C185   C     0.35616   0.32475   0.05395   0.00000  Uiso   1.00
C186   C     0.35729   0.33867   0.98131   0.00000  Uiso   1.00
C187   C     0.38167   0.30103   0.93220   0.00000  Uiso   1.00
C188   C     0.37821   0.32200   0.86881   0.00000  Uiso   1.00
C189   C     0.38401   0.33501   0.75811   0.00000  Uiso   1.00
C190   C     0.27059   0.33522   0.07654   0.00000  Uiso   1.00
C191   C     0.22207   0.29466   0.10752   0.00000  Uiso   1.00
C192   C     0.14563   0.31273   0.12430   0.00000  Uiso   1.00
C193   C     0.01684   0.32038   0.16149   0.00000  Uiso   1.00
C194   C     0.40669   0.37175   0.08667   0.00000  Uiso   1.00
C195   C     0.47260   0.36192   0.12618   0.00000  Uiso   1.00
C196   C     0.51073   0.41075   0.15150   0.00000  Uiso   1.00
C197   C     0.59326   0.47512   0.20442   0.00000  Uiso   1.00
C198   C     0.30667   0.42894   0.02869   0.00000  Uiso   1.00
C199   C     0.33040   0.39527   0.96759   0.00000  Uiso   1.00
C200   C     0.32691   0.41631   0.90426   0.00000  Uiso   1.00
C201   C     0.35128   0.37870   0.85506   0.00000  Uiso   1.00
C202   C     0.24370   0.39181   0.06282   0.00000  Uiso   1.00
C203   C     0.16731   0.40994   0.07957   0.00000  Uiso   1.00
C204   C     0.11870   0.36943   0.11055   0.00000  Uiso   1.00
C205   C     0.37981   0.42835   0.07295   0.00000  Uiso   1.00
C206   C     0.41784   0.47720   0.09822   0.00000  Uiso   1.00
C207   C     0.48380   0.46745   0.13776   0.00000  Uiso   1.00
H208   H     0.37709   0.28068   0.06463   0.00000  Uiso   1.00
H209   H     0.40246   0.25723   0.94284   0.00000  Uiso   1.00
H210   H     0.24290   0.25087   0.11813   0.00000  Uiso   1.00
H211   H     0.49339   0.31812   0.13678   0.00000  Uiso   1.00
H212   H     0.41871   0.25618   0.80176   0.00000  Uiso   1.00
H213   H     0.08227   0.24277   0.17139   0.00000  Uiso   1.00
H214   H     0.61047   0.38457   0.21073   0.00000  Uiso   1.00
H215   H     0.28574   0.47301   0.01801   0.00000  Uiso   1.00
H216   H     0.30610   0.46011   0.89365   0.00000  Uiso   1.00
H217   H     0.14653   0.45375   0.06895   0.00000  Uiso   1.00
H218   H     0.39702   0.52099   0.08760   0.00000  Uiso   1.00
H219   H     0.34050   0.42084   0.76184   0.00000  Uiso   1.00
H220   H     0.00405   0.40744   0.13147   0.00000  Uiso   1.00
H221   H     0.53226   0.54924   0.17081   0.00000  Uiso   1.00
O222   O     0.39463   0.32655   0.70084   0.00000  Uiso   1.00
O223   O     0.95323   0.30896   0.18579   0.00000  Uiso   1.00
O224   O     0.64622   0.49500   0.23739   0.00000  Uiso   1.00
N225   N     0.39753   0.29671   0.80943   0.00000  Uiso   1.00
N226   N     0.08296   0.28417   0.15501   0.00000  Uiso   1.00
N227   N     0.57678   0.41674   0.19179   0.00000  Uiso   1.00
N228   N     0.35544   0.38531   0.78795   0.00000  Uiso   1.00
N229   N     0.04088   0.37277   0.13352   0.00000  Uiso   1.00
N230   N     0.53469   0.50534   0.17031   0.00000  Uiso   1.00
C231   C     0.14384   0.17525   0.55395   0.00000  Uiso   1.00
C232   C     0.14271   0.16133   0.48131   0.00000  Uiso   1.00
C233   C     0.11833   0.19897   0.43220   0.00000  Uiso   1.00
C234   C     0.12179   0.17800   0.36881   0.00000  Uiso   1.00
C235   C     0.11599   0.16499   0.25811   0.00000  Uiso   1.00
C236   C     0.22941   0.16478   0.57654   0.00000  Uiso   1.00
C237   C     0.27793   0.20534   0.60752   0.00000  Uiso   1.00
C238   C     0.35437   0.18727   0.62430   0.00000  Uiso   1.00
C239   C     0.48316   0.17962   0.66149   0.00000  Uiso   1.00
C240   C     0.09331   0.12825   0.58667   0.00000  Uiso   1.00
C241   C     0.02740   0.13808   0.62618   0.00000  Uiso   1.00
C242   C     0.98927   0.08925   0.65150   0.00000  Uiso   1.00
C243   C     0.90674   0.02488   0.70442   0.00000  Uiso   1.00
C244   C     0.19333   0.07106   0.52869   0.00000  Uiso   1.00
C245   C     0.16960   0.10473   0.46759   0.00000  Uiso   1.00
C246   C     0.17309   0.08369   0.40426   0.00000  Uiso   1.00
C247   C     0.14872   0.12130   0.35506   0.00000  Uiso   1.00
C248   C     0.25630   0.10819   0.56282   0.00000  Uiso   1.00
C249   C     0.33269   0.09006   0.57957   0.00000  Uiso   1.00
C250   C     0.38130   0.13057   0.61055   0.00000  Uiso   1.00
C251   C     0.12019   0.07165   0.57295   0.00000  Uiso   1.00
C252   C     0.08216   0.02280   0.59822   0.00000  Uiso   1.00
C253   C     0.01620   0.03255   0.63776   0.00000  Uiso   1.00
H254   H     0.12291   0.21932   0.56463   0.00000  Uiso   1.00
H255   H     0.09754   0.24277   0.44284   0.00000  Uiso   1.00
H256   H     0.25710   0.24913   0.61813   0.00000  Uiso   1.00
H257   H     0.00661   0.18188   0.63678   0.00000  Uiso   1.00
H258   H     0.08129   0.24382   0.30176   0.00000  Uiso   1.00
H259   H     0.41773   0.25723   0.67139   0.00000  Uiso   1.00
H260   H     0.88953   0.11543   0.71073   0.00000  Uiso   1.00
H261   H     0.21426   0.02699   0.51801   0.00000  Uiso   1.00
H262   H     0.19390   0.03989   0.39365   0.00000  Uiso   1.00
H263   H     0.35347   0.04625   0.56895   0.00000  Uiso   1.00
H264   H     0.10298   0.97901   0.58760   0.00000  Uiso   1.00
H265   H     0.15950   0.07916   0.26184   0.00000  Uiso   1.00
H266   H     0.49595   0.09256   0.63147   0.00000  Uiso   1.00
H267   H     0.96774   0.95076   0.67081   0.00000  Uiso   1.00
O268   O     0.10537   0.17345   0.20084   0.00000  Uiso   1.00
O269   O     0.54677   0.19104   0.68579   0.00000  Uiso   1.00
O270   O     0.85378   0.00500   0.73739   0.00000  Uiso   1.00
N271   N     0.10247   0.20329   0.30943   0.00000  Uiso   1.00
N272   N     0.41704   0.21583   0.65501   0.00000  Uiso   1.00
N273   N     0.92322   0.08326   0.69179   0.00000  Uiso   1.00
N274   N     0.14456   0.11469   0.28795   0.00000  Uiso   1.00
N275   N     0.45912   0.12723   0.63352   0.00000  Uiso   1.00
N276   N     0.96531   0.99466   0.67031   0.00000  Uiso   1.00
C277   C     0.64384   0.32475   0.44605   0.00000  Uiso   1.00
C278   C     0.64271   0.33867   0.51869   0.00000  Uiso   1.00
C279   C     0.61833   0.30103   0.56780   0.00000  Uiso   1.00
C280   C     0.62179   0.32200   0.63119   0.00000  Uiso   1.00
C281   C     0.61599   0.33501   0.74189   0.00000  Uiso   1.00
C282   C     0.72941   0.33522   0.42346   0.00000  Uiso   1.00
C283   C     0.77793   0.29466   0.39248   0.00000  Uiso   1.00
C284   C     0.85437   0.31273   0.37570   0.00000  Uiso   1.00
C285   C     0.98316   0.32038   0.33851   0.00000  Uiso   1.00
C286   C     0.59331   0.37175   0.41333   0.00000  Uiso   1.00
C287   C     0.52740   0.36192   0.37382   0.00000  Uiso   1.00
C288   C     0.48927   0.41075   0.34850   0.00000  Uiso   1.00
C289   C     0.40674   0.47512   0.29558   0.00000  Uiso   1.00
C290   C     0.69333   0.42894   0.47131   0.00000  Uiso   1.00
C291   C     0.66960   0.39527   0.53241   0.00000  Uiso   1.00
C292   C     0.67309   0.41631   0.59574   0.00000  Uiso   1.00
C293   C     0.64872   0.37870   0.64494   0.00000  Uiso   1.00
C294   C     0.75630   0.39181   0.43718   0.00000  Uiso   1.00
C295   C     0.83269   0.40994   0.42043   0.00000  Uiso   1.00
C296   C     0.88130   0.36943   0.38945   0.00000  Uiso   1.00
C297   C     0.62019   0.42835   0.42705   0.00000  Uiso   1.00
C298   C     0.58216   0.47720   0.40178   0.00000  Uiso   1.00
C299   C     0.51620   0.46745   0.36224   0.00000  Uiso   1.00
H300   H     0.62291   0.28068   0.43537   0.00000  Uiso   1.00
H301   H     0.59754   0.25723   0.55716   0.00000  Uiso   1.00
H302   H     0.75710   0.25087   0.38187   0.00000  Uiso   1.00
H303   H     0.50661   0.31812   0.36322   0.00000  Uiso   1.00
H304   H     0.58129   0.25618   0.69824   0.00000  Uiso   1.00
H305   H     0.91773   0.24277   0.32861   0.00000  Uiso   1.00
H306   H     0.38953   0.38457   0.28927   0.00000  Uiso   1.00
H307   H     0.71426   0.47301   0.48199   0.00000  Uiso   1.00
H308   H     0.69390   0.46011   0.60635   0.00000  Uiso   1.00
H309   H     0.85347   0.45375   0.43105   0.00000  Uiso   1.00
H310   H     0.60298   0.52099   0.41240   0.00000  Uiso   1.00
H311   H     0.65950   0.42084   0.73816   0.00000  Uiso   1.00
H312   H     0.99595   0.40744   0.36853   0.00000  Uiso   1.00
H313   H     0.46774   0.54924   0.32919   0.00000  Uiso   1.00
O314   O     0.60537   0.32655   0.79916   0.00000  Uiso   1.00
O315   O     0.04677   0.30896   0.31421   0.00000  Uiso   1.00
O316   O     0.35378   0.49500   0.26261   0.00000  Uiso   1.00
N317   N     0.60247   0.29671   0.69057   0.00000  Uiso   1.00
N318   N     0.91704   0.28417   0.34499   0.00000  Uiso   1.00
N319   N     0.42322   0.41674   0.30821   0.00000  Uiso   1.00
N320   N     0.64456   0.38531   0.71205   0.00000  Uiso   1.00
N321   N     0.95912   0.37277   0.36648   0.00000  Uiso   1.00
N322   N     0.46531   0.50534   0.32969   0.00000  Uiso   1.00
C323   C     0.85616   0.17525   0.94605   0.00000  Uiso   1.00
C324   C     0.85729   0.16133   0.01869   0.00000  Uiso   1.00
C325   C     0.88167   0.19897   0.06780   0.00000  Uiso   1.00
C326   C     0.87821   0.17800   0.13119   0.00000  Uiso   1.00
C327   C     0.88401   0.16499   0.24189   0.00000  Uiso   1.00
C328   C     0.77059   0.16478   0.92346   0.00000  Uiso   1.00
C329   C     0.72207   0.20534   0.89248   0.00000  Uiso   1.00
C330   C     0.64563   0.18727   0.87570   0.00000  Uiso   1.00
C331   C     0.51684   0.17962   0.83851   0.00000  Uiso   1.00
C332   C     0.90669   0.12825   0.91333   0.00000  Uiso   1.00
C333   C     0.97260   0.13808   0.87382   0.00000  Uiso   1.00
C334   C     0.01073   0.08925   0.84850   0.00000  Uiso   1.00
C335   C     0.09326   0.02488   0.79558   0.00000  Uiso   1.00
C336   C     0.80667   0.07106   0.97131   0.00000  Uiso   1.00
C337   C     0.83040   0.10473   0.03241   0.00000  Uiso   1.00
C338   C     0.82691   0.08369   0.09574   0.00000  Uiso   1.00
C339   C     0.85128   0.12130   0.14494   0.00000  Uiso   1.00
C340   C     0.74370   0.10819   0.93718   0.00000  Uiso   1.00
C341   C     0.66731   0.09006   0.92043   0.00000  Uiso   1.00
C342   C     0.61870   0.13057   0.88945   0.00000  Uiso   1.00
C343   C     0.87981   0.07165   0.92705   0.00000  Uiso   1.00
C344   C     0.91784   0.02280   0.90178   0.00000  Uiso   1.00
C345   C     0.98380   0.03255   0.86224   0.00000  Uiso   1.00
H346   H     0.87709   0.21932   0.93537   0.00000  Uiso   1.00
H347   H     0.90246   0.24277   0.05716   0.00000  Uiso   1.00
H348   H     0.74290   0.24913   0.88187   0.00000  Uiso   1.00
H349   H     0.99339   0.18188   0.86322   0.00000  Uiso   1.00
H350   H     0.91871   0.24382   0.19824   0.00000  Uiso   1.00
H351   H     0.58227   0.25723   0.82861   0.00000  Uiso   1.00
H352   H     0.11047   0.11543   0.78927   0.00000  Uiso   1.00
H353   H     0.78574   0.02699   0.98199   0.00000  Uiso   1.00
H354   H     0.80610   0.03989   0.10635   0.00000  Uiso   1.00
H355   H     0.64653   0.04625   0.93105   0.00000  Uiso   1.00
H356   H     0.89702   0.97901   0.91240   0.00000  Uiso   1.00
H357   H     0.84050   0.07916   0.23816   0.00000  Uiso   1.00
H358   H     0.50405   0.09256   0.86853   0.00000  Uiso   1.00
H359   H     0.03226   0.95076   0.82919   0.00000  Uiso   1.00
O360   O     0.89463   0.17345   0.29916   0.00000  Uiso   1.00
O361   O     0.45323   0.19104   0.81421   0.00000  Uiso   1.00
O362   O     0.14622   0.00500   0.76261   0.00000  Uiso   1.00
N363   N     0.89753   0.20329   0.19057   0.00000  Uiso   1.00
N364   N     0.58296   0.21583   0.84499   0.00000  Uiso   1.00
N365   N     0.07678   0.08326   0.80821   0.00000  Uiso   1.00
N366   N     0.85544   0.11469   0.21205   0.00000  Uiso   1.00
N367   N     0.54088   0.12723   0.86648   0.00000  Uiso   1.00
N368   N     0.03469   0.99466   0.82969   0.00000  Uiso   1.00
