data_job_01623
_audit_creation_date              2018-12-19
_audit_creation_method            'Materials Studio'
_symmetry_space_group_name_H-M    'P1'
_symmetry_Int_Tables_number       1
_symmetry_cell_setting            triclinic
loop_
_symmetry_equiv_pos_as_xyz
  x,y,z
_cell_length_a                    8.4514
_cell_length_b                    11.1095
_cell_length_c                    20.3285
_cell_angle_alpha                 100.4555
_cell_angle_beta                  79.9174
_cell_angle_gamma                 101.4107
loop_
_atom_site_label
_atom_site_type_symbol
_atom_site_fract_x
_atom_site_fract_y
_atom_site_fract_z
_atom_site_U_iso_or_equiv
_atom_site_adp_type
_atom_site_occupancy
C1     C     0.32934   0.53209   0.69187   0.00000  Uiso   1.00
C2     C     0.29117   0.54296   0.76864   0.00000  Uiso   1.00
C3     C     0.39168   0.52169   0.81095   0.00000  Uiso   1.00
C4     C     0.33467   0.53652   0.87976   0.00000  Uiso   1.00
C5     C     0.29850   0.54803   0.99509   0.00000  Uiso   1.00
C6     C     0.18857   0.43964   0.66430   0.00000  Uiso   1.00
C7     C     0.20283   0.33152   0.61886   0.00000  Uiso   1.00
C8     C     0.05944   0.25938   0.59982   0.00000  Uiso   1.00
C9     C     0.86400   0.11054   0.55312   0.00000  Uiso   1.00
C10    C     0.31641   0.65762   0.67484   0.00000  Uiso   1.00
C11    C     0.43814   0.73277   0.63826   0.00000  Uiso   1.00
C12    C     0.40238   0.84415   0.62809   0.00000  Uiso   1.00
C13    C     0.40543   0.03375   0.59776   0.00000  Uiso   1.00
C14    C     0.04937   0.59625   0.73884   0.00000  Uiso   1.00
C15    C     0.13909   0.57780   0.79415   0.00000  Uiso   1.00
C16    C     0.08192   0.59267   0.86292   0.00000  Uiso   1.00
C17    C     0.18233   0.57143   0.90532   0.00000  Uiso   1.00
C18    C     0.03650   0.47448   0.68981   0.00000  Uiso   1.00
C19    C     0.89307   0.40250   0.67083   0.00000  Uiso   1.00
C20    C     0.90710   0.29429   0.62538   0.00000  Uiso   1.00
C21    C     0.16434   0.69247   0.70036   0.00000  Uiso   1.00
C22    C     0.12838   0.80375   0.69023   0.00000  Uiso   1.00
C23    C     0.25003   0.87905   0.65365   0.00000  Uiso   1.00
H24    H     0.44773   0.50496   0.67200   0.00000  Uiso   1.00
H25    H     0.50935   0.49471   0.79118   0.00000  Uiso   1.00
H26    H     0.32053   0.30458   0.59912   0.00000  Uiso   1.00
H27    H     0.55580   0.70577   0.61852   0.00000  Uiso   1.00
H28    H     0.51058   0.49868   0.93457   0.00000  Uiso   1.00
H29    H     0.11244   0.09780   0.52958   0.00000  Uiso   1.00
H30    H     0.60857   0.94379   0.57049   0.00000  Uiso   1.00
H31    H     0.93097   0.62337   0.75870   0.00000  Uiso   1.00
H32    H     0.96423   0.61964   0.88265   0.00000  Uiso   1.00
H33    H     0.77541   0.42950   0.69058   0.00000  Uiso   1.00
H34    H     0.01069   0.83069   0.70998   0.00000  Uiso   1.00
H35    H     0.06814   0.60006   0.00880   0.00000  Uiso   1.00
H36    H     0.67000   0.19918   0.60381   0.00000  Uiso   1.00
H37    H     0.16613   0.04517   0.64472   0.00000  Uiso   1.00
O38    O     0.32055   0.54474   0.05166   0.00000  Uiso   1.00
O39    O     0.79820   0.01881   0.52031   0.00000  Uiso   1.00
O40    O     0.44912   0.12872   0.57399   0.00000  Uiso   1.00
N41    N     0.40190   0.52308   0.93503   0.00000  Uiso   1.00
N42    N     0.02966   0.14827   0.55640   0.00000  Uiso   1.00
N43    N     0.49349   0.93918   0.59463   0.00000  Uiso   1.00
N44    N     0.16383   0.57764   0.97498   0.00000  Uiso   1.00
N45    N     0.79159   0.20282   0.59634   0.00000  Uiso   1.00
N46    N     0.25541   0.99373   0.63457   0.00000  Uiso   1.00
C47    C     0.67066   0.46791   0.30813   0.00000  Uiso   1.00
C48    C     0.70883   0.45704   0.23136   0.00000  Uiso   1.00
C49    C     0.60832   0.47831   0.18905   0.00000  Uiso   1.00
C50    C     0.66533   0.46348   0.12024   0.00000  Uiso   1.00
C51    C     0.70150   0.45197   0.00491   0.00000  Uiso   1.00
C52    C     0.81143   0.56036   0.33570   0.00000  Uiso   1.00
C53    C     0.79717   0.66848   0.38114   0.00000  Uiso   1.00
C54    C     0.94056   0.74062   0.40018   0.00000  Uiso   1.00
C55    C     0.13600   0.88946   0.44688   0.00000  Uiso   1.00
C56    C     0.68359   0.34238   0.32516   0.00000  Uiso   1.00
C57    C     0.56186   0.26723   0.36174   0.00000  Uiso   1.00
C58    C     0.59762   0.15585   0.37191   0.00000  Uiso   1.00
C59    C     0.59457   0.96625   0.40224   0.00000  Uiso   1.00
C60    C     0.95063   0.40375   0.26116   0.00000  Uiso   1.00
C61    C     0.86091   0.42220   0.20585   0.00000  Uiso   1.00
C62    C     0.91808   0.40733   0.13708   0.00000  Uiso   1.00
C63    C     0.81767   0.42857   0.09468   0.00000  Uiso   1.00
C64    C     0.96350   0.52552   0.31019   0.00000  Uiso   1.00
C65    C     0.10693   0.59750   0.32917   0.00000  Uiso   1.00
C66    C     0.09290   0.70571   0.37462   0.00000  Uiso   1.00
C67    C     0.83566   0.30753   0.29964   0.00000  Uiso   1.00
C68    C     0.87162   0.19625   0.30977   0.00000  Uiso   1.00
C69    C     0.74997   0.12095   0.34635   0.00000  Uiso   1.00
H70    H     0.55227   0.49504   0.32800   0.00000  Uiso   1.00
H71    H     0.49065   0.50529   0.20882   0.00000  Uiso   1.00
H72    H     0.67947   0.69542   0.40088   0.00000  Uiso   1.00
H73    H     0.44420   0.29423   0.38148   0.00000  Uiso   1.00
H74    H     0.48942   0.50132   0.06543   0.00000  Uiso   1.00
H75    H     0.88756   0.90220   0.47042   0.00000  Uiso   1.00
H76    H     0.39143   0.05621   0.42951   0.00000  Uiso   1.00
H77    H     0.06903   0.37663   0.24130   0.00000  Uiso   1.00
H78    H     0.03577   0.38036   0.11735   0.00000  Uiso   1.00
H79    H     0.22459   0.57050   0.30942   0.00000  Uiso   1.00
H80    H     0.98931   0.16931   0.29002   0.00000  Uiso   1.00
H81    H     0.93186   0.39994   0.99120   0.00000  Uiso   1.00
H82    H     0.33000   0.80082   0.39619   0.00000  Uiso   1.00
H83    H     0.83387   0.95483   0.35528   0.00000  Uiso   1.00
O84    O     0.67945   0.45526   0.94834   0.00000  Uiso   1.00
O85    O     0.20180   0.98119   0.47969   0.00000  Uiso   1.00
O86    O     0.55088   0.87128   0.42601   0.00000  Uiso   1.00
N87    N     0.59810   0.47692   0.06497   0.00000  Uiso   1.00
N88    N     0.97034   0.85173   0.44360   0.00000  Uiso   1.00
N89    N     0.50651   0.06082   0.40537   0.00000  Uiso   1.00
N90    N     0.83617   0.42236   0.02502   0.00000  Uiso   1.00
N91    N     0.20841   0.79718   0.40366   0.00000  Uiso   1.00
N92    N     0.74459   0.00627   0.36543   0.00000  Uiso   1.00
