data_job_04815
_audit_creation_date              2018-12-19
_audit_creation_method            'Materials Studio'
_symmetry_space_group_name_H-M    'P1'
_symmetry_Int_Tables_number       1
_symmetry_cell_setting            triclinic
loop_
_symmetry_equiv_pos_as_xyz
  x,y,z
_cell_length_a                    17.7805
_cell_length_b                    9.9717
_cell_length_c                    15.0899
_cell_angle_alpha                 90.0000
_cell_angle_beta                  94.0988
_cell_angle_gamma                 90.0000
loop_
_atom_site_label
_atom_site_type_symbol
_atom_site_fract_x
_atom_site_fract_y
_atom_site_fract_z
_atom_site_U_iso_or_equiv
_atom_site_adp_type
_atom_site_occupancy
C1     C     0.26310   0.90600   0.81523   0.00000  Uiso   1.00
C2     C     0.28448   0.95116   0.91025   0.00000  Uiso   1.00
C3     C     0.26144   0.06915   0.94887   0.00000  Uiso   1.00
C4     C     0.28714   0.09218   0.03660   0.00000  Uiso   1.00
C5     C     0.31320   0.17629   0.17694   0.00000  Uiso   1.00
C6     C     0.33724   0.88294   0.77261   0.00000  Uiso   1.00
C7     C     0.35856   0.94356   0.69550   0.00000  Uiso   1.00
C8     C     0.42867   0.90914   0.66736   0.00000  Uiso   1.00
C9     C     0.53663   0.88727   0.59396   0.00000  Uiso   1.00
C10    C     0.22694   0.76815   0.82253   0.00000  Uiso   1.00
C11    C     0.15552   0.73223   0.78736   0.00000  Uiso   1.00
C12    C     0.13277   0.60115   0.80123   0.00000  Uiso   1.00
C13    C     0.06947   0.40105   0.80534   0.00000  Uiso   1.00
C14    C     0.34971   0.73708   0.90236   0.00000  Uiso   1.00
C15    C     0.33152   0.85940   0.95757   0.00000  Uiso   1.00
C16    C     0.35726   0.88226   0.04527   0.00000  Uiso   1.00
C17    C     0.33426   0.00026   0.08402   0.00000  Uiso   1.00
C18    C     0.38428   0.79119   0.81993   0.00000  Uiso   1.00
C19    C     0.45438   0.75667   0.79189   0.00000  Uiso   1.00
C20    C     0.47580   0.81723   0.71476   0.00000  Uiso   1.00
C21    C     0.27398   0.67639   0.86985   0.00000  Uiso   1.00
C22    C     0.25134   0.54534   0.88377   0.00000  Uiso   1.00
C23    C     0.17990   0.50924   0.84864   0.00000  Uiso   1.00
H24    H     0.22648   0.97743   0.77838   0.00000  Uiso   1.00
H25    H     0.22504   0.14013   0.91222   0.00000  Uiso   1.00
H26    H     0.32214   0.01455   0.65888   0.00000  Uiso   1.00
H27    H     0.11914   0.80326   0.75074   0.00000  Uiso   1.00
H28    H     0.24421   0.28008   0.08148   0.00000  Uiso   1.00
H29    H     0.44894   0.01525   0.54728   0.00000  Uiso   1.00
H30    H     0.02086   0.56970   0.74097   0.00000  Uiso   1.00
H31    H     0.38633   0.66564   0.93920   0.00000  Uiso   1.00
H32    H     0.39366   0.81124   0.08188   0.00000  Uiso   1.00
H33    H     0.49076   0.68566   0.82853   0.00000  Uiso   1.00
H34    H     0.28776   0.47437   0.92039   0.00000  Uiso   1.00
H35    H     0.38107   0.01314   0.21917   0.00000  Uiso   1.00
H36    H     0.58580   0.74830   0.68497   0.00000  Uiso   1.00
H37    H     0.15772   0.30276   0.87867   0.00000  Uiso   1.00
O38    O     0.31460   0.24804   0.24127   0.00000  Uiso   1.00
O39    O     0.58319   0.90056   0.54041   0.00000  Uiso   1.00
O40    O     0.02156   0.31602   0.79454   0.00000  Uiso   1.00
N41    N     0.27540   0.19726   0.09431   0.00000  Uiso   1.00
N42    N     0.46682   0.94967   0.59487   0.00000  Uiso   1.00
N43    N     0.06661   0.53311   0.77594   0.00000  Uiso   1.00
N44    N     0.34904   0.05362   0.16840   0.00000  Uiso   1.00
N45    N     0.54046   0.80603   0.66896   0.00000  Uiso   1.00
N46    N     0.14025   0.38947   0.85003   0.00000  Uiso   1.00
C47    C     0.73690   0.40600   0.68477   0.00000  Uiso   1.00
C48    C     0.71552   0.45116   0.58975   0.00000  Uiso   1.00
C49    C     0.73856   0.56915   0.55113   0.00000  Uiso   1.00
C50    C     0.71286   0.59218   0.46340   0.00000  Uiso   1.00
C51    C     0.68680   0.67629   0.32306   0.00000  Uiso   1.00
C52    C     0.66276   0.38294   0.72739   0.00000  Uiso   1.00
C53    C     0.64144   0.44356   0.80450   0.00000  Uiso   1.00
C54    C     0.57133   0.40914   0.83264   0.00000  Uiso   1.00
C55    C     0.46337   0.38727   0.90604   0.00000  Uiso   1.00
C56    C     0.77306   0.26815   0.67747   0.00000  Uiso   1.00
C57    C     0.84448   0.23223   0.71264   0.00000  Uiso   1.00
C58    C     0.86723   0.10115   0.69877   0.00000  Uiso   1.00
C59    C     0.93053   0.90105   0.69466   0.00000  Uiso   1.00
C60    C     0.65029   0.23708   0.59764   0.00000  Uiso   1.00
C61    C     0.66848   0.35940   0.54243   0.00000  Uiso   1.00
C62    C     0.64274   0.38226   0.45473   0.00000  Uiso   1.00
C63    C     0.66574   0.50026   0.41598   0.00000  Uiso   1.00
C64    C     0.61572   0.29119   0.68007   0.00000  Uiso   1.00
C65    C     0.54562   0.25667   0.70811   0.00000  Uiso   1.00
C66    C     0.52420   0.31723   0.78524   0.00000  Uiso   1.00
C67    C     0.72602   0.17639   0.63015   0.00000  Uiso   1.00
C68    C     0.74866   0.04534   0.61623   0.00000  Uiso   1.00
C69    C     0.82010   0.00924   0.65136   0.00000  Uiso   1.00
H70    H     0.77352   0.47743   0.72162   0.00000  Uiso   1.00
H71    H     0.77496   0.64013   0.58778   0.00000  Uiso   1.00
H72    H     0.67786   0.51455   0.84112   0.00000  Uiso   1.00
H73    H     0.88086   0.30326   0.74926   0.00000  Uiso   1.00
H74    H     0.75579   0.78008   0.41852   0.00000  Uiso   1.00
H75    H     0.55106   0.51525   0.95272   0.00000  Uiso   1.00
H76    H     0.97914   0.06970   0.75903   0.00000  Uiso   1.00
H77    H     0.61367   0.16564   0.56080   0.00000  Uiso   1.00
H78    H     0.60634   0.31124   0.41812   0.00000  Uiso   1.00
H79    H     0.50924   0.18566   0.67147   0.00000  Uiso   1.00
H80    H     0.71224   0.97437   0.57961   0.00000  Uiso   1.00
H81    H     0.61893   0.51314   0.28083   0.00000  Uiso   1.00
H82    H     0.41420   0.24830   0.81503   0.00000  Uiso   1.00
H83    H     0.84228   0.80276   0.62133   0.00000  Uiso   1.00
O84    O     0.68540   0.74804   0.25873   0.00000  Uiso   1.00
O85    O     0.41681   0.40056   0.95959   0.00000  Uiso   1.00
O86    O     0.97844   0.81602   0.70546   0.00000  Uiso   1.00
N87    N     0.72460   0.69726   0.40569   0.00000  Uiso   1.00
N88    N     0.53318   0.44967   0.90513   0.00000  Uiso   1.00
N89    N     0.93339   0.03311   0.72406   0.00000  Uiso   1.00
N90    N     0.65096   0.55362   0.33160   0.00000  Uiso   1.00
N91    N     0.45954   0.30603   0.83104   0.00000  Uiso   1.00
N92    N     0.85975   0.88947   0.64997   0.00000  Uiso   1.00
C93    C     0.73690   0.09400   0.18477   0.00000  Uiso   1.00
C94    C     0.71552   0.04884   0.08975   0.00000  Uiso   1.00
C95    C     0.73856   0.93085   0.05113   0.00000  Uiso   1.00
C96    C     0.71286   0.90782   0.96340   0.00000  Uiso   1.00
C97    C     0.68680   0.82371   0.82306   0.00000  Uiso   1.00
C98    C     0.66276   0.11706   0.22739   0.00000  Uiso   1.00
C99    C     0.64144   0.05644   0.30450   0.00000  Uiso   1.00
C100   C     0.57133   0.09086   0.33264   0.00000  Uiso   1.00
C101   C     0.46337   0.11273   0.40604   0.00000  Uiso   1.00
C102   C     0.77306   0.23185   0.17747   0.00000  Uiso   1.00
C103   C     0.84448   0.26777   0.21264   0.00000  Uiso   1.00
C104   C     0.86723   0.39885   0.19877   0.00000  Uiso   1.00
C105   C     0.93053   0.59895   0.19466   0.00000  Uiso   1.00
C106   C     0.65029   0.26292   0.09764   0.00000  Uiso   1.00
C107   C     0.66848   0.14060   0.04243   0.00000  Uiso   1.00
C108   C     0.64274   0.11774   0.95473   0.00000  Uiso   1.00
C109   C     0.66574   0.99974   0.91598   0.00000  Uiso   1.00
C110   C     0.61572   0.20881   0.18007   0.00000  Uiso   1.00
C111   C     0.54562   0.24333   0.20811   0.00000  Uiso   1.00
C112   C     0.52420   0.18277   0.28524   0.00000  Uiso   1.00
C113   C     0.72602   0.32361   0.13015   0.00000  Uiso   1.00
C114   C     0.74866   0.45466   0.11623   0.00000  Uiso   1.00
C115   C     0.82010   0.49076   0.15136   0.00000  Uiso   1.00
H116   H     0.77352   0.02257   0.22162   0.00000  Uiso   1.00
H117   H     0.77496   0.85987   0.08778   0.00000  Uiso   1.00
H118   H     0.67786   0.98545   0.34112   0.00000  Uiso   1.00
H119   H     0.88086   0.19674   0.24926   0.00000  Uiso   1.00
H120   H     0.75579   0.71992   0.91852   0.00000  Uiso   1.00
H121   H     0.55106   0.98475   0.45272   0.00000  Uiso   1.00
H122   H     0.97914   0.43030   0.25903   0.00000  Uiso   1.00
H123   H     0.61367   0.33436   0.06080   0.00000  Uiso   1.00
H124   H     0.60634   0.18876   0.91812   0.00000  Uiso   1.00
H125   H     0.50924   0.31434   0.17147   0.00000  Uiso   1.00
H126   H     0.71224   0.52563   0.07961   0.00000  Uiso   1.00
H127   H     0.61893   0.98686   0.78083   0.00000  Uiso   1.00
H128   H     0.41420   0.25170   0.31503   0.00000  Uiso   1.00
H129   H     0.84228   0.69724   0.12133   0.00000  Uiso   1.00
O130   O     0.68540   0.75196   0.75873   0.00000  Uiso   1.00
O131   O     0.41681   0.09944   0.45959   0.00000  Uiso   1.00
O132   O     0.97844   0.68398   0.20546   0.00000  Uiso   1.00
N133   N     0.72460   0.80274   0.90569   0.00000  Uiso   1.00
N134   N     0.53318   0.05033   0.40513   0.00000  Uiso   1.00
N135   N     0.93339   0.46689   0.22406   0.00000  Uiso   1.00
N136   N     0.65096   0.94638   0.83160   0.00000  Uiso   1.00
N137   N     0.45954   0.19397   0.33104   0.00000  Uiso   1.00
N138   N     0.85975   0.61053   0.14997   0.00000  Uiso   1.00
C139   C     0.26310   0.59400   0.31523   0.00000  Uiso   1.00
C140   C     0.28448   0.54884   0.41025   0.00000  Uiso   1.00
C141   C     0.26144   0.43085   0.44887   0.00000  Uiso   1.00
C142   C     0.28714   0.40782   0.53660   0.00000  Uiso   1.00
C143   C     0.31320   0.32371   0.67694   0.00000  Uiso   1.00
C144   C     0.33724   0.61706   0.27261   0.00000  Uiso   1.00
C145   C     0.35856   0.55644   0.19550   0.00000  Uiso   1.00
C146   C     0.42867   0.59086   0.16736   0.00000  Uiso   1.00
C147   C     0.53663   0.61273   0.09396   0.00000  Uiso   1.00
C148   C     0.22694   0.73185   0.32253   0.00000  Uiso   1.00
C149   C     0.15552   0.76777   0.28736   0.00000  Uiso   1.00
C150   C     0.13277   0.89885   0.30123   0.00000  Uiso   1.00
C151   C     0.06947   0.09895   0.30534   0.00000  Uiso   1.00
C152   C     0.34971   0.76292   0.40236   0.00000  Uiso   1.00
C153   C     0.33152   0.64060   0.45757   0.00000  Uiso   1.00
C154   C     0.35726   0.61774   0.54527   0.00000  Uiso   1.00
C155   C     0.33426   0.49974   0.58402   0.00000  Uiso   1.00
C156   C     0.38428   0.70881   0.31993   0.00000  Uiso   1.00
C157   C     0.45438   0.74333   0.29189   0.00000  Uiso   1.00
C158   C     0.47580   0.68277   0.21476   0.00000  Uiso   1.00
C159   C     0.27398   0.82361   0.36985   0.00000  Uiso   1.00
C160   C     0.25134   0.95466   0.38377   0.00000  Uiso   1.00
C161   C     0.17990   0.99076   0.34864   0.00000  Uiso   1.00
H162   H     0.22648   0.52257   0.27838   0.00000  Uiso   1.00
H163   H     0.22504   0.35987   0.41222   0.00000  Uiso   1.00
H164   H     0.32214   0.48545   0.15888   0.00000  Uiso   1.00
H165   H     0.11914   0.69674   0.25074   0.00000  Uiso   1.00
H166   H     0.24421   0.21992   0.58148   0.00000  Uiso   1.00
H167   H     0.44894   0.48475   0.04728   0.00000  Uiso   1.00
H168   H     0.02086   0.93030   0.24097   0.00000  Uiso   1.00
H169   H     0.38633   0.83436   0.43920   0.00000  Uiso   1.00
H170   H     0.39366   0.68876   0.58188   0.00000  Uiso   1.00
H171   H     0.49076   0.81434   0.32853   0.00000  Uiso   1.00
H172   H     0.28776   0.02563   0.42039   0.00000  Uiso   1.00
H173   H     0.38107   0.48686   0.71917   0.00000  Uiso   1.00
H174   H     0.58580   0.75170   0.18497   0.00000  Uiso   1.00
H175   H     0.15772   0.19724   0.37867   0.00000  Uiso   1.00
O176   O     0.31460   0.25196   0.74127   0.00000  Uiso   1.00
O177   O     0.58319   0.59944   0.04041   0.00000  Uiso   1.00
O178   O     0.02156   0.18398   0.29454   0.00000  Uiso   1.00
N179   N     0.27540   0.30274   0.59431   0.00000  Uiso   1.00
N180   N     0.46682   0.55033   0.09487   0.00000  Uiso   1.00
N181   N     0.06661   0.96689   0.27594   0.00000  Uiso   1.00
N182   N     0.34904   0.44638   0.66840   0.00000  Uiso   1.00
N183   N     0.54046   0.69397   0.16896   0.00000  Uiso   1.00
N184   N     0.14025   0.11053   0.35003   0.00000  Uiso   1.00
