data_job_05587
_audit_creation_date              2018-12-19
_audit_creation_method            'Materials Studio'
_symmetry_space_group_name_H-M    'P1'
_symmetry_Int_Tables_number       1
_symmetry_cell_setting            triclinic
loop_
_symmetry_equiv_pos_as_xyz
  x,y,z
_cell_length_a                    32.4229
_cell_length_b                    13.1181
_cell_length_c                    13.0445
_cell_angle_alpha                 90.0000
_cell_angle_beta                  90.0000
_cell_angle_gamma                 90.0000
loop_
_atom_site_label
_atom_site_type_symbol
_atom_site_fract_x
_atom_site_fract_y
_atom_site_fract_z
_atom_site_U_iso_or_equiv
_atom_site_adp_type
_atom_site_occupancy
C1     C     0.06173   0.85663   0.23369   0.00000  Uiso   1.00
C2     C     0.03191   0.94154   0.20407   0.00000  Uiso   1.00
C3     C     0.99088   0.94829   0.23362   0.00000  Uiso   1.00
C4     C     0.96876   0.03189   0.19845   0.00000  Uiso   1.00
C5     C     0.91966   0.15243   0.16190   0.00000  Uiso   1.00
C6     C     0.07804   0.81299   0.13321   0.00000  Uiso   1.00
C7     C     0.07580   0.71164   0.10319   0.00000  Uiso   1.00
C8     C     0.09251   0.68701   0.00838   0.00000  Uiso   1.00
C9     C     0.11506   0.60796   0.86185   0.00000  Uiso   1.00
C10    C     0.09833   0.90888   0.28499   0.00000  Uiso   1.00
C11    C     0.11316   0.88813   0.38258   0.00000  Uiso   1.00
C12    C     0.14697   0.94423   0.41554   0.00000  Uiso   1.00
C13    C     0.20102   0.01406   0.50468   0.00000  Uiso   1.00
C14    C     0.09540   0.99310   0.11868   0.00000  Uiso   1.00
C15    C     0.05020   0.01567   0.14159   0.00000  Uiso   1.00
C16    C     0.02813   0.09928   0.10637   0.00000  Uiso   1.00
C17    C     0.98708   0.10615   0.13587   0.00000  Uiso   1.00
C18    C     0.09632   0.88711   0.07074   0.00000  Uiso   1.00
C19    C     0.11305   0.86263   0.97594   0.00000  Uiso   1.00
C20    C     0.11083   0.76127   0.94579   0.00000  Uiso   1.00
C21    C     0.11662   0.98301   0.22252   0.00000  Uiso   1.00
C22    C     0.15041   0.03913   0.25533   0.00000  Uiso   1.00
C23    C     0.16529   0.01849   0.35296   0.00000  Uiso   1.00
H24    H     0.04750   0.79891   0.28232   0.00000  Uiso   1.00
H25    H     0.97674   0.89090   0.28196   0.00000  Uiso   1.00
H26    H     0.06165   0.65429   0.15156   0.00000  Uiso   1.00
H27    H     0.09900   0.83077   0.43090   0.00000  Uiso   1.00
H28    H     0.90635   0.02556   0.25397   0.00000  Uiso   1.00
H29    H     0.08540   0.52664   0.97903   0.00000  Uiso   1.00
H30    H     0.16417   0.89877   0.56808   0.00000  Uiso   1.00
H31    H     0.10964   0.05082   0.07004   0.00000  Uiso   1.00
H32    H     0.04229   0.15663   0.05803   0.00000  Uiso   1.00
H33    H     0.12720   0.92001   0.92763   0.00000  Uiso   1.00
H34    H     0.16455   0.09649   0.20697   0.00000  Uiso   1.00
H35    H     0.95955   0.24123   0.07221   0.00000  Uiso   1.00
H36    H     0.13861   0.74231   0.79727   0.00000  Uiso   1.00
H37    H     0.21737   0.11445   0.38633   0.00000  Uiso   1.00
O38    O     0.88752   0.19844   0.15899   0.00000  Uiso   1.00
O39    O     0.12243   0.54387   0.79829   0.00000  Uiso   1.00
O40    O     0.22578   0.03211   0.57111   0.00000  Uiso   1.00
N41    N     0.92812   0.06181   0.21286   0.00000  Uiso   1.00
N42    N     0.09551   0.59535   0.95580   0.00000  Uiso   1.00
N43    N     0.16916   0.94324   0.50650   0.00000  Uiso   1.00
N44    N     0.95674   0.17786   0.11506   0.00000  Uiso   1.00
N45    N     0.12414   0.71140   0.85800   0.00000  Uiso   1.00
N46    N     0.19779   0.05930   0.40870   0.00000  Uiso   1.00
C47    C     0.44214   0.85086   0.78548   0.00000  Uiso   1.00
C48    C     0.46545   0.94850   0.81133   0.00000  Uiso   1.00
C49    C     0.50728   0.96502   0.79617   0.00000  Uiso   1.00
C50    C     0.52274   0.05951   0.82487   0.00000  Uiso   1.00
C51    C     0.56281   0.19966   0.85862   0.00000  Uiso   1.00
C52    C     0.42155   0.81667   0.88479   0.00000  Uiso   1.00
C53    C     0.42646   0.72234   0.93139   0.00000  Uiso   1.00
C54    C     0.40495   0.70585   0.02193   0.00000  Uiso   1.00
C55    C     0.37684   0.64131   0.16969   0.00000  Uiso   1.00
C56    C     0.40726   0.88227   0.71372   0.00000  Uiso   1.00
C57    C     0.40016   0.84308   0.61648   0.00000  Uiso   1.00
C58    C     0.36661   0.88180   0.56299   0.00000  Uiso   1.00
C59    C     0.31632   0.91912   0.44512   0.00000  Uiso   1.00
C60    C     0.39519   0.98929   0.86339   0.00000  Uiso   1.00
C61    C     0.43995   0.02369   0.85365   0.00000  Uiso   1.00
C62    C     0.45534   0.11818   0.88237   0.00000  Uiso   1.00
C63    C     0.49719   0.13484   0.86726   0.00000  Uiso   1.00
C64    C     0.39605   0.89186   0.92711   0.00000  Uiso   1.00
C65    C     0.37452   0.87550   0.01759   0.00000  Uiso   1.00
C66    C     0.37941   0.78118   0.06432   0.00000  Uiso   1.00
C67    C     0.38176   0.95746   0.75603   0.00000  Uiso   1.00
C68    C     0.34822   0.99625   0.70268   0.00000  Uiso   1.00
C69    C     0.34107   0.95713   0.60538   0.00000  Uiso   1.00
H70    H     0.46199   0.79231   0.75254   0.00000  Uiso   1.00
H71    H     0.52701   0.90680   0.76343   0.00000  Uiso   1.00
H72    H     0.44619   0.66416   0.89862   0.00000  Uiso   1.00
H73    H     0.41990   0.78489   0.58376   0.00000  Uiso   1.00
H74    H     0.58785   0.06689   0.79421   0.00000  Uiso   1.00
H75    H     0.41744   0.55525   0.07925   0.00000  Uiso   1.00
H76    H     0.36198   0.80982   0.41530   0.00000  Uiso   1.00
H77    H     0.37534   0.04783   0.89634   0.00000  Uiso   1.00
H78    H     0.43560   0.17635   0.91512   0.00000  Uiso   1.00
H79    H     0.35479   0.93371   0.05031   0.00000  Uiso   1.00
H80    H     0.32849   0.05443   0.73545   0.00000  Uiso   1.00
H81    H     0.51366   0.28566   0.91733   0.00000  Uiso   1.00
H82    H     0.34325   0.77402   0.20236   0.00000  Uiso   1.00
H83    H     0.28779   0.02860   0.53841   0.00000  Uiso   1.00
O84    O     0.59196   0.25619   0.86556   0.00000  Uiso   1.00
O85    O     0.36838   0.58494   0.23951   0.00000  Uiso   1.00
O86    O     0.29563   0.91894   0.36842   0.00000  Uiso   1.00
N87    N     0.56212   0.10074   0.82059   0.00000  Uiso   1.00
N88    N     0.40280   0.62240   0.08709   0.00000  Uiso   1.00
N89    N     0.35094   0.86039   0.46636   0.00000  Uiso   1.00
N90    N     0.52220   0.21846   0.88683   0.00000  Uiso   1.00
N91    N     0.36288   0.74012   0.15334   0.00000  Uiso   1.00
N92    N     0.31102   0.97811   0.53261   0.00000  Uiso   1.00
C93    C     0.93827   0.14337   0.73369   0.00000  Uiso   1.00
C94    C     0.96809   0.05846   0.70407   0.00000  Uiso   1.00
C95    C     0.00912   0.05171   0.73362   0.00000  Uiso   1.00
C96    C     0.03124   0.96811   0.69845   0.00000  Uiso   1.00
C97    C     0.08034   0.84757   0.66190   0.00000  Uiso   1.00
C98    C     0.92196   0.18701   0.63321   0.00000  Uiso   1.00
C99    C     0.92420   0.28836   0.60319   0.00000  Uiso   1.00
C100   C     0.90749   0.31299   0.50838   0.00000  Uiso   1.00
C101   C     0.88494   0.39204   0.36185   0.00000  Uiso   1.00
C102   C     0.90167   0.09112   0.78499   0.00000  Uiso   1.00
C103   C     0.88684   0.11187   0.88258   0.00000  Uiso   1.00
C104   C     0.85303   0.05577   0.91554   0.00000  Uiso   1.00
C105   C     0.79898   0.98594   0.00468   0.00000  Uiso   1.00
C106   C     0.90460   0.00690   0.61868   0.00000  Uiso   1.00
C107   C     0.94980   0.98433   0.64159   0.00000  Uiso   1.00
C108   C     0.97187   0.90072   0.60637   0.00000  Uiso   1.00
C109   C     0.01292   0.89385   0.63587   0.00000  Uiso   1.00
C110   C     0.90368   0.11289   0.57074   0.00000  Uiso   1.00
C111   C     0.88695   0.13737   0.47594   0.00000  Uiso   1.00
C112   C     0.88917   0.23873   0.44579   0.00000  Uiso   1.00
C113   C     0.88338   0.01699   0.72252   0.00000  Uiso   1.00
C114   C     0.84959   0.96087   0.75533   0.00000  Uiso   1.00
C115   C     0.83471   0.98151   0.85296   0.00000  Uiso   1.00
H116   H     0.95250   0.20109   0.78232   0.00000  Uiso   1.00
H117   H     0.02326   0.10910   0.78196   0.00000  Uiso   1.00
H118   H     0.93835   0.34571   0.65156   0.00000  Uiso   1.00
H119   H     0.90100   0.16923   0.93090   0.00000  Uiso   1.00
H120   H     0.09365   0.97444   0.75397   0.00000  Uiso   1.00
H121   H     0.91460   0.47336   0.47903   0.00000  Uiso   1.00
H122   H     0.83583   0.10123   0.06808   0.00000  Uiso   1.00
H123   H     0.89036   0.94918   0.57004   0.00000  Uiso   1.00
H124   H     0.95771   0.84337   0.55803   0.00000  Uiso   1.00
H125   H     0.87280   0.07999   0.42763   0.00000  Uiso   1.00
H126   H     0.83545   0.90351   0.70697   0.00000  Uiso   1.00
H127   H     0.04045   0.75877   0.57221   0.00000  Uiso   1.00
H128   H     0.86139   0.25769   0.29727   0.00000  Uiso   1.00
H129   H     0.78263   0.88555   0.88633   0.00000  Uiso   1.00
O130   O     0.11248   0.80156   0.65899   0.00000  Uiso   1.00
O131   O     0.87757   0.45613   0.29829   0.00000  Uiso   1.00
O132   O     0.77422   0.96789   0.07111   0.00000  Uiso   1.00
N133   N     0.07188   0.93819   0.71286   0.00000  Uiso   1.00
N134   N     0.90449   0.40465   0.45580   0.00000  Uiso   1.00
N135   N     0.83084   0.05676   0.00650   0.00000  Uiso   1.00
N136   N     0.04326   0.82214   0.61506   0.00000  Uiso   1.00
N137   N     0.87586   0.28860   0.35800   0.00000  Uiso   1.00
N138   N     0.80221   0.94070   0.90870   0.00000  Uiso   1.00
C139   C     0.55786   0.14914   0.28548   0.00000  Uiso   1.00
C140   C     0.53455   0.05150   0.31133   0.00000  Uiso   1.00
C141   C     0.49272   0.03498   0.29617   0.00000  Uiso   1.00
C142   C     0.47726   0.94049   0.32487   0.00000  Uiso   1.00
C143   C     0.43719   0.80034   0.35862   0.00000  Uiso   1.00
C144   C     0.57845   0.18333   0.38479   0.00000  Uiso   1.00
C145   C     0.57354   0.27766   0.43139   0.00000  Uiso   1.00
C146   C     0.59505   0.29415   0.52193   0.00000  Uiso   1.00
C147   C     0.62316   0.35869   0.66969   0.00000  Uiso   1.00
C148   C     0.59274   0.11773   0.21372   0.00000  Uiso   1.00
C149   C     0.59984   0.15692   0.11648   0.00000  Uiso   1.00
C150   C     0.63339   0.11820   0.06299   0.00000  Uiso   1.00
C151   C     0.68368   0.08088   0.94512   0.00000  Uiso   1.00
C152   C     0.60481   0.01071   0.36339   0.00000  Uiso   1.00
C153   C     0.56005   0.97631   0.35365   0.00000  Uiso   1.00
C154   C     0.54466   0.88182   0.38237   0.00000  Uiso   1.00
C155   C     0.50281   0.86516   0.36726   0.00000  Uiso   1.00
C156   C     0.60395   0.10814   0.42711   0.00000  Uiso   1.00
C157   C     0.62548   0.12450   0.51759   0.00000  Uiso   1.00
C158   C     0.62059   0.21882   0.56432   0.00000  Uiso   1.00
C159   C     0.61824   0.04254   0.25603   0.00000  Uiso   1.00
C160   C     0.65178   0.00375   0.20268   0.00000  Uiso   1.00
C161   C     0.65893   0.04287   0.10538   0.00000  Uiso   1.00
H162   H     0.53801   0.20769   0.25254   0.00000  Uiso   1.00
H163   H     0.47299   0.09320   0.26343   0.00000  Uiso   1.00
H164   H     0.55381   0.33584   0.39862   0.00000  Uiso   1.00
H165   H     0.58010   0.21511   0.08376   0.00000  Uiso   1.00
H166   H     0.41215   0.93311   0.29421   0.00000  Uiso   1.00
H167   H     0.58256   0.44475   0.57925   0.00000  Uiso   1.00
H168   H     0.63802   0.19018   0.91530   0.00000  Uiso   1.00
H169   H     0.62466   0.95217   0.39634   0.00000  Uiso   1.00
H170   H     0.56440   0.82365   0.41512   0.00000  Uiso   1.00
H171   H     0.64521   0.06629   0.55031   0.00000  Uiso   1.00
H172   H     0.67151   0.94557   0.23545   0.00000  Uiso   1.00
H173   H     0.48634   0.71434   0.41733   0.00000  Uiso   1.00
H174   H     0.65675   0.22598   0.70236   0.00000  Uiso   1.00
H175   H     0.71221   0.97140   0.03841   0.00000  Uiso   1.00
O176   O     0.40804   0.74381   0.36556   0.00000  Uiso   1.00
O177   O     0.63162   0.41506   0.73951   0.00000  Uiso   1.00
O178   O     0.70437   0.08106   0.86842   0.00000  Uiso   1.00
N179   N     0.43788   0.89926   0.32059   0.00000  Uiso   1.00
N180   N     0.59720   0.37760   0.58709   0.00000  Uiso   1.00
N181   N     0.64906   0.13961   0.96636   0.00000  Uiso   1.00
N182   N     0.47780   0.78154   0.38683   0.00000  Uiso   1.00
N183   N     0.63712   0.25988   0.65334   0.00000  Uiso   1.00
N184   N     0.68898   0.02189   0.03261   0.00000  Uiso   1.00
C185   C     0.56173   0.64337   0.23369   0.00000  Uiso   1.00
C186   C     0.53191   0.55846   0.20407   0.00000  Uiso   1.00
C187   C     0.49088   0.55171   0.23362   0.00000  Uiso   1.00
C188   C     0.46876   0.46811   0.19845   0.00000  Uiso   1.00
C189   C     0.41966   0.34757   0.16190   0.00000  Uiso   1.00
C190   C     0.57804   0.68701   0.13321   0.00000  Uiso   1.00
C191   C     0.57580   0.78836   0.10319   0.00000  Uiso   1.00
C192   C     0.59251   0.81299   0.00838   0.00000  Uiso   1.00
C193   C     0.61506   0.89204   0.86185   0.00000  Uiso   1.00
C194   C     0.59833   0.59112   0.28499   0.00000  Uiso   1.00
C195   C     0.61316   0.61187   0.38258   0.00000  Uiso   1.00
C196   C     0.64697   0.55577   0.41554   0.00000  Uiso   1.00
C197   C     0.70102   0.48594   0.50468   0.00000  Uiso   1.00
C198   C     0.59540   0.50690   0.11868   0.00000  Uiso   1.00
C199   C     0.55020   0.48433   0.14159   0.00000  Uiso   1.00
C200   C     0.52813   0.40072   0.10637   0.00000  Uiso   1.00
C201   C     0.48708   0.39385   0.13587   0.00000  Uiso   1.00
C202   C     0.59632   0.61289   0.07074   0.00000  Uiso   1.00
C203   C     0.61305   0.63737   0.97594   0.00000  Uiso   1.00
C204   C     0.61083   0.73873   0.94579   0.00000  Uiso   1.00
C205   C     0.61662   0.51699   0.22252   0.00000  Uiso   1.00
C206   C     0.65041   0.46087   0.25533   0.00000  Uiso   1.00
C207   C     0.66529   0.48151   0.35296   0.00000  Uiso   1.00
H208   H     0.54750   0.70109   0.28232   0.00000  Uiso   1.00
H209   H     0.47674   0.60910   0.28196   0.00000  Uiso   1.00
H210   H     0.56165   0.84571   0.15156   0.00000  Uiso   1.00
H211   H     0.59900   0.66923   0.43090   0.00000  Uiso   1.00
H212   H     0.40635   0.47444   0.25397   0.00000  Uiso   1.00
H213   H     0.58540   0.97336   0.97903   0.00000  Uiso   1.00
H214   H     0.66417   0.60123   0.56808   0.00000  Uiso   1.00
H215   H     0.60964   0.44918   0.07004   0.00000  Uiso   1.00
H216   H     0.54229   0.34337   0.05803   0.00000  Uiso   1.00
H217   H     0.62720   0.57999   0.92763   0.00000  Uiso   1.00
H218   H     0.66455   0.40351   0.20697   0.00000  Uiso   1.00
H219   H     0.45955   0.25877   0.07221   0.00000  Uiso   1.00
H220   H     0.63861   0.75769   0.79727   0.00000  Uiso   1.00
H221   H     0.71737   0.38555   0.38633   0.00000  Uiso   1.00
O222   O     0.38752   0.30156   0.15899   0.00000  Uiso   1.00
O223   O     0.62243   0.95613   0.79829   0.00000  Uiso   1.00
O224   O     0.72578   0.46789   0.57111   0.00000  Uiso   1.00
N225   N     0.42812   0.43819   0.21286   0.00000  Uiso   1.00
N226   N     0.59551   0.90465   0.95580   0.00000  Uiso   1.00
N227   N     0.66916   0.55676   0.50650   0.00000  Uiso   1.00
N228   N     0.45674   0.32214   0.11506   0.00000  Uiso   1.00
N229   N     0.62414   0.78860   0.85800   0.00000  Uiso   1.00
N230   N     0.69779   0.44070   0.40870   0.00000  Uiso   1.00
C231   C     0.94214   0.64914   0.78548   0.00000  Uiso   1.00
C232   C     0.96545   0.55150   0.81133   0.00000  Uiso   1.00
C233   C     0.00728   0.53498   0.79617   0.00000  Uiso   1.00
C234   C     0.02274   0.44049   0.82487   0.00000  Uiso   1.00
C235   C     0.06281   0.30034   0.85862   0.00000  Uiso   1.00
C236   C     0.92155   0.68333   0.88479   0.00000  Uiso   1.00
C237   C     0.92646   0.77766   0.93139   0.00000  Uiso   1.00
C238   C     0.90495   0.79415   0.02193   0.00000  Uiso   1.00
C239   C     0.87684   0.85869   0.16969   0.00000  Uiso   1.00
C240   C     0.90726   0.61773   0.71372   0.00000  Uiso   1.00
C241   C     0.90016   0.65692   0.61648   0.00000  Uiso   1.00
C242   C     0.86661   0.61820   0.56299   0.00000  Uiso   1.00
C243   C     0.81632   0.58088   0.44512   0.00000  Uiso   1.00
C244   C     0.89519   0.51071   0.86339   0.00000  Uiso   1.00
C245   C     0.93995   0.47631   0.85365   0.00000  Uiso   1.00
C246   C     0.95534   0.38182   0.88237   0.00000  Uiso   1.00
C247   C     0.99719   0.36516   0.86726   0.00000  Uiso   1.00
C248   C     0.89605   0.60814   0.92711   0.00000  Uiso   1.00
C249   C     0.87452   0.62450   0.01759   0.00000  Uiso   1.00
C250   C     0.87941   0.71882   0.06432   0.00000  Uiso   1.00
C251   C     0.88176   0.54254   0.75603   0.00000  Uiso   1.00
C252   C     0.84822   0.50375   0.70268   0.00000  Uiso   1.00
C253   C     0.84107   0.54287   0.60538   0.00000  Uiso   1.00
H254   H     0.96199   0.70769   0.75254   0.00000  Uiso   1.00
H255   H     0.02701   0.59320   0.76343   0.00000  Uiso   1.00
H256   H     0.94619   0.83584   0.89862   0.00000  Uiso   1.00
H257   H     0.91990   0.71511   0.58376   0.00000  Uiso   1.00
H258   H     0.08785   0.43311   0.79421   0.00000  Uiso   1.00
H259   H     0.91744   0.94475   0.07925   0.00000  Uiso   1.00
H260   H     0.86198   0.69018   0.41530   0.00000  Uiso   1.00
H261   H     0.87534   0.45217   0.89634   0.00000  Uiso   1.00
H262   H     0.93560   0.32365   0.91512   0.00000  Uiso   1.00
H263   H     0.85479   0.56629   0.05031   0.00000  Uiso   1.00
H264   H     0.82849   0.44557   0.73545   0.00000  Uiso   1.00
H265   H     0.01366   0.21434   0.91733   0.00000  Uiso   1.00
H266   H     0.84325   0.72598   0.20236   0.00000  Uiso   1.00
H267   H     0.78779   0.47140   0.53841   0.00000  Uiso   1.00
O268   O     0.09196   0.24381   0.86556   0.00000  Uiso   1.00
O269   O     0.86838   0.91506   0.23951   0.00000  Uiso   1.00
O270   O     0.79563   0.58106   0.36842   0.00000  Uiso   1.00
N271   N     0.06212   0.39926   0.82059   0.00000  Uiso   1.00
N272   N     0.90280   0.87760   0.08709   0.00000  Uiso   1.00
N273   N     0.85094   0.63961   0.46636   0.00000  Uiso   1.00
N274   N     0.02220   0.28154   0.88683   0.00000  Uiso   1.00
N275   N     0.86288   0.75988   0.15334   0.00000  Uiso   1.00
N276   N     0.81102   0.52189   0.53261   0.00000  Uiso   1.00
C277   C     0.43827   0.35663   0.73369   0.00000  Uiso   1.00
C278   C     0.46809   0.44154   0.70407   0.00000  Uiso   1.00
C279   C     0.50912   0.44829   0.73362   0.00000  Uiso   1.00
C280   C     0.53124   0.53189   0.69845   0.00000  Uiso   1.00
C281   C     0.58034   0.65243   0.66190   0.00000  Uiso   1.00
C282   C     0.42196   0.31299   0.63321   0.00000  Uiso   1.00
C283   C     0.42420   0.21164   0.60319   0.00000  Uiso   1.00
C284   C     0.40749   0.18701   0.50838   0.00000  Uiso   1.00
C285   C     0.38494   0.10796   0.36185   0.00000  Uiso   1.00
C286   C     0.40167   0.40888   0.78499   0.00000  Uiso   1.00
C287   C     0.38684   0.38813   0.88258   0.00000  Uiso   1.00
C288   C     0.35303   0.44423   0.91554   0.00000  Uiso   1.00
C289   C     0.29898   0.51406   0.00468   0.00000  Uiso   1.00
C290   C     0.40460   0.49310   0.61868   0.00000  Uiso   1.00
C291   C     0.44980   0.51567   0.64159   0.00000  Uiso   1.00
C292   C     0.47187   0.59928   0.60637   0.00000  Uiso   1.00
C293   C     0.51292   0.60615   0.63587   0.00000  Uiso   1.00
C294   C     0.40368   0.38711   0.57074   0.00000  Uiso   1.00
C295   C     0.38695   0.36263   0.47594   0.00000  Uiso   1.00
C296   C     0.38917   0.26127   0.44579   0.00000  Uiso   1.00
C297   C     0.38338   0.48301   0.72252   0.00000  Uiso   1.00
C298   C     0.34959   0.53913   0.75533   0.00000  Uiso   1.00
C299   C     0.33471   0.51849   0.85296   0.00000  Uiso   1.00
H300   H     0.45250   0.29891   0.78232   0.00000  Uiso   1.00
H301   H     0.52326   0.39090   0.78196   0.00000  Uiso   1.00
H302   H     0.43835   0.15429   0.65156   0.00000  Uiso   1.00
H303   H     0.40100   0.33077   0.93090   0.00000  Uiso   1.00
H304   H     0.59365   0.52556   0.75397   0.00000  Uiso   1.00
H305   H     0.41460   0.02664   0.47903   0.00000  Uiso   1.00
H306   H     0.33583   0.39877   0.06808   0.00000  Uiso   1.00
H307   H     0.39036   0.55082   0.57004   0.00000  Uiso   1.00
H308   H     0.45771   0.65663   0.55803   0.00000  Uiso   1.00
H309   H     0.37280   0.42001   0.42763   0.00000  Uiso   1.00
H310   H     0.33545   0.59649   0.70697   0.00000  Uiso   1.00
H311   H     0.54045   0.74123   0.57221   0.00000  Uiso   1.00
H312   H     0.36139   0.24231   0.29727   0.00000  Uiso   1.00
H313   H     0.28263   0.61445   0.88633   0.00000  Uiso   1.00
O314   O     0.61248   0.69844   0.65899   0.00000  Uiso   1.00
O315   O     0.37757   0.04387   0.29829   0.00000  Uiso   1.00
O316   O     0.27422   0.53211   0.07111   0.00000  Uiso   1.00
N317   N     0.57188   0.56181   0.71286   0.00000  Uiso   1.00
N318   N     0.40449   0.09535   0.45580   0.00000  Uiso   1.00
N319   N     0.33084   0.44324   0.00650   0.00000  Uiso   1.00
N320   N     0.54326   0.67786   0.61506   0.00000  Uiso   1.00
N321   N     0.37586   0.21140   0.35800   0.00000  Uiso   1.00
N322   N     0.30221   0.55930   0.90870   0.00000  Uiso   1.00
C323   C     0.05786   0.35086   0.28548   0.00000  Uiso   1.00
C324   C     0.03455   0.44850   0.31133   0.00000  Uiso   1.00
C325   C     0.99272   0.46502   0.29617   0.00000  Uiso   1.00
C326   C     0.97726   0.55951   0.32487   0.00000  Uiso   1.00
C327   C     0.93719   0.69966   0.35862   0.00000  Uiso   1.00
C328   C     0.07845   0.31667   0.38479   0.00000  Uiso   1.00
C329   C     0.07354   0.22234   0.43139   0.00000  Uiso   1.00
C330   C     0.09505   0.20585   0.52193   0.00000  Uiso   1.00
C331   C     0.12316   0.14131   0.66969   0.00000  Uiso   1.00
C332   C     0.09274   0.38227   0.21372   0.00000  Uiso   1.00
C333   C     0.09984   0.34308   0.11648   0.00000  Uiso   1.00
C334   C     0.13339   0.38180   0.06299   0.00000  Uiso   1.00
C335   C     0.18368   0.41912   0.94512   0.00000  Uiso   1.00
C336   C     0.10481   0.48929   0.36339   0.00000  Uiso   1.00
C337   C     0.06005   0.52369   0.35365   0.00000  Uiso   1.00
C338   C     0.04466   0.61818   0.38237   0.00000  Uiso   1.00
C339   C     0.00281   0.63484   0.36726   0.00000  Uiso   1.00
C340   C     0.10395   0.39186   0.42711   0.00000  Uiso   1.00
C341   C     0.12548   0.37550   0.51759   0.00000  Uiso   1.00
C342   C     0.12059   0.28118   0.56432   0.00000  Uiso   1.00
C343   C     0.11824   0.45746   0.25603   0.00000  Uiso   1.00
C344   C     0.15178   0.49625   0.20268   0.00000  Uiso   1.00
C345   C     0.15893   0.45713   0.10538   0.00000  Uiso   1.00
H346   H     0.03801   0.29231   0.25254   0.00000  Uiso   1.00
H347   H     0.97299   0.40680   0.26343   0.00000  Uiso   1.00
H348   H     0.05381   0.16416   0.39862   0.00000  Uiso   1.00
H349   H     0.08010   0.28489   0.08376   0.00000  Uiso   1.00
H350   H     0.91215   0.56689   0.29421   0.00000  Uiso   1.00
H351   H     0.08256   0.05525   0.57925   0.00000  Uiso   1.00
H352   H     0.13802   0.30982   0.91530   0.00000  Uiso   1.00
H353   H     0.12466   0.54783   0.39634   0.00000  Uiso   1.00
H354   H     0.06440   0.67635   0.41512   0.00000  Uiso   1.00
H355   H     0.14521   0.43371   0.55031   0.00000  Uiso   1.00
H356   H     0.17151   0.55443   0.23545   0.00000  Uiso   1.00
H357   H     0.98634   0.78566   0.41733   0.00000  Uiso   1.00
H358   H     0.15675   0.27402   0.70236   0.00000  Uiso   1.00
H359   H     0.21221   0.52860   0.03841   0.00000  Uiso   1.00
O360   O     0.90804   0.75619   0.36556   0.00000  Uiso   1.00
O361   O     0.13162   0.08494   0.73951   0.00000  Uiso   1.00
O362   O     0.20437   0.41894   0.86842   0.00000  Uiso   1.00
N363   N     0.93788   0.60074   0.32059   0.00000  Uiso   1.00
N364   N     0.09720   0.12240   0.58709   0.00000  Uiso   1.00
N365   N     0.14906   0.36039   0.96636   0.00000  Uiso   1.00
N366   N     0.97780   0.71846   0.38683   0.00000  Uiso   1.00
N367   N     0.13712   0.24012   0.65334   0.00000  Uiso   1.00
N368   N     0.18898   0.47811   0.03261   0.00000  Uiso   1.00
