data_job_03598
_audit_creation_date              2018-12-19
_audit_creation_method            'Materials Studio'
_symmetry_space_group_name_H-M    'P1'
_symmetry_Int_Tables_number       1
_symmetry_cell_setting            triclinic
loop_
_symmetry_equiv_pos_as_xyz
  x,y,z
_cell_length_a                    17.6107
_cell_length_b                    17.6107
_cell_length_c                    20.5664
_cell_angle_alpha                 90.0000
_cell_angle_beta                  90.0000
_cell_angle_gamma                 90.0000
loop_
_atom_site_label
_atom_site_type_symbol
_atom_site_fract_x
_atom_site_fract_y
_atom_site_fract_z
_atom_site_U_iso_or_equiv
_atom_site_adp_type
_atom_site_occupancy
C1     C     0.96823   0.69881   0.99791   0.00000  Uiso   1.00
C2     C     0.98567   0.63424   0.95081   0.00000  Uiso   1.00
C3     C     0.05378   0.59489   0.94683   0.00000  Uiso   1.00
C4     C     0.05846   0.53774   0.90049   0.00000  Uiso   1.00
C5     C     0.09488   0.44012   0.83355   0.00000  Uiso   1.00
C6     C     0.94415   0.76606   0.95601   0.00000  Uiso   1.00
C7     C     0.97734   0.83754   0.95640   0.00000  Uiso   1.00
C8     C     0.94704   0.89137   0.91445   0.00000  Uiso   1.00
C9     C     0.91896   0.99841   0.85561   0.00000  Uiso   1.00
C10    C     0.89756   0.67454   0.03536   0.00000  Uiso   1.00
C11    C     0.89156   0.66907   0.10249   0.00000  Uiso   1.00
C12    C     0.82203   0.64586   0.12734   0.00000  Uiso   1.00
C13    C     0.72160   0.61079   0.19172   0.00000  Uiso   1.00
C14    C     0.85541   0.66731   0.92270   0.00000  Uiso   1.00
C15    C     0.92439   0.61714   0.90996   0.00000  Uiso   1.00
C16    C     0.92896   0.56004   0.86362   0.00000  Uiso   1.00
C17    C     0.99707   0.52060   0.85957   0.00000  Uiso   1.00
C18    C     0.88287   0.74896   0.91516   0.00000  Uiso   1.00
C19    C     0.85251   0.80270   0.87319   0.00000  Uiso   1.00
C20    C     0.88565   0.87423   0.87352   0.00000  Uiso   1.00
C21    C     0.83627   0.65743   0.99451   0.00000  Uiso   1.00
C22    C     0.76674   0.63422   0.01927   0.00000  Uiso   1.00
C23    C     0.76064   0.62872   0.08642   0.00000  Uiso   1.00
H24    H     0.01594   0.71213   0.02971   0.00000  Uiso   1.00
H25    H     0.10120   0.60815   0.97844   0.00000  Uiso   1.00
H26    H     0.02475   0.85076   0.98802   0.00000  Uiso   1.00
H27    H     0.93899   0.68232   0.13408   0.00000  Uiso   1.00
H28    H     0.16871   0.48533   0.90358   0.00000  Uiso   1.00
H29    H     0.00751   0.99691   0.92379   0.00000  Uiso   1.00
H30    H     0.82666   0.64171   0.23178   0.00000  Uiso   1.00
H31    H     0.80770   0.65400   0.89090   0.00000  Uiso   1.00
H32    H     0.88153   0.54682   0.83201   0.00000  Uiso   1.00
H33    H     0.80509   0.78944   0.84159   0.00000  Uiso   1.00
H34    H     0.71933   0.62099   0.98765   0.00000  Uiso   1.00
H35    H     0.99042   0.43556   0.78472   0.00000  Uiso   1.00
H36    H     0.82922   0.94714   0.80494   0.00000  Uiso   1.00
H37    H     0.64837   0.59194   0.11293   0.00000  Uiso   1.00
O38    O     0.13190   0.39101   0.80790   0.00000  Uiso   1.00
O39    O     0.92040   0.06218   0.83444   0.00000  Uiso   1.00
O40    O     0.68314   0.59617   0.23851   0.00000  Uiso   1.00
N41    N     0.11661   0.48832   0.88369   0.00000  Uiso   1.00
N42    N     0.96591   0.96661   0.90259   0.00000  Uiso   1.00
N43    N     0.79682   0.63455   0.19053   0.00000  Uiso   1.00
N44    N     0.02068   0.46153   0.81974   0.00000  Uiso   1.00
N45    N     0.86997   0.93983   0.83863   0.00000  Uiso   1.00
N46    N     0.70089   0.60777   0.12658   0.00000  Uiso   1.00
C47    C     0.03177   0.30119   0.49791   0.00000  Uiso   1.00
C48    C     0.01433   0.36576   0.45081   0.00000  Uiso   1.00
C49    C     0.94622   0.40511   0.44683   0.00000  Uiso   1.00
C50    C     0.94154   0.46226   0.40049   0.00000  Uiso   1.00
C51    C     0.90512   0.55988   0.33355   0.00000  Uiso   1.00
C52    C     0.05585   0.23394   0.45601   0.00000  Uiso   1.00
C53    C     0.02266   0.16246   0.45640   0.00000  Uiso   1.00
C54    C     0.05296   0.10863   0.41445   0.00000  Uiso   1.00
C55    C     0.08104   0.00159   0.35561   0.00000  Uiso   1.00
C56    C     0.10244   0.32546   0.53536   0.00000  Uiso   1.00
C57    C     0.10844   0.33093   0.60249   0.00000  Uiso   1.00
C58    C     0.17797   0.35414   0.62734   0.00000  Uiso   1.00
C59    C     0.27840   0.38921   0.69172   0.00000  Uiso   1.00
C60    C     0.14459   0.33269   0.42270   0.00000  Uiso   1.00
C61    C     0.07561   0.38286   0.40996   0.00000  Uiso   1.00
C62    C     0.07104   0.43996   0.36362   0.00000  Uiso   1.00
C63    C     0.00293   0.47940   0.35957   0.00000  Uiso   1.00
C64    C     0.11713   0.25104   0.41516   0.00000  Uiso   1.00
C65    C     0.14749   0.19730   0.37319   0.00000  Uiso   1.00
C66    C     0.11435   0.12577   0.37352   0.00000  Uiso   1.00
C67    C     0.16373   0.34257   0.49451   0.00000  Uiso   1.00
C68    C     0.23326   0.36578   0.51927   0.00000  Uiso   1.00
C69    C     0.23936   0.37128   0.58642   0.00000  Uiso   1.00
H70    H     0.98406   0.28787   0.52971   0.00000  Uiso   1.00
H71    H     0.89880   0.39185   0.47844   0.00000  Uiso   1.00
H72    H     0.97525   0.14924   0.48802   0.00000  Uiso   1.00
H73    H     0.06101   0.31768   0.63408   0.00000  Uiso   1.00
H74    H     0.83129   0.51467   0.40358   0.00000  Uiso   1.00
H75    H     0.99249   0.00309   0.42379   0.00000  Uiso   1.00
H76    H     0.17334   0.35829   0.73178   0.00000  Uiso   1.00
H77    H     0.19230   0.34600   0.39090   0.00000  Uiso   1.00
H78    H     0.11847   0.45318   0.33201   0.00000  Uiso   1.00
H79    H     0.19491   0.21056   0.34159   0.00000  Uiso   1.00
H80    H     0.28067   0.37901   0.48765   0.00000  Uiso   1.00
H81    H     0.00958   0.56444   0.28472   0.00000  Uiso   1.00
H82    H     0.17078   0.05286   0.30494   0.00000  Uiso   1.00
H83    H     0.35163   0.40806   0.61293   0.00000  Uiso   1.00
O84    O     0.86810   0.60899   0.30790   0.00000  Uiso   1.00
O85    O     0.07960   0.93782   0.33444   0.00000  Uiso   1.00
O86    O     0.31686   0.40383   0.73851   0.00000  Uiso   1.00
N87    N     0.88339   0.51168   0.38369   0.00000  Uiso   1.00
N88    N     0.03409   0.03339   0.40259   0.00000  Uiso   1.00
N89    N     0.20318   0.36545   0.69053   0.00000  Uiso   1.00
N90    N     0.97932   0.53847   0.31974   0.00000  Uiso   1.00
N91    N     0.13003   0.06017   0.33863   0.00000  Uiso   1.00
N92    N     0.29911   0.39223   0.62658   0.00000  Uiso   1.00
C93    C     0.80119   0.46823   0.74791   0.00000  Uiso   1.00
C94    C     0.86576   0.48567   0.70081   0.00000  Uiso   1.00
C95    C     0.90511   0.55378   0.69683   0.00000  Uiso   1.00
C96    C     0.96226   0.55846   0.65049   0.00000  Uiso   1.00
C97    C     0.05988   0.59488   0.58355   0.00000  Uiso   1.00
C98    C     0.73394   0.44415   0.70601   0.00000  Uiso   1.00
C99    C     0.66246   0.47734   0.70640   0.00000  Uiso   1.00
C100   C     0.60863   0.44704   0.66445   0.00000  Uiso   1.00
C101   C     0.50159   0.41896   0.60561   0.00000  Uiso   1.00
C102   C     0.82546   0.39756   0.78536   0.00000  Uiso   1.00
C103   C     0.83093   0.39156   0.85249   0.00000  Uiso   1.00
C104   C     0.85414   0.32203   0.87734   0.00000  Uiso   1.00
C105   C     0.88921   0.22160   0.94172   0.00000  Uiso   1.00
C106   C     0.83269   0.35541   0.67270   0.00000  Uiso   1.00
C107   C     0.88286   0.42439   0.65996   0.00000  Uiso   1.00
C108   C     0.93996   0.42896   0.61362   0.00000  Uiso   1.00
C109   C     0.97940   0.49707   0.60957   0.00000  Uiso   1.00
C110   C     0.75104   0.38287   0.66516   0.00000  Uiso   1.00
C111   C     0.69730   0.35251   0.62319   0.00000  Uiso   1.00
C112   C     0.62577   0.38565   0.62352   0.00000  Uiso   1.00
C113   C     0.84257   0.33627   0.74451   0.00000  Uiso   1.00
C114   C     0.86578   0.26674   0.76927   0.00000  Uiso   1.00
C115   C     0.87128   0.26064   0.83642   0.00000  Uiso   1.00
H116   H     0.78787   0.51594   0.77971   0.00000  Uiso   1.00
H117   H     0.89185   0.60120   0.72844   0.00000  Uiso   1.00
H118   H     0.64924   0.52475   0.73802   0.00000  Uiso   1.00
H119   H     0.81768   0.43899   0.88408   0.00000  Uiso   1.00
H120   H     0.01467   0.66871   0.65358   0.00000  Uiso   1.00
H121   H     0.50309   0.50751   0.67379   0.00000  Uiso   1.00
H122   H     0.85829   0.32666   0.98178   0.00000  Uiso   1.00
H123   H     0.84600   0.30770   0.64090   0.00000  Uiso   1.00
H124   H     0.95318   0.38153   0.58201   0.00000  Uiso   1.00
H125   H     0.71056   0.30509   0.59159   0.00000  Uiso   1.00
H126   H     0.87901   0.21933   0.73765   0.00000  Uiso   1.00
H127   H     0.06444   0.49042   0.53472   0.00000  Uiso   1.00
H128   H     0.55286   0.32922   0.55494   0.00000  Uiso   1.00
H129   H     0.90806   0.14837   0.86293   0.00000  Uiso   1.00
O130   O     0.10899   0.63190   0.55790   0.00000  Uiso   1.00
O131   O     0.43782   0.42040   0.58444   0.00000  Uiso   1.00
O132   O     0.90383   0.18314   0.98851   0.00000  Uiso   1.00
N133   N     0.01168   0.61661   0.63369   0.00000  Uiso   1.00
N134   N     0.53339   0.46591   0.65259   0.00000  Uiso   1.00
N135   N     0.86545   0.29682   0.94053   0.00000  Uiso   1.00
N136   N     0.03847   0.52068   0.56974   0.00000  Uiso   1.00
N137   N     0.56017   0.36997   0.58863   0.00000  Uiso   1.00
N138   N     0.89223   0.20089   0.87658   0.00000  Uiso   1.00
C139   C     0.19881   0.53177   0.24791   0.00000  Uiso   1.00
C140   C     0.13424   0.51433   0.20081   0.00000  Uiso   1.00
C141   C     0.09489   0.44622   0.19683   0.00000  Uiso   1.00
C142   C     0.03774   0.44154   0.15049   0.00000  Uiso   1.00
C143   C     0.94012   0.40512   0.08355   0.00000  Uiso   1.00
C144   C     0.26606   0.55585   0.20601   0.00000  Uiso   1.00
C145   C     0.33754   0.52266   0.20640   0.00000  Uiso   1.00
C146   C     0.39137   0.55296   0.16445   0.00000  Uiso   1.00
C147   C     0.49841   0.58104   0.10561   0.00000  Uiso   1.00
C148   C     0.17454   0.60244   0.28536   0.00000  Uiso   1.00
C149   C     0.16907   0.60844   0.35249   0.00000  Uiso   1.00
C150   C     0.14586   0.67797   0.37734   0.00000  Uiso   1.00
C151   C     0.11079   0.77840   0.44172   0.00000  Uiso   1.00
C152   C     0.16731   0.64459   0.17270   0.00000  Uiso   1.00
C153   C     0.11714   0.57561   0.15996   0.00000  Uiso   1.00
C154   C     0.06004   0.57104   0.11362   0.00000  Uiso   1.00
C155   C     0.02060   0.50293   0.10957   0.00000  Uiso   1.00
C156   C     0.24896   0.61713   0.16516   0.00000  Uiso   1.00
C157   C     0.30270   0.64749   0.12319   0.00000  Uiso   1.00
C158   C     0.37423   0.61435   0.12352   0.00000  Uiso   1.00
C159   C     0.15743   0.66373   0.24451   0.00000  Uiso   1.00
C160   C     0.13422   0.73326   0.26927   0.00000  Uiso   1.00
C161   C     0.12872   0.73936   0.33642   0.00000  Uiso   1.00
H162   H     0.21213   0.48406   0.27971   0.00000  Uiso   1.00
H163   H     0.10815   0.39880   0.22844   0.00000  Uiso   1.00
H164   H     0.35076   0.47525   0.23802   0.00000  Uiso   1.00
H165   H     0.18232   0.56101   0.38408   0.00000  Uiso   1.00
H166   H     0.98533   0.33129   0.15358   0.00000  Uiso   1.00
H167   H     0.49691   0.49249   0.17379   0.00000  Uiso   1.00
H168   H     0.14171   0.67334   0.48178   0.00000  Uiso   1.00
H169   H     0.15400   0.69230   0.14090   0.00000  Uiso   1.00
H170   H     0.04682   0.61847   0.08201   0.00000  Uiso   1.00
H171   H     0.28944   0.69491   0.09159   0.00000  Uiso   1.00
H172   H     0.12099   0.78067   0.23765   0.00000  Uiso   1.00
H173   H     0.93556   0.50958   0.03472   0.00000  Uiso   1.00
H174   H     0.44714   0.67078   0.05494   0.00000  Uiso   1.00
H175   H     0.09194   0.85163   0.36293   0.00000  Uiso   1.00
O176   O     0.89101   0.36810   0.05790   0.00000  Uiso   1.00
O177   O     0.56218   0.57960   0.08444   0.00000  Uiso   1.00
O178   O     0.09617   0.81686   0.48851   0.00000  Uiso   1.00
N179   N     0.98832   0.38339   0.13369   0.00000  Uiso   1.00
N180   N     0.46661   0.53409   0.15259   0.00000  Uiso   1.00
N181   N     0.13455   0.70318   0.44053   0.00000  Uiso   1.00
N182   N     0.96153   0.47932   0.06974   0.00000  Uiso   1.00
N183   N     0.43983   0.63003   0.08863   0.00000  Uiso   1.00
N184   N     0.10777   0.79911   0.37658   0.00000  Uiso   1.00
C185   C     0.53177   0.19881   0.75209   0.00000  Uiso   1.00
C186   C     0.51433   0.13424   0.79919   0.00000  Uiso   1.00
C187   C     0.44622   0.09489   0.80317   0.00000  Uiso   1.00
C188   C     0.44154   0.03774   0.84951   0.00000  Uiso   1.00
C189   C     0.40512   0.94012   0.91645   0.00000  Uiso   1.00
C190   C     0.55585   0.26606   0.79399   0.00000  Uiso   1.00
C191   C     0.52266   0.33754   0.79360   0.00000  Uiso   1.00
C192   C     0.55296   0.39137   0.83555   0.00000  Uiso   1.00
C193   C     0.58104   0.49841   0.89439   0.00000  Uiso   1.00
C194   C     0.60244   0.17454   0.71464   0.00000  Uiso   1.00
C195   C     0.60844   0.16907   0.64751   0.00000  Uiso   1.00
C196   C     0.67797   0.14586   0.62266   0.00000  Uiso   1.00
C197   C     0.77840   0.11079   0.55828   0.00000  Uiso   1.00
C198   C     0.64459   0.16731   0.82730   0.00000  Uiso   1.00
C199   C     0.57561   0.11714   0.84004   0.00000  Uiso   1.00
C200   C     0.57104   0.06004   0.88638   0.00000  Uiso   1.00
C201   C     0.50293   0.02060   0.89043   0.00000  Uiso   1.00
C202   C     0.61713   0.24896   0.83484   0.00000  Uiso   1.00
C203   C     0.64749   0.30270   0.87681   0.00000  Uiso   1.00
C204   C     0.61435   0.37423   0.87648   0.00000  Uiso   1.00
C205   C     0.66373   0.15743   0.75549   0.00000  Uiso   1.00
C206   C     0.73326   0.13422   0.73073   0.00000  Uiso   1.00
C207   C     0.73936   0.12872   0.66358   0.00000  Uiso   1.00
H208   H     0.48406   0.21213   0.72029   0.00000  Uiso   1.00
H209   H     0.39880   0.10815   0.77156   0.00000  Uiso   1.00
H210   H     0.47525   0.35076   0.76198   0.00000  Uiso   1.00
H211   H     0.56101   0.18232   0.61592   0.00000  Uiso   1.00
H212   H     0.33129   0.98533   0.84642   0.00000  Uiso   1.00
H213   H     0.49249   0.49691   0.82621   0.00000  Uiso   1.00
H214   H     0.67334   0.14171   0.51822   0.00000  Uiso   1.00
H215   H     0.69230   0.15400   0.85910   0.00000  Uiso   1.00
H216   H     0.61847   0.04682   0.91799   0.00000  Uiso   1.00
H217   H     0.69491   0.28944   0.90841   0.00000  Uiso   1.00
H218   H     0.78067   0.12099   0.76235   0.00000  Uiso   1.00
H219   H     0.50958   0.93556   0.96528   0.00000  Uiso   1.00
H220   H     0.67078   0.44714   0.94506   0.00000  Uiso   1.00
H221   H     0.85163   0.09194   0.63707   0.00000  Uiso   1.00
O222   O     0.36810   0.89101   0.94210   0.00000  Uiso   1.00
O223   O     0.57960   0.56218   0.91556   0.00000  Uiso   1.00
O224   O     0.81686   0.09617   0.51149   0.00000  Uiso   1.00
N225   N     0.38339   0.98832   0.86631   0.00000  Uiso   1.00
N226   N     0.53409   0.46661   0.84741   0.00000  Uiso   1.00
N227   N     0.70318   0.13455   0.55947   0.00000  Uiso   1.00
N228   N     0.47932   0.96153   0.93026   0.00000  Uiso   1.00
N229   N     0.63003   0.43983   0.91137   0.00000  Uiso   1.00
N230   N     0.79911   0.10777   0.62342   0.00000  Uiso   1.00
C231   C     0.46823   0.80119   0.25209   0.00000  Uiso   1.00
C232   C     0.48567   0.86576   0.29919   0.00000  Uiso   1.00
C233   C     0.55378   0.90511   0.30317   0.00000  Uiso   1.00
C234   C     0.55846   0.96226   0.34951   0.00000  Uiso   1.00
C235   C     0.59488   0.05988   0.41645   0.00000  Uiso   1.00
C236   C     0.44415   0.73394   0.29399   0.00000  Uiso   1.00
C237   C     0.47734   0.66246   0.29360   0.00000  Uiso   1.00
C238   C     0.44704   0.60863   0.33555   0.00000  Uiso   1.00
C239   C     0.41896   0.50159   0.39439   0.00000  Uiso   1.00
C240   C     0.39756   0.82546   0.21464   0.00000  Uiso   1.00
C241   C     0.39156   0.83093   0.14751   0.00000  Uiso   1.00
C242   C     0.32203   0.85414   0.12266   0.00000  Uiso   1.00
C243   C     0.22160   0.88921   0.05828   0.00000  Uiso   1.00
C244   C     0.35541   0.83269   0.32730   0.00000  Uiso   1.00
C245   C     0.42439   0.88286   0.34004   0.00000  Uiso   1.00
C246   C     0.42896   0.93996   0.38638   0.00000  Uiso   1.00
C247   C     0.49707   0.97940   0.39043   0.00000  Uiso   1.00
C248   C     0.38287   0.75104   0.33484   0.00000  Uiso   1.00
C249   C     0.35251   0.69730   0.37681   0.00000  Uiso   1.00
C250   C     0.38565   0.62577   0.37648   0.00000  Uiso   1.00
C251   C     0.33627   0.84257   0.25549   0.00000  Uiso   1.00
C252   C     0.26674   0.86578   0.23073   0.00000  Uiso   1.00
C253   C     0.26064   0.87128   0.16358   0.00000  Uiso   1.00
H254   H     0.51594   0.78787   0.22029   0.00000  Uiso   1.00
H255   H     0.60120   0.89185   0.27156   0.00000  Uiso   1.00
H256   H     0.52475   0.64924   0.26198   0.00000  Uiso   1.00
H257   H     0.43899   0.81768   0.11592   0.00000  Uiso   1.00
H258   H     0.66871   0.01467   0.34642   0.00000  Uiso   1.00
H259   H     0.50751   0.50309   0.32621   0.00000  Uiso   1.00
H260   H     0.32666   0.85829   0.01822   0.00000  Uiso   1.00
H261   H     0.30770   0.84600   0.35910   0.00000  Uiso   1.00
H262   H     0.38153   0.95318   0.41799   0.00000  Uiso   1.00
H263   H     0.30509   0.71056   0.40841   0.00000  Uiso   1.00
H264   H     0.21933   0.87901   0.26235   0.00000  Uiso   1.00
H265   H     0.49042   0.06444   0.46528   0.00000  Uiso   1.00
H266   H     0.32922   0.55286   0.44506   0.00000  Uiso   1.00
H267   H     0.14837   0.90806   0.13707   0.00000  Uiso   1.00
O268   O     0.63190   0.10899   0.44210   0.00000  Uiso   1.00
O269   O     0.42040   0.43782   0.41556   0.00000  Uiso   1.00
O270   O     0.18314   0.90383   0.01149   0.00000  Uiso   1.00
N271   N     0.61661   0.01168   0.36631   0.00000  Uiso   1.00
N272   N     0.46591   0.53339   0.34741   0.00000  Uiso   1.00
N273   N     0.29682   0.86545   0.05947   0.00000  Uiso   1.00
N274   N     0.52068   0.03847   0.43026   0.00000  Uiso   1.00
N275   N     0.36997   0.56017   0.41137   0.00000  Uiso   1.00
N276   N     0.20089   0.89223   0.12342   0.00000  Uiso   1.00
C277   C     0.69881   0.96823   0.00209   0.00000  Uiso   1.00
C278   C     0.63424   0.98567   0.04919   0.00000  Uiso   1.00
C279   C     0.59489   0.05378   0.05317   0.00000  Uiso   1.00
C280   C     0.53774   0.05846   0.09951   0.00000  Uiso   1.00
C281   C     0.44012   0.09488   0.16645   0.00000  Uiso   1.00
C282   C     0.76606   0.94415   0.04399   0.00000  Uiso   1.00
C283   C     0.83754   0.97734   0.04360   0.00000  Uiso   1.00
C284   C     0.89137   0.94704   0.08555   0.00000  Uiso   1.00
C285   C     0.99841   0.91896   0.14439   0.00000  Uiso   1.00
C286   C     0.67454   0.89756   0.96464   0.00000  Uiso   1.00
C287   C     0.66907   0.89156   0.89751   0.00000  Uiso   1.00
C288   C     0.64586   0.82203   0.87266   0.00000  Uiso   1.00
C289   C     0.61079   0.72160   0.80828   0.00000  Uiso   1.00
C290   C     0.66731   0.85541   0.07730   0.00000  Uiso   1.00
C291   C     0.61714   0.92439   0.09004   0.00000  Uiso   1.00
C292   C     0.56004   0.92896   0.13638   0.00000  Uiso   1.00
C293   C     0.52060   0.99707   0.14043   0.00000  Uiso   1.00
C294   C     0.74896   0.88287   0.08484   0.00000  Uiso   1.00
C295   C     0.80270   0.85251   0.12681   0.00000  Uiso   1.00
C296   C     0.87423   0.88565   0.12648   0.00000  Uiso   1.00
C297   C     0.65743   0.83627   0.00549   0.00000  Uiso   1.00
C298   C     0.63422   0.76674   0.98073   0.00000  Uiso   1.00
C299   C     0.62872   0.76064   0.91358   0.00000  Uiso   1.00
H300   H     0.71213   0.01594   0.97029   0.00000  Uiso   1.00
H301   H     0.60815   0.10120   0.02156   0.00000  Uiso   1.00
H302   H     0.85076   0.02475   0.01198   0.00000  Uiso   1.00
H303   H     0.68232   0.93899   0.86592   0.00000  Uiso   1.00
H304   H     0.48533   0.16871   0.09642   0.00000  Uiso   1.00
H305   H     0.99691   0.00751   0.07621   0.00000  Uiso   1.00
H306   H     0.64171   0.82666   0.76822   0.00000  Uiso   1.00
H307   H     0.65400   0.80770   0.10910   0.00000  Uiso   1.00
H308   H     0.54682   0.88153   0.16799   0.00000  Uiso   1.00
H309   H     0.78944   0.80509   0.15841   0.00000  Uiso   1.00
H310   H     0.62099   0.71933   0.01235   0.00000  Uiso   1.00
H311   H     0.43556   0.99042   0.21528   0.00000  Uiso   1.00
H312   H     0.94714   0.82922   0.19506   0.00000  Uiso   1.00
H313   H     0.59194   0.64837   0.88707   0.00000  Uiso   1.00
O314   O     0.39101   0.13190   0.19210   0.00000  Uiso   1.00
O315   O     0.06218   0.92040   0.16556   0.00000  Uiso   1.00
O316   O     0.59617   0.68314   0.76149   0.00000  Uiso   1.00
N317   N     0.48832   0.11661   0.11631   0.00000  Uiso   1.00
N318   N     0.96661   0.96591   0.09741   0.00000  Uiso   1.00
N319   N     0.63455   0.79682   0.80947   0.00000  Uiso   1.00
N320   N     0.46153   0.02068   0.18026   0.00000  Uiso   1.00
N321   N     0.93983   0.86997   0.16137   0.00000  Uiso   1.00
N322   N     0.60777   0.70089   0.87342   0.00000  Uiso   1.00
C323   C     0.30119   0.03177   0.50209   0.00000  Uiso   1.00
C324   C     0.36576   0.01433   0.54919   0.00000  Uiso   1.00
C325   C     0.40511   0.94622   0.55317   0.00000  Uiso   1.00
C326   C     0.46226   0.94154   0.59951   0.00000  Uiso   1.00
C327   C     0.55988   0.90512   0.66645   0.00000  Uiso   1.00
C328   C     0.23394   0.05585   0.54399   0.00000  Uiso   1.00
C329   C     0.16246   0.02266   0.54360   0.00000  Uiso   1.00
C330   C     0.10863   0.05296   0.58555   0.00000  Uiso   1.00
C331   C     0.00159   0.08104   0.64439   0.00000  Uiso   1.00
C332   C     0.32546   0.10244   0.46464   0.00000  Uiso   1.00
C333   C     0.33093   0.10844   0.39751   0.00000  Uiso   1.00
C334   C     0.35414   0.17797   0.37266   0.00000  Uiso   1.00
C335   C     0.38921   0.27840   0.30828   0.00000  Uiso   1.00
C336   C     0.33269   0.14459   0.57730   0.00000  Uiso   1.00
C337   C     0.38286   0.07561   0.59004   0.00000  Uiso   1.00
C338   C     0.43996   0.07104   0.63638   0.00000  Uiso   1.00
C339   C     0.47940   0.00293   0.64043   0.00000  Uiso   1.00
C340   C     0.25104   0.11713   0.58484   0.00000  Uiso   1.00
C341   C     0.19730   0.14749   0.62681   0.00000  Uiso   1.00
C342   C     0.12577   0.11435   0.62648   0.00000  Uiso   1.00
C343   C     0.34257   0.16373   0.50549   0.00000  Uiso   1.00
C344   C     0.36578   0.23326   0.48073   0.00000  Uiso   1.00
C345   C     0.37128   0.23936   0.41358   0.00000  Uiso   1.00
H346   H     0.28787   0.98406   0.47029   0.00000  Uiso   1.00
H347   H     0.39185   0.89880   0.52156   0.00000  Uiso   1.00
H348   H     0.14924   0.97525   0.51198   0.00000  Uiso   1.00
H349   H     0.31768   0.06101   0.36592   0.00000  Uiso   1.00
H350   H     0.51467   0.83129   0.59642   0.00000  Uiso   1.00
H351   H     0.00309   0.99249   0.57621   0.00000  Uiso   1.00
H352   H     0.35829   0.17334   0.26822   0.00000  Uiso   1.00
H353   H     0.34600   0.19230   0.60910   0.00000  Uiso   1.00
H354   H     0.45318   0.11847   0.66799   0.00000  Uiso   1.00
H355   H     0.21056   0.19491   0.65841   0.00000  Uiso   1.00
H356   H     0.37901   0.28067   0.51235   0.00000  Uiso   1.00
H357   H     0.56444   0.00958   0.71528   0.00000  Uiso   1.00
H358   H     0.05286   0.17078   0.69506   0.00000  Uiso   1.00
H359   H     0.40806   0.35163   0.38707   0.00000  Uiso   1.00
O360   O     0.60899   0.86810   0.69210   0.00000  Uiso   1.00
O361   O     0.93782   0.07960   0.66556   0.00000  Uiso   1.00
O362   O     0.40383   0.31686   0.26149   0.00000  Uiso   1.00
N363   N     0.51168   0.88339   0.61631   0.00000  Uiso   1.00
N364   N     0.03339   0.03409   0.59741   0.00000  Uiso   1.00
N365   N     0.36545   0.20318   0.30947   0.00000  Uiso   1.00
N366   N     0.53847   0.97932   0.68026   0.00000  Uiso   1.00
N367   N     0.06017   0.13003   0.66137   0.00000  Uiso   1.00
N368   N     0.39223   0.29911   0.37342   0.00000  Uiso   1.00
