data_job_05495
_audit_creation_date              2018-12-19
_audit_creation_method            'Materials Studio'
_symmetry_space_group_name_H-M    'P1'
_symmetry_Int_Tables_number       1
_symmetry_cell_setting            triclinic
loop_
_symmetry_equiv_pos_as_xyz
  x,y,z
_cell_length_a                    16.1050
_cell_length_b                    13.0235
_cell_length_c                    11.6433
_cell_angle_alpha                 90.0000
_cell_angle_beta                  90.0000
_cell_angle_gamma                 90.0000
loop_
_atom_site_label
_atom_site_type_symbol
_atom_site_fract_x
_atom_site_fract_y
_atom_site_fract_z
_atom_site_U_iso_or_equiv
_atom_site_adp_type
_atom_site_occupancy
C1     C     0.30946   0.85958   0.77863   0.00000  Uiso   1.00
C2     C     0.31473   0.95958   0.84637   0.00000  Uiso   1.00
C3     C     0.36795   0.97875   0.93763   0.00000  Uiso   1.00
C4     C     0.36322   0.07510   0.98825   0.00000  Uiso   1.00
C5     C     0.37989   0.21903   0.09945   0.00000  Uiso   1.00
C6     C     0.21928   0.82463   0.78666   0.00000  Uiso   1.00
C7     C     0.19225   0.73033   0.82769   0.00000  Uiso   1.00
C8     C     0.10717   0.71307   0.82803   0.00000  Uiso   1.00
C9     C     0.97565   0.64746   0.84644   0.00000  Uiso   1.00
C10    C     0.32377   0.88842   0.65325   0.00000  Uiso   1.00
C11    C     0.38459   0.84775   0.58211   0.00000  Uiso   1.00
C12    C     0.38748   0.88419   0.47011   0.00000  Uiso   1.00
C13    C     0.41820   0.91764   0.28140   0.00000  Uiso   1.00
C14    C     0.20644   0.99660   0.70623   0.00000  Uiso   1.00
C15    C     0.25877   0.03400   0.80705   0.00000  Uiso   1.00
C16    C     0.25397   0.13035   0.85753   0.00000  Uiso   1.00
C17    C     0.30717   0.14966   0.94885   0.00000  Uiso   1.00
C18    C     0.16332   0.89905   0.74734   0.00000  Uiso   1.00
C19    C     0.07827   0.88193   0.74760   0.00000  Uiso   1.00
C20    C     0.05111   0.78763   0.78863   0.00000  Uiso   1.00
C21    C     0.26782   0.96285   0.61393   0.00000  Uiso   1.00
C22    C     0.27061   0.99935   0.50202   0.00000  Uiso   1.00
C23    C     0.33142   0.95875   0.43072   0.00000  Uiso   1.00
H24    H     0.35302   0.80163   0.80924   0.00000  Uiso   1.00
H25    H     0.41124   0.92113   0.96804   0.00000  Uiso   1.00
H26    H     0.23556   0.67274   0.85811   0.00000  Uiso   1.00
H27    H     0.42788   0.79016   0.61257   0.00000  Uiso   1.00
H28    H     0.45108   0.08642   0.12679   0.00000  Uiso   1.00
H29    H     0.08066   0.56268   0.89495   0.00000  Uiso   1.00
H30    H     0.48620   0.81025   0.37718   0.00000  Uiso   1.00
H31    H     0.16288   0.05454   0.67562   0.00000  Uiso   1.00
H32    H     0.21066   0.18793   0.82709   0.00000  Uiso   1.00
H33    H     0.03499   0.93954   0.71715   0.00000  Uiso   1.00
H34    H     0.22730   0.05695   0.47161   0.00000  Uiso   1.00
H35    H     0.28828   0.30296   0.01239   0.00000  Uiso   1.00
H36    H     0.91787   0.77921   0.78055   0.00000  Uiso   1.00
H37    H     0.32340   0.02679   0.26277   0.00000  Uiso   1.00
O38    O     0.40453   0.27786   0.17166   0.00000  Uiso   1.00
O39    O     0.91856   0.59072   0.86748   0.00000  Uiso   1.00
O40    O     0.45061   0.91554   0.18818   0.00000  Uiso   1.00
N41    N     0.40622   0.11909   0.07906   0.00000  Uiso   1.00
N42    N     0.05990   0.62942   0.86233   0.00000  Uiso   1.00
N43    N     0.43903   0.86087   0.37824   0.00000  Uiso   1.00
N44    N     0.31862   0.23561   0.01750   0.00000  Uiso   1.00
N45    N     0.97230   0.74594   0.80077   0.00000  Uiso   1.00
N46    N     0.35143   0.97739   0.31668   0.00000  Uiso   1.00
C47    C     0.69054   0.14042   0.77863   0.00000  Uiso   1.00
C48    C     0.68527   0.04042   0.84637   0.00000  Uiso   1.00
C49    C     0.63205   0.02125   0.93763   0.00000  Uiso   1.00
C50    C     0.63678   0.92490   0.98825   0.00000  Uiso   1.00
C51    C     0.62011   0.78097   0.09945   0.00000  Uiso   1.00
C52    C     0.78072   0.17537   0.78666   0.00000  Uiso   1.00
C53    C     0.80775   0.26967   0.82769   0.00000  Uiso   1.00
C54    C     0.89283   0.28693   0.82803   0.00000  Uiso   1.00
C55    C     0.02435   0.35254   0.84644   0.00000  Uiso   1.00
C56    C     0.67623   0.11158   0.65325   0.00000  Uiso   1.00
C57    C     0.61541   0.15225   0.58211   0.00000  Uiso   1.00
C58    C     0.61252   0.11581   0.47011   0.00000  Uiso   1.00
C59    C     0.58180   0.08236   0.28140   0.00000  Uiso   1.00
C60    C     0.79356   0.00340   0.70623   0.00000  Uiso   1.00
C61    C     0.74123   0.96600   0.80705   0.00000  Uiso   1.00
C62    C     0.74603   0.86965   0.85753   0.00000  Uiso   1.00
C63    C     0.69283   0.85034   0.94885   0.00000  Uiso   1.00
C64    C     0.83668   0.10095   0.74734   0.00000  Uiso   1.00
C65    C     0.92173   0.11807   0.74760   0.00000  Uiso   1.00
C66    C     0.94889   0.21237   0.78863   0.00000  Uiso   1.00
C67    C     0.73218   0.03715   0.61393   0.00000  Uiso   1.00
C68    C     0.72939   0.00065   0.50202   0.00000  Uiso   1.00
C69    C     0.66858   0.04125   0.43072   0.00000  Uiso   1.00
H70    H     0.64698   0.19837   0.80924   0.00000  Uiso   1.00
H71    H     0.58876   0.07887   0.96804   0.00000  Uiso   1.00
H72    H     0.76444   0.32726   0.85811   0.00000  Uiso   1.00
H73    H     0.57212   0.20984   0.61257   0.00000  Uiso   1.00
H74    H     0.54892   0.91358   0.12679   0.00000  Uiso   1.00
H75    H     0.91934   0.43732   0.89495   0.00000  Uiso   1.00
H76    H     0.51380   0.18975   0.37718   0.00000  Uiso   1.00
H77    H     0.83712   0.94546   0.67562   0.00000  Uiso   1.00
H78    H     0.78934   0.81207   0.82709   0.00000  Uiso   1.00
H79    H     0.96501   0.06046   0.71715   0.00000  Uiso   1.00
H80    H     0.77270   0.94305   0.47161   0.00000  Uiso   1.00
H81    H     0.71172   0.69704   0.01239   0.00000  Uiso   1.00
H82    H     0.08213   0.22079   0.78055   0.00000  Uiso   1.00
H83    H     0.67660   0.97321   0.26277   0.00000  Uiso   1.00
O84    O     0.59547   0.72214   0.17166   0.00000  Uiso   1.00
O85    O     0.08144   0.40928   0.86748   0.00000  Uiso   1.00
O86    O     0.54939   0.08446   0.18818   0.00000  Uiso   1.00
N87    N     0.59378   0.88091   0.07906   0.00000  Uiso   1.00
N88    N     0.94010   0.37058   0.86233   0.00000  Uiso   1.00
N89    N     0.56097   0.13913   0.37824   0.00000  Uiso   1.00
N90    N     0.68138   0.76439   0.01750   0.00000  Uiso   1.00
N91    N     0.02770   0.25406   0.80077   0.00000  Uiso   1.00
N92    N     0.64857   0.02261   0.31668   0.00000  Uiso   1.00
C93    C     0.30946   0.64042   0.27863   0.00000  Uiso   1.00
C94    C     0.31473   0.54042   0.34637   0.00000  Uiso   1.00
C95    C     0.36795   0.52125   0.43763   0.00000  Uiso   1.00
C96    C     0.36322   0.42490   0.48825   0.00000  Uiso   1.00
C97    C     0.37989   0.28097   0.59945   0.00000  Uiso   1.00
C98    C     0.21928   0.67537   0.28666   0.00000  Uiso   1.00
C99    C     0.19225   0.76967   0.32769   0.00000  Uiso   1.00
C100   C     0.10717   0.78693   0.32803   0.00000  Uiso   1.00
C101   C     0.97565   0.85254   0.34644   0.00000  Uiso   1.00
C102   C     0.32377   0.61158   0.15325   0.00000  Uiso   1.00
C103   C     0.38459   0.65225   0.08211   0.00000  Uiso   1.00
C104   C     0.38748   0.61581   0.97011   0.00000  Uiso   1.00
C105   C     0.41820   0.58236   0.78140   0.00000  Uiso   1.00
C106   C     0.20644   0.50340   0.20623   0.00000  Uiso   1.00
C107   C     0.25877   0.46600   0.30705   0.00000  Uiso   1.00
C108   C     0.25397   0.36965   0.35753   0.00000  Uiso   1.00
C109   C     0.30717   0.35034   0.44885   0.00000  Uiso   1.00
C110   C     0.16332   0.60095   0.24734   0.00000  Uiso   1.00
C111   C     0.07827   0.61807   0.24760   0.00000  Uiso   1.00
C112   C     0.05111   0.71237   0.28863   0.00000  Uiso   1.00
C113   C     0.26782   0.53715   0.11393   0.00000  Uiso   1.00
C114   C     0.27061   0.50065   0.00202   0.00000  Uiso   1.00
C115   C     0.33142   0.54125   0.93072   0.00000  Uiso   1.00
H116   H     0.35302   0.69837   0.30924   0.00000  Uiso   1.00
H117   H     0.41124   0.57887   0.46804   0.00000  Uiso   1.00
H118   H     0.23556   0.82726   0.35811   0.00000  Uiso   1.00
H119   H     0.42788   0.70984   0.11257   0.00000  Uiso   1.00
H120   H     0.45108   0.41358   0.62679   0.00000  Uiso   1.00
H121   H     0.08066   0.93732   0.39495   0.00000  Uiso   1.00
H122   H     0.48620   0.68975   0.87718   0.00000  Uiso   1.00
H123   H     0.16288   0.44546   0.17562   0.00000  Uiso   1.00
H124   H     0.21066   0.31207   0.32709   0.00000  Uiso   1.00
H125   H     0.03499   0.56046   0.21715   0.00000  Uiso   1.00
H126   H     0.22730   0.44305   0.97161   0.00000  Uiso   1.00
H127   H     0.28828   0.19704   0.51239   0.00000  Uiso   1.00
H128   H     0.91787   0.72079   0.28055   0.00000  Uiso   1.00
H129   H     0.32340   0.47321   0.76277   0.00000  Uiso   1.00
O130   O     0.40453   0.22214   0.67166   0.00000  Uiso   1.00
O131   O     0.91856   0.90928   0.36748   0.00000  Uiso   1.00
O132   O     0.45061   0.58446   0.68818   0.00000  Uiso   1.00
N133   N     0.40622   0.38091   0.57906   0.00000  Uiso   1.00
N134   N     0.05990   0.87058   0.36233   0.00000  Uiso   1.00
N135   N     0.43903   0.63913   0.87824   0.00000  Uiso   1.00
N136   N     0.31862   0.26439   0.51750   0.00000  Uiso   1.00
N137   N     0.97230   0.75406   0.30077   0.00000  Uiso   1.00
N138   N     0.35143   0.52261   0.81668   0.00000  Uiso   1.00
C139   C     0.69054   0.35958   0.27863   0.00000  Uiso   1.00
C140   C     0.68527   0.45958   0.34637   0.00000  Uiso   1.00
C141   C     0.63205   0.47875   0.43763   0.00000  Uiso   1.00
C142   C     0.63678   0.57510   0.48825   0.00000  Uiso   1.00
C143   C     0.62011   0.71903   0.59945   0.00000  Uiso   1.00
C144   C     0.78072   0.32463   0.28666   0.00000  Uiso   1.00
C145   C     0.80775   0.23033   0.32769   0.00000  Uiso   1.00
C146   C     0.89283   0.21307   0.32803   0.00000  Uiso   1.00
C147   C     0.02435   0.14746   0.34644   0.00000  Uiso   1.00
C148   C     0.67623   0.38842   0.15325   0.00000  Uiso   1.00
C149   C     0.61541   0.34775   0.08211   0.00000  Uiso   1.00
C150   C     0.61252   0.38419   0.97011   0.00000  Uiso   1.00
C151   C     0.58180   0.41764   0.78140   0.00000  Uiso   1.00
C152   C     0.79356   0.49660   0.20623   0.00000  Uiso   1.00
C153   C     0.74123   0.53400   0.30705   0.00000  Uiso   1.00
C154   C     0.74603   0.63035   0.35753   0.00000  Uiso   1.00
C155   C     0.69283   0.64966   0.44885   0.00000  Uiso   1.00
C156   C     0.83668   0.39905   0.24734   0.00000  Uiso   1.00
C157   C     0.92173   0.38193   0.24760   0.00000  Uiso   1.00
C158   C     0.94889   0.28763   0.28863   0.00000  Uiso   1.00
C159   C     0.73218   0.46285   0.11393   0.00000  Uiso   1.00
C160   C     0.72939   0.49935   0.00202   0.00000  Uiso   1.00
C161   C     0.66858   0.45875   0.93072   0.00000  Uiso   1.00
H162   H     0.64698   0.30163   0.30924   0.00000  Uiso   1.00
H163   H     0.58876   0.42113   0.46804   0.00000  Uiso   1.00
H164   H     0.76444   0.17274   0.35811   0.00000  Uiso   1.00
H165   H     0.57212   0.29016   0.11257   0.00000  Uiso   1.00
H166   H     0.54892   0.58642   0.62679   0.00000  Uiso   1.00
H167   H     0.91934   0.06268   0.39495   0.00000  Uiso   1.00
H168   H     0.51380   0.31025   0.87718   0.00000  Uiso   1.00
H169   H     0.83712   0.55454   0.17562   0.00000  Uiso   1.00
H170   H     0.78934   0.68793   0.32709   0.00000  Uiso   1.00
H171   H     0.96501   0.43954   0.21715   0.00000  Uiso   1.00
H172   H     0.77270   0.55695   0.97161   0.00000  Uiso   1.00
H173   H     0.71172   0.80296   0.51239   0.00000  Uiso   1.00
H174   H     0.08213   0.27921   0.28055   0.00000  Uiso   1.00
H175   H     0.67660   0.52679   0.76277   0.00000  Uiso   1.00
O176   O     0.59547   0.77786   0.67166   0.00000  Uiso   1.00
O177   O     0.08144   0.09072   0.36748   0.00000  Uiso   1.00
O178   O     0.54939   0.41554   0.68818   0.00000  Uiso   1.00
N179   N     0.59378   0.61909   0.57906   0.00000  Uiso   1.00
N180   N     0.94010   0.12942   0.36233   0.00000  Uiso   1.00
N181   N     0.56097   0.36087   0.87824   0.00000  Uiso   1.00
N182   N     0.68138   0.73561   0.51750   0.00000  Uiso   1.00
N183   N     0.02770   0.24594   0.30077   0.00000  Uiso   1.00
N184   N     0.64857   0.47739   0.81668   0.00000  Uiso   1.00
