data_job_00309
_audit_creation_date              2018-12-19
_audit_creation_method            'Materials Studio'
_symmetry_space_group_name_H-M    'P1'
_symmetry_Int_Tables_number       1
_symmetry_cell_setting            triclinic
loop_
_symmetry_equiv_pos_as_xyz
  x,y,z
_cell_length_a                    17.8845
_cell_length_b                    10.7874
_cell_length_c                    24.0964
_cell_angle_alpha                 90.0000
_cell_angle_beta                  90.0000
_cell_angle_gamma                 90.0000
loop_
_atom_site_label
_atom_site_type_symbol
_atom_site_fract_x
_atom_site_fract_y
_atom_site_fract_z
_atom_site_U_iso_or_equiv
_atom_site_adp_type
_atom_site_occupancy
C1     C     0.21519   0.58803   0.69007   0.00000  Uiso   1.00
C2     C     0.23629   0.66456   0.63922   0.00000  Uiso   1.00
C3     C     0.30159   0.65232   0.60860   0.00000  Uiso   1.00
C4     C     0.31046   0.73112   0.56353   0.00000  Uiso   1.00
C5     C     0.35154   0.83664   0.48670   0.00000  Uiso   1.00
C6     C     0.20082   0.68093   0.73656   0.00000  Uiso   1.00
C7     C     0.23628   0.68244   0.78779   0.00000  Uiso   1.00
C8     C     0.21527   0.77502   0.82465   0.00000  Uiso   1.00
C9     C     0.20123   0.90589   0.89897   0.00000  Uiso   1.00
C10    C     0.13966   0.52942   0.67689   0.00000  Uiso   1.00
C11    C     0.12369   0.40355   0.67795   0.00000  Uiso   1.00
C12    C     0.05118   0.36857   0.66459   0.00000  Uiso   1.00
C13    C     0.94219   0.26420   0.64625   0.00000  Uiso   1.00
C14    C     0.11479   0.74974   0.66447   0.00000  Uiso   1.00
C15    C     0.18176   0.75240   0.62532   0.00000  Uiso   1.00
C16    C     0.19052   0.83124   0.58027   0.00000  Uiso   1.00
C17    C     0.25583   0.81912   0.54959   0.00000  Uiso   1.00
C18    C     0.14629   0.76877   0.72266   0.00000  Uiso   1.00
C19    C     0.12521   0.86136   0.75946   0.00000  Uiso   1.00
C20    C     0.16064   0.86301   0.81072   0.00000  Uiso   1.00
C21    C     0.08513   0.61726   0.66298   0.00000  Uiso   1.00
C22    C     0.01262   0.58247   0.64962   0.00000  Uiso   1.00
C23    C     0.99656   0.45656   0.65066   0.00000  Uiso   1.00
H24    H     0.25764   0.51965   0.70090   0.00000  Uiso   1.00
H25    H     0.34379   0.58434   0.61938   0.00000  Uiso   1.00
H26    H     0.27847   0.61445   0.79854   0.00000  Uiso   1.00
H27    H     0.16591   0.33560   0.68872   0.00000  Uiso   1.00
H28    H     0.41526   0.69483   0.52288   0.00000  Uiso   1.00
H29    H     0.27753   0.75829   0.90065   0.00000  Uiso   1.00
H30    H     0.04016   0.17028   0.66907   0.00000  Uiso   1.00
H31    H     0.07234   0.81813   0.65364   0.00000  Uiso   1.00
H32    H     0.14832   0.89920   0.56952   0.00000  Uiso   1.00
H33    H     0.08301   0.92931   0.74868   0.00000  Uiso   1.00
H34    H     0.97044   0.65047   0.63886   0.00000  Uiso   1.00
H35    H     0.25661   0.95039   0.48241   0.00000  Uiso   1.00
H36    H     0.11888   0.01384   0.86019   0.00000  Uiso   1.00
H37    H     0.88151   0.42584   0.62861   0.00000  Uiso   1.00
O38    O     0.38927   0.87059   0.44817   0.00000  Uiso   1.00
O39    O     0.20857   0.95382   0.94380   0.00000  Uiso   1.00
O40    O     0.89714   0.18238   0.63997   0.00000  Uiso   1.00
N41    N     0.36749   0.74384   0.52489   0.00000  Uiso   1.00
N42    N     0.23873   0.80317   0.87808   0.00000  Uiso   1.00
N43    N     0.01680   0.25344   0.66159   0.00000  Uiso   1.00
N44    N     0.28212   0.88135   0.50312   0.00000  Uiso   1.00
N45    N     0.15336   0.94069   0.85631   0.00000  Uiso   1.00
N46    N     0.93143   0.39095   0.63982   0.00000  Uiso   1.00
C47    C     0.28481   0.91197   0.19007   0.00000  Uiso   1.00
C48    C     0.26371   0.83544   0.13922   0.00000  Uiso   1.00
C49    C     0.19841   0.84768   0.10860   0.00000  Uiso   1.00
C50    C     0.18954   0.76888   0.06353   0.00000  Uiso   1.00
C51    C     0.14846   0.66336   0.98670   0.00000  Uiso   1.00
C52    C     0.29918   0.81907   0.23656   0.00000  Uiso   1.00
C53    C     0.26372   0.81756   0.28779   0.00000  Uiso   1.00
C54    C     0.28473   0.72498   0.32465   0.00000  Uiso   1.00
C55    C     0.29877   0.59411   0.39897   0.00000  Uiso   1.00
C56    C     0.36034   0.97058   0.17689   0.00000  Uiso   1.00
C57    C     0.37631   0.09645   0.17795   0.00000  Uiso   1.00
C58    C     0.44882   0.13143   0.16459   0.00000  Uiso   1.00
C59    C     0.55781   0.23580   0.14625   0.00000  Uiso   1.00
C60    C     0.38521   0.75026   0.16447   0.00000  Uiso   1.00
C61    C     0.31824   0.74760   0.12532   0.00000  Uiso   1.00
C62    C     0.30948   0.66876   0.08027   0.00000  Uiso   1.00
C63    C     0.24417   0.68088   0.04959   0.00000  Uiso   1.00
C64    C     0.35371   0.73123   0.22266   0.00000  Uiso   1.00
C65    C     0.37479   0.63864   0.25946   0.00000  Uiso   1.00
C66    C     0.33936   0.63699   0.31072   0.00000  Uiso   1.00
C67    C     0.41487   0.88274   0.16298   0.00000  Uiso   1.00
C68    C     0.48738   0.91753   0.14962   0.00000  Uiso   1.00
C69    C     0.50344   0.04344   0.15066   0.00000  Uiso   1.00
H70    H     0.24236   0.98035   0.20090   0.00000  Uiso   1.00
H71    H     0.15621   0.91566   0.11938   0.00000  Uiso   1.00
H72    H     0.22153   0.88555   0.29854   0.00000  Uiso   1.00
H73    H     0.33409   0.16440   0.18872   0.00000  Uiso   1.00
H74    H     0.08474   0.80517   0.02288   0.00000  Uiso   1.00
H75    H     0.22247   0.74171   0.40065   0.00000  Uiso   1.00
H76    H     0.45984   0.32972   0.16907   0.00000  Uiso   1.00
H77    H     0.42766   0.68187   0.15364   0.00000  Uiso   1.00
H78    H     0.35168   0.60080   0.06952   0.00000  Uiso   1.00
H79    H     0.41699   0.57069   0.24868   0.00000  Uiso   1.00
H80    H     0.52956   0.84953   0.13886   0.00000  Uiso   1.00
H81    H     0.24339   0.54961   0.98241   0.00000  Uiso   1.00
H82    H     0.38112   0.48616   0.36019   0.00000  Uiso   1.00
H83    H     0.61849   0.07416   0.12861   0.00000  Uiso   1.00
O84    O     0.11073   0.62941   0.94817   0.00000  Uiso   1.00
O85    O     0.29143   0.54618   0.44380   0.00000  Uiso   1.00
O86    O     0.60286   0.31762   0.13997   0.00000  Uiso   1.00
N87    N     0.13251   0.75616   0.02489   0.00000  Uiso   1.00
N88    N     0.26127   0.69683   0.37808   0.00000  Uiso   1.00
N89    N     0.48320   0.24656   0.16159   0.00000  Uiso   1.00
N90    N     0.21788   0.61865   0.00312   0.00000  Uiso   1.00
N91    N     0.34664   0.55931   0.35631   0.00000  Uiso   1.00
N92    N     0.56857   0.10905   0.13982   0.00000  Uiso   1.00
C93    C     0.78481   0.58803   0.80993   0.00000  Uiso   1.00
C94    C     0.76371   0.66456   0.86078   0.00000  Uiso   1.00
C95    C     0.69841   0.65232   0.89140   0.00000  Uiso   1.00
C96    C     0.68954   0.73112   0.93647   0.00000  Uiso   1.00
C97    C     0.64846   0.83664   0.01330   0.00000  Uiso   1.00
C98    C     0.79918   0.68093   0.76344   0.00000  Uiso   1.00
C99    C     0.76372   0.68244   0.71221   0.00000  Uiso   1.00
C100   C     0.78473   0.77502   0.67535   0.00000  Uiso   1.00
C101   C     0.79877   0.90589   0.60103   0.00000  Uiso   1.00
C102   C     0.86034   0.52942   0.82311   0.00000  Uiso   1.00
C103   C     0.87631   0.40355   0.82205   0.00000  Uiso   1.00
C104   C     0.94882   0.36857   0.83541   0.00000  Uiso   1.00
C105   C     0.05781   0.26420   0.85375   0.00000  Uiso   1.00
C106   C     0.88521   0.74974   0.83553   0.00000  Uiso   1.00
C107   C     0.81824   0.75240   0.87468   0.00000  Uiso   1.00
C108   C     0.80948   0.83124   0.91973   0.00000  Uiso   1.00
C109   C     0.74417   0.81912   0.95041   0.00000  Uiso   1.00
C110   C     0.85371   0.76877   0.77734   0.00000  Uiso   1.00
C111   C     0.87479   0.86136   0.74054   0.00000  Uiso   1.00
C112   C     0.83936   0.86301   0.68928   0.00000  Uiso   1.00
C113   C     0.91487   0.61726   0.83702   0.00000  Uiso   1.00
C114   C     0.98738   0.58247   0.85038   0.00000  Uiso   1.00
C115   C     0.00344   0.45656   0.84934   0.00000  Uiso   1.00
H116   H     0.74236   0.51965   0.79910   0.00000  Uiso   1.00
H117   H     0.65621   0.58434   0.88062   0.00000  Uiso   1.00
H118   H     0.72153   0.61445   0.70146   0.00000  Uiso   1.00
H119   H     0.83409   0.33560   0.81128   0.00000  Uiso   1.00
H120   H     0.58474   0.69483   0.97712   0.00000  Uiso   1.00
H121   H     0.72247   0.75829   0.59935   0.00000  Uiso   1.00
H122   H     0.95984   0.17028   0.83093   0.00000  Uiso   1.00
H123   H     0.92766   0.81813   0.84636   0.00000  Uiso   1.00
H124   H     0.85168   0.89920   0.93048   0.00000  Uiso   1.00
H125   H     0.91699   0.92931   0.75132   0.00000  Uiso   1.00
H126   H     0.02956   0.65047   0.86114   0.00000  Uiso   1.00
H127   H     0.74339   0.95039   0.01759   0.00000  Uiso   1.00
H128   H     0.88112   0.01384   0.63981   0.00000  Uiso   1.00
H129   H     0.11849   0.42584   0.87139   0.00000  Uiso   1.00
O130   O     0.61073   0.87059   0.05183   0.00000  Uiso   1.00
O131   O     0.79143   0.95382   0.55620   0.00000  Uiso   1.00
O132   O     0.10286   0.18238   0.86003   0.00000  Uiso   1.00
N133   N     0.63251   0.74384   0.97511   0.00000  Uiso   1.00
N134   N     0.76127   0.80317   0.62192   0.00000  Uiso   1.00
N135   N     0.98320   0.25344   0.83841   0.00000  Uiso   1.00
N136   N     0.71788   0.88135   0.99688   0.00000  Uiso   1.00
N137   N     0.84664   0.94069   0.64369   0.00000  Uiso   1.00
N138   N     0.06857   0.39095   0.86018   0.00000  Uiso   1.00
C139   C     0.71519   0.91197   0.30993   0.00000  Uiso   1.00
C140   C     0.73629   0.83544   0.36078   0.00000  Uiso   1.00
C141   C     0.80159   0.84768   0.39140   0.00000  Uiso   1.00
C142   C     0.81046   0.76888   0.43647   0.00000  Uiso   1.00
C143   C     0.85154   0.66336   0.51330   0.00000  Uiso   1.00
C144   C     0.70082   0.81907   0.26344   0.00000  Uiso   1.00
C145   C     0.73628   0.81756   0.21221   0.00000  Uiso   1.00
C146   C     0.71527   0.72498   0.17535   0.00000  Uiso   1.00
C147   C     0.70123   0.59411   0.10103   0.00000  Uiso   1.00
C148   C     0.63966   0.97058   0.32311   0.00000  Uiso   1.00
C149   C     0.62369   0.09645   0.32205   0.00000  Uiso   1.00
C150   C     0.55118   0.13143   0.33541   0.00000  Uiso   1.00
C151   C     0.44219   0.23580   0.35375   0.00000  Uiso   1.00
C152   C     0.61479   0.75026   0.33553   0.00000  Uiso   1.00
C153   C     0.68176   0.74760   0.37468   0.00000  Uiso   1.00
C154   C     0.69052   0.66876   0.41973   0.00000  Uiso   1.00
C155   C     0.75583   0.68088   0.45041   0.00000  Uiso   1.00
C156   C     0.64629   0.73123   0.27734   0.00000  Uiso   1.00
C157   C     0.62521   0.63864   0.24054   0.00000  Uiso   1.00
C158   C     0.66064   0.63699   0.18928   0.00000  Uiso   1.00
C159   C     0.58513   0.88274   0.33702   0.00000  Uiso   1.00
C160   C     0.51262   0.91753   0.35038   0.00000  Uiso   1.00
C161   C     0.49656   0.04344   0.34934   0.00000  Uiso   1.00
H162   H     0.75764   0.98035   0.29910   0.00000  Uiso   1.00
H163   H     0.84379   0.91566   0.38062   0.00000  Uiso   1.00
H164   H     0.77847   0.88555   0.20146   0.00000  Uiso   1.00
H165   H     0.66591   0.16440   0.31128   0.00000  Uiso   1.00
H166   H     0.91526   0.80517   0.47712   0.00000  Uiso   1.00
H167   H     0.77753   0.74171   0.09935   0.00000  Uiso   1.00
H168   H     0.54016   0.32972   0.33093   0.00000  Uiso   1.00
H169   H     0.57234   0.68187   0.34636   0.00000  Uiso   1.00
H170   H     0.64832   0.60080   0.43048   0.00000  Uiso   1.00
H171   H     0.58301   0.57069   0.25132   0.00000  Uiso   1.00
H172   H     0.47044   0.84953   0.36114   0.00000  Uiso   1.00
H173   H     0.75661   0.54961   0.51759   0.00000  Uiso   1.00
H174   H     0.61888   0.48616   0.13981   0.00000  Uiso   1.00
H175   H     0.38151   0.07416   0.37139   0.00000  Uiso   1.00
O176   O     0.88927   0.62941   0.55183   0.00000  Uiso   1.00
O177   O     0.70857   0.54618   0.05620   0.00000  Uiso   1.00
O178   O     0.39714   0.31762   0.36003   0.00000  Uiso   1.00
N179   N     0.86749   0.75616   0.47511   0.00000  Uiso   1.00
N180   N     0.73873   0.69683   0.12192   0.00000  Uiso   1.00
N181   N     0.51680   0.24656   0.33841   0.00000  Uiso   1.00
N182   N     0.78212   0.61865   0.49688   0.00000  Uiso   1.00
N183   N     0.65336   0.55931   0.14369   0.00000  Uiso   1.00
N184   N     0.43143   0.10905   0.36018   0.00000  Uiso   1.00
C185   C     0.78481   0.41197   0.30993   0.00000  Uiso   1.00
C186   C     0.76371   0.33544   0.36078   0.00000  Uiso   1.00
C187   C     0.69841   0.34768   0.39140   0.00000  Uiso   1.00
C188   C     0.68954   0.26888   0.43647   0.00000  Uiso   1.00
C189   C     0.64846   0.16336   0.51330   0.00000  Uiso   1.00
C190   C     0.79918   0.31907   0.26344   0.00000  Uiso   1.00
C191   C     0.76372   0.31756   0.21221   0.00000  Uiso   1.00
C192   C     0.78473   0.22498   0.17535   0.00000  Uiso   1.00
C193   C     0.79877   0.09411   0.10103   0.00000  Uiso   1.00
C194   C     0.86034   0.47058   0.32311   0.00000  Uiso   1.00
C195   C     0.87631   0.59645   0.32205   0.00000  Uiso   1.00
C196   C     0.94882   0.63143   0.33541   0.00000  Uiso   1.00
C197   C     0.05781   0.73580   0.35375   0.00000  Uiso   1.00
C198   C     0.88521   0.25026   0.33553   0.00000  Uiso   1.00
C199   C     0.81824   0.24760   0.37468   0.00000  Uiso   1.00
C200   C     0.80948   0.16876   0.41973   0.00000  Uiso   1.00
C201   C     0.74417   0.18088   0.45041   0.00000  Uiso   1.00
C202   C     0.85371   0.23123   0.27734   0.00000  Uiso   1.00
C203   C     0.87479   0.13864   0.24054   0.00000  Uiso   1.00
C204   C     0.83936   0.13699   0.18928   0.00000  Uiso   1.00
C205   C     0.91487   0.38274   0.33702   0.00000  Uiso   1.00
C206   C     0.98738   0.41753   0.35038   0.00000  Uiso   1.00
C207   C     0.00344   0.54344   0.34934   0.00000  Uiso   1.00
H208   H     0.74236   0.48035   0.29910   0.00000  Uiso   1.00
H209   H     0.65621   0.41566   0.38062   0.00000  Uiso   1.00
H210   H     0.72153   0.38555   0.20146   0.00000  Uiso   1.00
H211   H     0.83409   0.66440   0.31128   0.00000  Uiso   1.00
H212   H     0.58474   0.30517   0.47712   0.00000  Uiso   1.00
H213   H     0.72247   0.24171   0.09935   0.00000  Uiso   1.00
H214   H     0.95984   0.82972   0.33093   0.00000  Uiso   1.00
H215   H     0.92766   0.18187   0.34636   0.00000  Uiso   1.00
H216   H     0.85168   0.10080   0.43048   0.00000  Uiso   1.00
H217   H     0.91699   0.07069   0.25132   0.00000  Uiso   1.00
H218   H     0.02956   0.34953   0.36114   0.00000  Uiso   1.00
H219   H     0.74339   0.04961   0.51759   0.00000  Uiso   1.00
H220   H     0.88112   0.98616   0.13981   0.00000  Uiso   1.00
H221   H     0.11849   0.57416   0.37139   0.00000  Uiso   1.00
O222   O     0.61073   0.12941   0.55183   0.00000  Uiso   1.00
O223   O     0.79143   0.04618   0.05620   0.00000  Uiso   1.00
O224   O     0.10286   0.81762   0.36003   0.00000  Uiso   1.00
N225   N     0.63251   0.25616   0.47511   0.00000  Uiso   1.00
N226   N     0.76127   0.19683   0.12192   0.00000  Uiso   1.00
N227   N     0.98320   0.74656   0.33841   0.00000  Uiso   1.00
N228   N     0.71788   0.11865   0.49688   0.00000  Uiso   1.00
N229   N     0.84664   0.05931   0.14369   0.00000  Uiso   1.00
N230   N     0.06857   0.60905   0.36018   0.00000  Uiso   1.00
C231   C     0.71519   0.08803   0.80993   0.00000  Uiso   1.00
C232   C     0.73629   0.16456   0.86078   0.00000  Uiso   1.00
C233   C     0.80159   0.15232   0.89140   0.00000  Uiso   1.00
C234   C     0.81046   0.23112   0.93647   0.00000  Uiso   1.00
C235   C     0.85154   0.33664   0.01330   0.00000  Uiso   1.00
C236   C     0.70082   0.18093   0.76344   0.00000  Uiso   1.00
C237   C     0.73628   0.18244   0.71221   0.00000  Uiso   1.00
C238   C     0.71527   0.27502   0.67535   0.00000  Uiso   1.00
C239   C     0.70123   0.40589   0.60103   0.00000  Uiso   1.00
C240   C     0.63966   0.02942   0.82311   0.00000  Uiso   1.00
C241   C     0.62369   0.90355   0.82205   0.00000  Uiso   1.00
C242   C     0.55118   0.86857   0.83541   0.00000  Uiso   1.00
C243   C     0.44219   0.76420   0.85375   0.00000  Uiso   1.00
C244   C     0.61479   0.24974   0.83553   0.00000  Uiso   1.00
C245   C     0.68176   0.25240   0.87468   0.00000  Uiso   1.00
C246   C     0.69052   0.33124   0.91973   0.00000  Uiso   1.00
C247   C     0.75583   0.31912   0.95041   0.00000  Uiso   1.00
C248   C     0.64629   0.26877   0.77734   0.00000  Uiso   1.00
C249   C     0.62521   0.36136   0.74054   0.00000  Uiso   1.00
C250   C     0.66064   0.36301   0.68928   0.00000  Uiso   1.00
C251   C     0.58513   0.11726   0.83702   0.00000  Uiso   1.00
C252   C     0.51262   0.08247   0.85038   0.00000  Uiso   1.00
C253   C     0.49656   0.95656   0.84934   0.00000  Uiso   1.00
H254   H     0.75764   0.01965   0.79910   0.00000  Uiso   1.00
H255   H     0.84379   0.08434   0.88062   0.00000  Uiso   1.00
H256   H     0.77847   0.11445   0.70146   0.00000  Uiso   1.00
H257   H     0.66591   0.83560   0.81128   0.00000  Uiso   1.00
H258   H     0.91526   0.19483   0.97712   0.00000  Uiso   1.00
H259   H     0.77753   0.25829   0.59935   0.00000  Uiso   1.00
H260   H     0.54016   0.67028   0.83093   0.00000  Uiso   1.00
H261   H     0.57234   0.31813   0.84636   0.00000  Uiso   1.00
H262   H     0.64832   0.39920   0.93048   0.00000  Uiso   1.00
H263   H     0.58301   0.42931   0.75132   0.00000  Uiso   1.00
H264   H     0.47044   0.15047   0.86114   0.00000  Uiso   1.00
H265   H     0.75661   0.45039   0.01759   0.00000  Uiso   1.00
H266   H     0.61888   0.51384   0.63981   0.00000  Uiso   1.00
H267   H     0.38151   0.92584   0.87139   0.00000  Uiso   1.00
O268   O     0.88927   0.37059   0.05183   0.00000  Uiso   1.00
O269   O     0.70857   0.45382   0.55620   0.00000  Uiso   1.00
O270   O     0.39714   0.68238   0.86003   0.00000  Uiso   1.00
N271   N     0.86749   0.24384   0.97511   0.00000  Uiso   1.00
N272   N     0.73873   0.30317   0.62192   0.00000  Uiso   1.00
N273   N     0.51680   0.75344   0.83841   0.00000  Uiso   1.00
N274   N     0.78212   0.38135   0.99688   0.00000  Uiso   1.00
N275   N     0.65336   0.44069   0.64369   0.00000  Uiso   1.00
N276   N     0.43143   0.89095   0.86018   0.00000  Uiso   1.00
C277   C     0.21519   0.41197   0.19007   0.00000  Uiso   1.00
C278   C     0.23629   0.33544   0.13922   0.00000  Uiso   1.00
C279   C     0.30159   0.34768   0.10860   0.00000  Uiso   1.00
C280   C     0.31046   0.26888   0.06353   0.00000  Uiso   1.00
C281   C     0.35154   0.16336   0.98670   0.00000  Uiso   1.00
C282   C     0.20082   0.31907   0.23656   0.00000  Uiso   1.00
C283   C     0.23628   0.31756   0.28779   0.00000  Uiso   1.00
C284   C     0.21527   0.22498   0.32465   0.00000  Uiso   1.00
C285   C     0.20123   0.09411   0.39897   0.00000  Uiso   1.00
C286   C     0.13966   0.47058   0.17689   0.00000  Uiso   1.00
C287   C     0.12369   0.59645   0.17795   0.00000  Uiso   1.00
C288   C     0.05118   0.63143   0.16459   0.00000  Uiso   1.00
C289   C     0.94219   0.73580   0.14625   0.00000  Uiso   1.00
C290   C     0.11479   0.25026   0.16447   0.00000  Uiso   1.00
C291   C     0.18176   0.24760   0.12532   0.00000  Uiso   1.00
C292   C     0.19052   0.16876   0.08027   0.00000  Uiso   1.00
C293   C     0.25583   0.18088   0.04959   0.00000  Uiso   1.00
C294   C     0.14629   0.23123   0.22266   0.00000  Uiso   1.00
C295   C     0.12521   0.13864   0.25946   0.00000  Uiso   1.00
C296   C     0.16064   0.13699   0.31072   0.00000  Uiso   1.00
C297   C     0.08513   0.38274   0.16298   0.00000  Uiso   1.00
C298   C     0.01262   0.41753   0.14962   0.00000  Uiso   1.00
C299   C     0.99656   0.54344   0.15066   0.00000  Uiso   1.00
H300   H     0.25764   0.48035   0.20090   0.00000  Uiso   1.00
H301   H     0.34379   0.41566   0.11938   0.00000  Uiso   1.00
H302   H     0.27847   0.38555   0.29854   0.00000  Uiso   1.00
H303   H     0.16591   0.66440   0.18872   0.00000  Uiso   1.00
H304   H     0.41526   0.30517   0.02288   0.00000  Uiso   1.00
H305   H     0.27753   0.24171   0.40065   0.00000  Uiso   1.00
H306   H     0.04016   0.82972   0.16907   0.00000  Uiso   1.00
H307   H     0.07234   0.18187   0.15364   0.00000  Uiso   1.00
H308   H     0.14832   0.10080   0.06952   0.00000  Uiso   1.00
H309   H     0.08301   0.07069   0.24868   0.00000  Uiso   1.00
H310   H     0.97044   0.34953   0.13886   0.00000  Uiso   1.00
H311   H     0.25661   0.04961   0.98241   0.00000  Uiso   1.00
H312   H     0.11888   0.98616   0.36019   0.00000  Uiso   1.00
H313   H     0.88151   0.57416   0.12861   0.00000  Uiso   1.00
O314   O     0.38927   0.12941   0.94817   0.00000  Uiso   1.00
O315   O     0.20857   0.04618   0.44380   0.00000  Uiso   1.00
O316   O     0.89714   0.81762   0.13997   0.00000  Uiso   1.00
N317   N     0.36749   0.25616   0.02489   0.00000  Uiso   1.00
N318   N     0.23873   0.19683   0.37808   0.00000  Uiso   1.00
N319   N     0.01680   0.74656   0.16159   0.00000  Uiso   1.00
N320   N     0.28212   0.11865   0.00312   0.00000  Uiso   1.00
N321   N     0.15336   0.05931   0.35631   0.00000  Uiso   1.00
N322   N     0.93143   0.60905   0.13982   0.00000  Uiso   1.00
C323   C     0.28481   0.08803   0.69007   0.00000  Uiso   1.00
C324   C     0.26371   0.16456   0.63922   0.00000  Uiso   1.00
C325   C     0.19841   0.15232   0.60860   0.00000  Uiso   1.00
C326   C     0.18954   0.23112   0.56353   0.00000  Uiso   1.00
C327   C     0.14846   0.33664   0.48670   0.00000  Uiso   1.00
C328   C     0.29918   0.18093   0.73656   0.00000  Uiso   1.00
C329   C     0.26372   0.18244   0.78779   0.00000  Uiso   1.00
C330   C     0.28473   0.27502   0.82465   0.00000  Uiso   1.00
C331   C     0.29877   0.40589   0.89897   0.00000  Uiso   1.00
C332   C     0.36034   0.02942   0.67689   0.00000  Uiso   1.00
C333   C     0.37631   0.90355   0.67795   0.00000  Uiso   1.00
C334   C     0.44882   0.86857   0.66459   0.00000  Uiso   1.00
C335   C     0.55781   0.76420   0.64625   0.00000  Uiso   1.00
C336   C     0.38521   0.24974   0.66447   0.00000  Uiso   1.00
C337   C     0.31824   0.25240   0.62532   0.00000  Uiso   1.00
C338   C     0.30948   0.33124   0.58027   0.00000  Uiso   1.00
C339   C     0.24417   0.31912   0.54959   0.00000  Uiso   1.00
C340   C     0.35371   0.26877   0.72266   0.00000  Uiso   1.00
C341   C     0.37479   0.36136   0.75946   0.00000  Uiso   1.00
C342   C     0.33936   0.36301   0.81072   0.00000  Uiso   1.00
C343   C     0.41487   0.11726   0.66298   0.00000  Uiso   1.00
C344   C     0.48738   0.08247   0.64962   0.00000  Uiso   1.00
C345   C     0.50344   0.95656   0.65066   0.00000  Uiso   1.00
H346   H     0.24236   0.01965   0.70090   0.00000  Uiso   1.00
H347   H     0.15621   0.08434   0.61938   0.00000  Uiso   1.00
H348   H     0.22153   0.11445   0.79854   0.00000  Uiso   1.00
H349   H     0.33409   0.83560   0.68872   0.00000  Uiso   1.00
H350   H     0.08474   0.19483   0.52288   0.00000  Uiso   1.00
H351   H     0.22247   0.25829   0.90065   0.00000  Uiso   1.00
H352   H     0.45984   0.67028   0.66907   0.00000  Uiso   1.00
H353   H     0.42766   0.31813   0.65364   0.00000  Uiso   1.00
H354   H     0.35168   0.39920   0.56952   0.00000  Uiso   1.00
H355   H     0.41699   0.42931   0.74868   0.00000  Uiso   1.00
H356   H     0.52956   0.15047   0.63886   0.00000  Uiso   1.00
H357   H     0.24339   0.45039   0.48241   0.00000  Uiso   1.00
H358   H     0.38112   0.51384   0.86019   0.00000  Uiso   1.00
H359   H     0.61849   0.92584   0.62861   0.00000  Uiso   1.00
O360   O     0.11073   0.37059   0.44817   0.00000  Uiso   1.00
O361   O     0.29143   0.45382   0.94380   0.00000  Uiso   1.00
O362   O     0.60286   0.68238   0.63997   0.00000  Uiso   1.00
N363   N     0.13251   0.24384   0.52489   0.00000  Uiso   1.00
N364   N     0.26127   0.30317   0.87808   0.00000  Uiso   1.00
N365   N     0.48320   0.75344   0.66159   0.00000  Uiso   1.00
N366   N     0.21788   0.38135   0.50312   0.00000  Uiso   1.00
N367   N     0.34664   0.44069   0.85631   0.00000  Uiso   1.00
N368   N     0.56857   0.89095   0.63982   0.00000  Uiso   1.00
