data_job_05557
_audit_creation_date              2018-12-19
_audit_creation_method            'Materials Studio'
_symmetry_space_group_name_H-M    'P1'
_symmetry_Int_Tables_number       1
_symmetry_cell_setting            triclinic
loop_
_symmetry_equiv_pos_as_xyz
  x,y,z
_cell_length_a                    16.3317
_cell_length_b                    19.4034
_cell_length_c                    15.4010
_cell_angle_alpha                 90.0000
_cell_angle_beta                  90.0000
_cell_angle_gamma                 90.0000
loop_
_atom_site_label
_atom_site_type_symbol
_atom_site_fract_x
_atom_site_fract_y
_atom_site_fract_z
_atom_site_U_iso_or_equiv
_atom_site_adp_type
_atom_site_occupancy
C1     C     0.00786   0.75629   0.14115   0.00000  Uiso   1.00
C2     C     0.92494   0.79222   0.14600   0.00000  Uiso   1.00
C3     C     0.86841   0.79687   0.07898   0.00000  Uiso   1.00
C4     C     0.79614   0.83191   0.09640   0.00000  Uiso   1.00
C5     C     0.66970   0.88327   0.09152   0.00000  Uiso   1.00
C6     C     0.07131   0.81043   0.16614   0.00000  Uiso   1.00
C7     C     0.13785   0.83039   0.11605   0.00000  Uiso   1.00
C8     C     0.18880   0.88076   0.15042   0.00000  Uiso   1.00
C9     C     0.28964   0.96035   0.17683   0.00000  Uiso   1.00
C10    C     0.00826   0.70322   0.21416   0.00000  Uiso   1.00
C11    C     0.02182   0.63303   0.20446   0.00000  Uiso   1.00
C12    C     0.01970   0.59313   0.27927   0.00000  Uiso   1.00
C13    C     0.02264   0.50626   0.38025   0.00000  Uiso   1.00
C14    C     0.98003   0.81025   0.29126   0.00000  Uiso   1.00
C15    C     0.90983   0.82153   0.22754   0.00000  Uiso   1.00
C16    C     0.83762   0.85657   0.24506   0.00000  Uiso   1.00
C17    C     0.78099   0.86127   0.17808   0.00000  Uiso   1.00
C18    C     0.05619   0.83974   0.24767   0.00000  Uiso   1.00
C19    C     0.10706   0.89009   0.28212   0.00000  Uiso   1.00
C20    C     0.17365   0.91013   0.23210   0.00000  Uiso   1.00
C21    C     0.99314   0.73253   0.29570   0.00000  Uiso   1.00
C22    C     0.99101   0.69273   0.37054   0.00000  Uiso   1.00
C23    C     0.00455   0.62250   0.36095   0.00000  Uiso   1.00
H24    H     0.01964   0.73347   0.07767   0.00000  Uiso   1.00
H25    H     0.88014   0.77418   0.01589   0.00000  Uiso   1.00
H26    H     0.14954   0.80769   0.05296   0.00000  Uiso   1.00
H27    H     0.03351   0.61036   0.14136   0.00000  Uiso   1.00
H28    H     0.71883   0.83226   0.98335   0.00000  Uiso   1.00
H29    H     0.28689   0.90290   0.06151   0.00000  Uiso   1.00
H30    H     0.04223   0.48680   0.24792   0.00000  Uiso   1.00
H31    H     0.96826   0.83308   0.35474   0.00000  Uiso   1.00
H32    H     0.82593   0.87925   0.30816   0.00000  Uiso   1.00
H33    H     0.09534   0.91276   0.34522   0.00000  Uiso   1.00
H34    H     0.97931   0.71543   0.43362   0.00000  Uiso   1.00
H35    H     0.67483   0.91754   0.22056   0.00000  Uiso   1.00
H36    H     0.24290   0.98818   0.29873   0.00000  Uiso   1.00
H37    H     0.99823   0.57208   0.48514   0.00000  Uiso   1.00
O38    O     0.60414   0.90350   0.06631   0.00000  Uiso   1.00
O39    O     0.34943   0.99617   0.16886   0.00000  Uiso   1.00
O40    O     0.02843   0.45025   0.41343   0.00000  Uiso   1.00
N41    N     0.72800   0.84599   0.04557   0.00000  Uiso   1.00
N42    N     0.25910   0.91204   0.11864   0.00000  Uiso   1.00
N43    N     0.03038   0.52302   0.29292   0.00000  Uiso   1.00
N44    N     0.70432   0.89187   0.17322   0.00000  Uiso   1.00
N45    N     0.23542   0.95792   0.24629   0.00000  Uiso   1.00
N46    N     0.00670   0.56890   0.42057   0.00000  Uiso   1.00
C47    C     0.49214   0.74371   0.14115   0.00000  Uiso   1.00
C48    C     0.57506   0.70778   0.14600   0.00000  Uiso   1.00
C49    C     0.63159   0.70313   0.07898   0.00000  Uiso   1.00
C50    C     0.70386   0.66809   0.09640   0.00000  Uiso   1.00
C51    C     0.83030   0.61673   0.09152   0.00000  Uiso   1.00
C52    C     0.42869   0.68957   0.16614   0.00000  Uiso   1.00
C53    C     0.36215   0.66961   0.11605   0.00000  Uiso   1.00
C54    C     0.31120   0.61924   0.15042   0.00000  Uiso   1.00
C55    C     0.21036   0.53965   0.17683   0.00000  Uiso   1.00
C56    C     0.49174   0.79678   0.21416   0.00000  Uiso   1.00
C57    C     0.47818   0.86697   0.20446   0.00000  Uiso   1.00
C58    C     0.48030   0.90687   0.27927   0.00000  Uiso   1.00
C59    C     0.47736   0.99374   0.38025   0.00000  Uiso   1.00
C60    C     0.51997   0.68975   0.29126   0.00000  Uiso   1.00
C61    C     0.59017   0.67847   0.22754   0.00000  Uiso   1.00
C62    C     0.66238   0.64343   0.24506   0.00000  Uiso   1.00
C63    C     0.71901   0.63873   0.17808   0.00000  Uiso   1.00
C64    C     0.44381   0.66026   0.24767   0.00000  Uiso   1.00
C65    C     0.39294   0.60991   0.28212   0.00000  Uiso   1.00
C66    C     0.32635   0.58987   0.23210   0.00000  Uiso   1.00
C67    C     0.50686   0.76747   0.29570   0.00000  Uiso   1.00
C68    C     0.50899   0.80727   0.37054   0.00000  Uiso   1.00
C69    C     0.49545   0.87750   0.36095   0.00000  Uiso   1.00
H70    H     0.48036   0.76653   0.07767   0.00000  Uiso   1.00
H71    H     0.61986   0.72582   0.01589   0.00000  Uiso   1.00
H72    H     0.35046   0.69231   0.05296   0.00000  Uiso   1.00
H73    H     0.46649   0.88964   0.14136   0.00000  Uiso   1.00
H74    H     0.78117   0.66774   0.98335   0.00000  Uiso   1.00
H75    H     0.21311   0.59710   0.06151   0.00000  Uiso   1.00
H76    H     0.45777   0.01320   0.24792   0.00000  Uiso   1.00
H77    H     0.53174   0.66692   0.35474   0.00000  Uiso   1.00
H78    H     0.67407   0.62075   0.30816   0.00000  Uiso   1.00
H79    H     0.40466   0.58724   0.34522   0.00000  Uiso   1.00
H80    H     0.52069   0.78457   0.43362   0.00000  Uiso   1.00
H81    H     0.82517   0.58246   0.22056   0.00000  Uiso   1.00
H82    H     0.25710   0.51182   0.29873   0.00000  Uiso   1.00
H83    H     0.50177   0.92792   0.48514   0.00000  Uiso   1.00
O84    O     0.89586   0.59650   0.06631   0.00000  Uiso   1.00
O85    O     0.15057   0.50383   0.16886   0.00000  Uiso   1.00
O86    O     0.47157   0.04975   0.41343   0.00000  Uiso   1.00
N87    N     0.77200   0.65401   0.04557   0.00000  Uiso   1.00
N88    N     0.24090   0.58796   0.11864   0.00000  Uiso   1.00
N89    N     0.46962   0.97698   0.29292   0.00000  Uiso   1.00
N90    N     0.79568   0.60813   0.17322   0.00000  Uiso   1.00
N91    N     0.26458   0.54208   0.24629   0.00000  Uiso   1.00
N92    N     0.49330   0.93110   0.42057   0.00000  Uiso   1.00
C93    C     0.99214   0.25629   0.35885   0.00000  Uiso   1.00
C94    C     0.07506   0.29222   0.35400   0.00000  Uiso   1.00
C95    C     0.13159   0.29687   0.42102   0.00000  Uiso   1.00
C96    C     0.20386   0.33191   0.40360   0.00000  Uiso   1.00
C97    C     0.33030   0.38327   0.40848   0.00000  Uiso   1.00
C98    C     0.92869   0.31043   0.33386   0.00000  Uiso   1.00
C99    C     0.86215   0.33039   0.38395   0.00000  Uiso   1.00
C100   C     0.81120   0.38076   0.34958   0.00000  Uiso   1.00
C101   C     0.71036   0.46035   0.32317   0.00000  Uiso   1.00
C102   C     0.99174   0.20322   0.28584   0.00000  Uiso   1.00
C103   C     0.97818   0.13303   0.29554   0.00000  Uiso   1.00
C104   C     0.98030   0.09313   0.22073   0.00000  Uiso   1.00
C105   C     0.97736   0.00626   0.11975   0.00000  Uiso   1.00
C106   C     0.01997   0.31025   0.20874   0.00000  Uiso   1.00
C107   C     0.09017   0.32153   0.27246   0.00000  Uiso   1.00
C108   C     0.16238   0.35657   0.25494   0.00000  Uiso   1.00
C109   C     0.21901   0.36127   0.32192   0.00000  Uiso   1.00
C110   C     0.94381   0.33974   0.25233   0.00000  Uiso   1.00
C111   C     0.89294   0.39009   0.21788   0.00000  Uiso   1.00
C112   C     0.82635   0.41013   0.26790   0.00000  Uiso   1.00
C113   C     0.00686   0.23253   0.20430   0.00000  Uiso   1.00
C114   C     0.00899   0.19273   0.12946   0.00000  Uiso   1.00
C115   C     0.99545   0.12250   0.13905   0.00000  Uiso   1.00
H116   H     0.98036   0.23347   0.42233   0.00000  Uiso   1.00
H117   H     0.11986   0.27418   0.48411   0.00000  Uiso   1.00
H118   H     0.85046   0.30769   0.44704   0.00000  Uiso   1.00
H119   H     0.96649   0.11036   0.35864   0.00000  Uiso   1.00
H120   H     0.28117   0.33226   0.51665   0.00000  Uiso   1.00
H121   H     0.71311   0.40290   0.43849   0.00000  Uiso   1.00
H122   H     0.95777   0.98680   0.25208   0.00000  Uiso   1.00
H123   H     0.03174   0.33308   0.14526   0.00000  Uiso   1.00
H124   H     0.17407   0.37925   0.19184   0.00000  Uiso   1.00
H125   H     0.90466   0.41276   0.15478   0.00000  Uiso   1.00
H126   H     0.02069   0.21543   0.06638   0.00000  Uiso   1.00
H127   H     0.32517   0.41754   0.27944   0.00000  Uiso   1.00
H128   H     0.75710   0.48818   0.20127   0.00000  Uiso   1.00
H129   H     0.00177   0.07208   0.01486   0.00000  Uiso   1.00
O130   O     0.39586   0.40350   0.43369   0.00000  Uiso   1.00
O131   O     0.65057   0.49617   0.33114   0.00000  Uiso   1.00
O132   O     0.97157   0.95025   0.08657   0.00000  Uiso   1.00
N133   N     0.27200   0.34599   0.45443   0.00000  Uiso   1.00
N134   N     0.74090   0.41204   0.38136   0.00000  Uiso   1.00
N135   N     0.96962   0.02302   0.20708   0.00000  Uiso   1.00
N136   N     0.29568   0.39187   0.32678   0.00000  Uiso   1.00
N137   N     0.76458   0.45792   0.25371   0.00000  Uiso   1.00
N138   N     0.99330   0.06890   0.07943   0.00000  Uiso   1.00
C139   C     0.50786   0.24371   0.35885   0.00000  Uiso   1.00
C140   C     0.42494   0.20778   0.35400   0.00000  Uiso   1.00
C141   C     0.36841   0.20313   0.42102   0.00000  Uiso   1.00
C142   C     0.29614   0.16809   0.40360   0.00000  Uiso   1.00
C143   C     0.16970   0.11673   0.40848   0.00000  Uiso   1.00
C144   C     0.57131   0.18957   0.33386   0.00000  Uiso   1.00
C145   C     0.63785   0.16961   0.38395   0.00000  Uiso   1.00
C146   C     0.68880   0.11924   0.34958   0.00000  Uiso   1.00
C147   C     0.78964   0.03965   0.32317   0.00000  Uiso   1.00
C148   C     0.50826   0.29678   0.28584   0.00000  Uiso   1.00
C149   C     0.52182   0.36697   0.29554   0.00000  Uiso   1.00
C150   C     0.51970   0.40687   0.22073   0.00000  Uiso   1.00
C151   C     0.52264   0.49374   0.11975   0.00000  Uiso   1.00
C152   C     0.48003   0.18975   0.20874   0.00000  Uiso   1.00
C153   C     0.40983   0.17847   0.27246   0.00000  Uiso   1.00
C154   C     0.33762   0.14343   0.25494   0.00000  Uiso   1.00
C155   C     0.28099   0.13873   0.32192   0.00000  Uiso   1.00
C156   C     0.55619   0.16026   0.25233   0.00000  Uiso   1.00
C157   C     0.60706   0.10991   0.21788   0.00000  Uiso   1.00
C158   C     0.67365   0.08987   0.26790   0.00000  Uiso   1.00
C159   C     0.49314   0.26747   0.20430   0.00000  Uiso   1.00
C160   C     0.49101   0.30727   0.12946   0.00000  Uiso   1.00
C161   C     0.50455   0.37750   0.13905   0.00000  Uiso   1.00
H162   H     0.51964   0.26653   0.42233   0.00000  Uiso   1.00
H163   H     0.38014   0.22582   0.48411   0.00000  Uiso   1.00
H164   H     0.64954   0.19231   0.44704   0.00000  Uiso   1.00
H165   H     0.53351   0.38964   0.35864   0.00000  Uiso   1.00
H166   H     0.21883   0.16774   0.51665   0.00000  Uiso   1.00
H167   H     0.78689   0.09710   0.43849   0.00000  Uiso   1.00
H168   H     0.54223   0.51320   0.25208   0.00000  Uiso   1.00
H169   H     0.46826   0.16692   0.14526   0.00000  Uiso   1.00
H170   H     0.32593   0.12075   0.19184   0.00000  Uiso   1.00
H171   H     0.59534   0.08724   0.15478   0.00000  Uiso   1.00
H172   H     0.47931   0.28457   0.06638   0.00000  Uiso   1.00
H173   H     0.17483   0.08246   0.27944   0.00000  Uiso   1.00
H174   H     0.74290   0.01182   0.20127   0.00000  Uiso   1.00
H175   H     0.49823   0.42792   0.01486   0.00000  Uiso   1.00
O176   O     0.10414   0.09650   0.43369   0.00000  Uiso   1.00
O177   O     0.84943   0.00383   0.33114   0.00000  Uiso   1.00
O178   O     0.52843   0.54975   0.08657   0.00000  Uiso   1.00
N179   N     0.22800   0.15401   0.45443   0.00000  Uiso   1.00
N180   N     0.75910   0.08796   0.38136   0.00000  Uiso   1.00
N181   N     0.53038   0.47698   0.20708   0.00000  Uiso   1.00
N182   N     0.20432   0.10813   0.32678   0.00000  Uiso   1.00
N183   N     0.73542   0.04208   0.25371   0.00000  Uiso   1.00
N184   N     0.50670   0.43110   0.07943   0.00000  Uiso   1.00
C185   C     0.99214   0.24371   0.85885   0.00000  Uiso   1.00
C186   C     0.07506   0.20778   0.85400   0.00000  Uiso   1.00
C187   C     0.13159   0.20313   0.92102   0.00000  Uiso   1.00
C188   C     0.20386   0.16809   0.90360   0.00000  Uiso   1.00
C189   C     0.33030   0.11673   0.90848   0.00000  Uiso   1.00
C190   C     0.92869   0.18957   0.83386   0.00000  Uiso   1.00
C191   C     0.86215   0.16961   0.88395   0.00000  Uiso   1.00
C192   C     0.81120   0.11924   0.84958   0.00000  Uiso   1.00
C193   C     0.71036   0.03965   0.82317   0.00000  Uiso   1.00
C194   C     0.99174   0.29678   0.78584   0.00000  Uiso   1.00
C195   C     0.97818   0.36697   0.79554   0.00000  Uiso   1.00
C196   C     0.98030   0.40687   0.72073   0.00000  Uiso   1.00
C197   C     0.97736   0.49374   0.61975   0.00000  Uiso   1.00
C198   C     0.01997   0.18975   0.70874   0.00000  Uiso   1.00
C199   C     0.09017   0.17847   0.77246   0.00000  Uiso   1.00
C200   C     0.16238   0.14343   0.75494   0.00000  Uiso   1.00
C201   C     0.21901   0.13873   0.82192   0.00000  Uiso   1.00
C202   C     0.94381   0.16026   0.75233   0.00000  Uiso   1.00
C203   C     0.89294   0.10991   0.71788   0.00000  Uiso   1.00
C204   C     0.82635   0.08987   0.76790   0.00000  Uiso   1.00
C205   C     0.00686   0.26747   0.70430   0.00000  Uiso   1.00
C206   C     0.00899   0.30727   0.62946   0.00000  Uiso   1.00
C207   C     0.99545   0.37750   0.63905   0.00000  Uiso   1.00
H208   H     0.98036   0.26653   0.92233   0.00000  Uiso   1.00
H209   H     0.11986   0.22582   0.98411   0.00000  Uiso   1.00
H210   H     0.85046   0.19231   0.94704   0.00000  Uiso   1.00
H211   H     0.96649   0.38964   0.85864   0.00000  Uiso   1.00
H212   H     0.28117   0.16774   0.01665   0.00000  Uiso   1.00
H213   H     0.71311   0.09710   0.93849   0.00000  Uiso   1.00
H214   H     0.95777   0.51320   0.75208   0.00000  Uiso   1.00
H215   H     0.03174   0.16692   0.64526   0.00000  Uiso   1.00
H216   H     0.17407   0.12075   0.69184   0.00000  Uiso   1.00
H217   H     0.90466   0.08724   0.65478   0.00000  Uiso   1.00
H218   H     0.02069   0.28457   0.56638   0.00000  Uiso   1.00
H219   H     0.32517   0.08246   0.77944   0.00000  Uiso   1.00
H220   H     0.75710   0.01182   0.70127   0.00000  Uiso   1.00
H221   H     0.00177   0.42792   0.51486   0.00000  Uiso   1.00
O222   O     0.39586   0.09650   0.93369   0.00000  Uiso   1.00
O223   O     0.65057   0.00383   0.83114   0.00000  Uiso   1.00
O224   O     0.97157   0.54975   0.58657   0.00000  Uiso   1.00
N225   N     0.27200   0.15401   0.95443   0.00000  Uiso   1.00
N226   N     0.74090   0.08796   0.88136   0.00000  Uiso   1.00
N227   N     0.96962   0.47698   0.70708   0.00000  Uiso   1.00
N228   N     0.29568   0.10813   0.82678   0.00000  Uiso   1.00
N229   N     0.76458   0.04208   0.75371   0.00000  Uiso   1.00
N230   N     0.99330   0.43110   0.57943   0.00000  Uiso   1.00
C231   C     0.50786   0.25629   0.85885   0.00000  Uiso   1.00
C232   C     0.42494   0.29222   0.85400   0.00000  Uiso   1.00
C233   C     0.36841   0.29687   0.92102   0.00000  Uiso   1.00
C234   C     0.29614   0.33191   0.90360   0.00000  Uiso   1.00
C235   C     0.16970   0.38327   0.90848   0.00000  Uiso   1.00
C236   C     0.57131   0.31043   0.83386   0.00000  Uiso   1.00
C237   C     0.63785   0.33039   0.88395   0.00000  Uiso   1.00
C238   C     0.68880   0.38076   0.84958   0.00000  Uiso   1.00
C239   C     0.78964   0.46035   0.82317   0.00000  Uiso   1.00
C240   C     0.50826   0.20322   0.78584   0.00000  Uiso   1.00
C241   C     0.52182   0.13303   0.79554   0.00000  Uiso   1.00
C242   C     0.51970   0.09313   0.72073   0.00000  Uiso   1.00
C243   C     0.52264   0.00626   0.61975   0.00000  Uiso   1.00
C244   C     0.48003   0.31025   0.70874   0.00000  Uiso   1.00
C245   C     0.40983   0.32153   0.77246   0.00000  Uiso   1.00
C246   C     0.33762   0.35657   0.75494   0.00000  Uiso   1.00
C247   C     0.28099   0.36127   0.82192   0.00000  Uiso   1.00
C248   C     0.55619   0.33974   0.75233   0.00000  Uiso   1.00
C249   C     0.60706   0.39009   0.71788   0.00000  Uiso   1.00
C250   C     0.67365   0.41013   0.76790   0.00000  Uiso   1.00
C251   C     0.49314   0.23253   0.70430   0.00000  Uiso   1.00
C252   C     0.49101   0.19273   0.62946   0.00000  Uiso   1.00
C253   C     0.50455   0.12250   0.63905   0.00000  Uiso   1.00
H254   H     0.51964   0.23347   0.92233   0.00000  Uiso   1.00
H255   H     0.38014   0.27418   0.98411   0.00000  Uiso   1.00
H256   H     0.64954   0.30769   0.94704   0.00000  Uiso   1.00
H257   H     0.53351   0.11036   0.85864   0.00000  Uiso   1.00
H258   H     0.21883   0.33226   0.01665   0.00000  Uiso   1.00
H259   H     0.78689   0.40290   0.93849   0.00000  Uiso   1.00
H260   H     0.54223   0.98680   0.75208   0.00000  Uiso   1.00
H261   H     0.46826   0.33308   0.64526   0.00000  Uiso   1.00
H262   H     0.32593   0.37925   0.69184   0.00000  Uiso   1.00
H263   H     0.59534   0.41276   0.65478   0.00000  Uiso   1.00
H264   H     0.47931   0.21543   0.56638   0.00000  Uiso   1.00
H265   H     0.17483   0.41754   0.77944   0.00000  Uiso   1.00
H266   H     0.74290   0.48818   0.70127   0.00000  Uiso   1.00
H267   H     0.49823   0.07208   0.51486   0.00000  Uiso   1.00
O268   O     0.10414   0.40350   0.93369   0.00000  Uiso   1.00
O269   O     0.84943   0.49617   0.83114   0.00000  Uiso   1.00
O270   O     0.52843   0.95025   0.58657   0.00000  Uiso   1.00
N271   N     0.22800   0.34599   0.95443   0.00000  Uiso   1.00
N272   N     0.75910   0.41204   0.88136   0.00000  Uiso   1.00
N273   N     0.53038   0.02302   0.70708   0.00000  Uiso   1.00
N274   N     0.20432   0.39187   0.82678   0.00000  Uiso   1.00
N275   N     0.73542   0.45792   0.75371   0.00000  Uiso   1.00
N276   N     0.50670   0.06890   0.57943   0.00000  Uiso   1.00
C277   C     0.00786   0.74371   0.64115   0.00000  Uiso   1.00
C278   C     0.92494   0.70778   0.64600   0.00000  Uiso   1.00
C279   C     0.86841   0.70313   0.57898   0.00000  Uiso   1.00
C280   C     0.79614   0.66809   0.59640   0.00000  Uiso   1.00
C281   C     0.66970   0.61673   0.59152   0.00000  Uiso   1.00
C282   C     0.07131   0.68957   0.66614   0.00000  Uiso   1.00
C283   C     0.13785   0.66961   0.61605   0.00000  Uiso   1.00
C284   C     0.18880   0.61924   0.65042   0.00000  Uiso   1.00
C285   C     0.28964   0.53965   0.67683   0.00000  Uiso   1.00
C286   C     0.00826   0.79678   0.71416   0.00000  Uiso   1.00
C287   C     0.02182   0.86697   0.70446   0.00000  Uiso   1.00
C288   C     0.01970   0.90687   0.77927   0.00000  Uiso   1.00
C289   C     0.02264   0.99374   0.88025   0.00000  Uiso   1.00
C290   C     0.98003   0.68975   0.79126   0.00000  Uiso   1.00
C291   C     0.90983   0.67847   0.72754   0.00000  Uiso   1.00
C292   C     0.83762   0.64343   0.74506   0.00000  Uiso   1.00
C293   C     0.78099   0.63873   0.67808   0.00000  Uiso   1.00
C294   C     0.05619   0.66026   0.74767   0.00000  Uiso   1.00
C295   C     0.10706   0.60991   0.78212   0.00000  Uiso   1.00
C296   C     0.17365   0.58987   0.73210   0.00000  Uiso   1.00
C297   C     0.99314   0.76747   0.79570   0.00000  Uiso   1.00
C298   C     0.99101   0.80727   0.87054   0.00000  Uiso   1.00
C299   C     0.00455   0.87750   0.86095   0.00000  Uiso   1.00
H300   H     0.01964   0.76653   0.57767   0.00000  Uiso   1.00
H301   H     0.88014   0.72582   0.51589   0.00000  Uiso   1.00
H302   H     0.14954   0.69231   0.55296   0.00000  Uiso   1.00
H303   H     0.03351   0.88964   0.64136   0.00000  Uiso   1.00
H304   H     0.71883   0.66774   0.48335   0.00000  Uiso   1.00
H305   H     0.28689   0.59710   0.56151   0.00000  Uiso   1.00
H306   H     0.04223   0.01320   0.74792   0.00000  Uiso   1.00
H307   H     0.96826   0.66692   0.85474   0.00000  Uiso   1.00
H308   H     0.82593   0.62075   0.80816   0.00000  Uiso   1.00
H309   H     0.09534   0.58724   0.84522   0.00000  Uiso   1.00
H310   H     0.97931   0.78457   0.93362   0.00000  Uiso   1.00
H311   H     0.67483   0.58246   0.72056   0.00000  Uiso   1.00
H312   H     0.24290   0.51182   0.79873   0.00000  Uiso   1.00
H313   H     0.99823   0.92792   0.98514   0.00000  Uiso   1.00
O314   O     0.60414   0.59650   0.56631   0.00000  Uiso   1.00
O315   O     0.34943   0.50383   0.66886   0.00000  Uiso   1.00
O316   O     0.02843   0.04975   0.91343   0.00000  Uiso   1.00
N317   N     0.72800   0.65401   0.54557   0.00000  Uiso   1.00
N318   N     0.25910   0.58796   0.61864   0.00000  Uiso   1.00
N319   N     0.03038   0.97698   0.79292   0.00000  Uiso   1.00
N320   N     0.70432   0.60813   0.67322   0.00000  Uiso   1.00
N321   N     0.23542   0.54208   0.74629   0.00000  Uiso   1.00
N322   N     0.00670   0.93110   0.92057   0.00000  Uiso   1.00
C323   C     0.49214   0.75629   0.64115   0.00000  Uiso   1.00
C324   C     0.57506   0.79222   0.64600   0.00000  Uiso   1.00
C325   C     0.63159   0.79687   0.57898   0.00000  Uiso   1.00
C326   C     0.70386   0.83191   0.59640   0.00000  Uiso   1.00
C327   C     0.83030   0.88327   0.59152   0.00000  Uiso   1.00
C328   C     0.42869   0.81043   0.66614   0.00000  Uiso   1.00
C329   C     0.36215   0.83039   0.61605   0.00000  Uiso   1.00
C330   C     0.31120   0.88076   0.65042   0.00000  Uiso   1.00
C331   C     0.21036   0.96035   0.67683   0.00000  Uiso   1.00
C332   C     0.49174   0.70322   0.71416   0.00000  Uiso   1.00
C333   C     0.47818   0.63303   0.70446   0.00000  Uiso   1.00
C334   C     0.48030   0.59313   0.77927   0.00000  Uiso   1.00
C335   C     0.47736   0.50626   0.88025   0.00000  Uiso   1.00
C336   C     0.51997   0.81025   0.79126   0.00000  Uiso   1.00
C337   C     0.59017   0.82153   0.72754   0.00000  Uiso   1.00
C338   C     0.66238   0.85657   0.74506   0.00000  Uiso   1.00
C339   C     0.71901   0.86127   0.67808   0.00000  Uiso   1.00
C340   C     0.44381   0.83974   0.74767   0.00000  Uiso   1.00
C341   C     0.39294   0.89009   0.78212   0.00000  Uiso   1.00
C342   C     0.32635   0.91013   0.73210   0.00000  Uiso   1.00
C343   C     0.50686   0.73253   0.79570   0.00000  Uiso   1.00
C344   C     0.50899   0.69273   0.87054   0.00000  Uiso   1.00
C345   C     0.49545   0.62250   0.86095   0.00000  Uiso   1.00
H346   H     0.48036   0.73347   0.57767   0.00000  Uiso   1.00
H347   H     0.61986   0.77418   0.51589   0.00000  Uiso   1.00
H348   H     0.35046   0.80769   0.55296   0.00000  Uiso   1.00
H349   H     0.46649   0.61036   0.64136   0.00000  Uiso   1.00
H350   H     0.78117   0.83226   0.48335   0.00000  Uiso   1.00
H351   H     0.21311   0.90290   0.56151   0.00000  Uiso   1.00
H352   H     0.45777   0.48680   0.74792   0.00000  Uiso   1.00
H353   H     0.53174   0.83308   0.85474   0.00000  Uiso   1.00
H354   H     0.67407   0.87925   0.80816   0.00000  Uiso   1.00
H355   H     0.40466   0.91276   0.84522   0.00000  Uiso   1.00
H356   H     0.52069   0.71543   0.93362   0.00000  Uiso   1.00
H357   H     0.82517   0.91754   0.72056   0.00000  Uiso   1.00
H358   H     0.25710   0.98818   0.79873   0.00000  Uiso   1.00
H359   H     0.50177   0.57208   0.98514   0.00000  Uiso   1.00
O360   O     0.89586   0.90350   0.56631   0.00000  Uiso   1.00
O361   O     0.15057   0.99617   0.66886   0.00000  Uiso   1.00
O362   O     0.47157   0.45025   0.91343   0.00000  Uiso   1.00
N363   N     0.77200   0.84599   0.54557   0.00000  Uiso   1.00
N364   N     0.24090   0.91204   0.61864   0.00000  Uiso   1.00
N365   N     0.46962   0.52302   0.79292   0.00000  Uiso   1.00
N366   N     0.79568   0.89187   0.67322   0.00000  Uiso   1.00
N367   N     0.26458   0.95792   0.74629   0.00000  Uiso   1.00
N368   N     0.49330   0.56890   0.92057   0.00000  Uiso   1.00
