data_job_02111
_audit_creation_date              2018-12-19
_audit_creation_method            'Materials Studio'
_symmetry_space_group_name_H-M    'P1'
_symmetry_Int_Tables_number       1
_symmetry_cell_setting            triclinic
loop_
_symmetry_equiv_pos_as_xyz
  x,y,z
_cell_length_a                    12.6578
_cell_length_b                    12.6578
_cell_length_c                    40.6099
_cell_angle_alpha                 90.0000
_cell_angle_beta                  90.0000
_cell_angle_gamma                 90.0000
loop_
_atom_site_label
_atom_site_type_symbol
_atom_site_fract_x
_atom_site_fract_y
_atom_site_fract_z
_atom_site_U_iso_or_equiv
_atom_site_adp_type
_atom_site_occupancy
C1     C     0.17823   0.06659   0.33124   0.00000  Uiso   1.00
C2     C     0.09882   0.99126   0.31555   0.00000  Uiso   1.00
C3     C     0.00599   0.02045   0.29980   0.00000  Uiso   1.00
C4     C     0.94402   0.93969   0.28708   0.00000  Uiso   1.00
C5     C     0.81615   0.83885   0.26229   0.00000  Uiso   1.00
C6     C     0.18942   0.03138   0.36698   0.00000  Uiso   1.00
C7     C     0.17279   0.09432   0.39448   0.00000  Uiso   1.00
C8     C     0.18710   0.04733   0.42505   0.00000  Uiso   1.00
C9     C     0.19997   0.00881   0.48010   0.00000  Uiso   1.00
C10    C     0.28413   0.04325   0.31488   0.00000  Uiso   1.00
C11    C     0.34714   0.11617   0.29859   0.00000  Uiso   1.00
C12    C     0.44120   0.07918   0.28531   0.00000  Uiso   1.00
C13    C     0.60112   0.05909   0.25948   0.00000  Uiso   1.00
C14    C     0.23324   0.87123   0.33663   0.00000  Uiso   1.00
C15    C     0.12870   0.88515   0.31848   0.00000  Uiso   1.00
C16    C     0.06685   0.80431   0.30577   0.00000  Uiso   1.00
C17    C     0.97395   0.83338   0.29001   0.00000  Uiso   1.00
C18    C     0.21930   0.92528   0.36991   0.00000  Uiso   1.00
C19    C     0.23365   0.87818   0.40044   0.00000  Uiso   1.00
C20    C     0.21703   0.94103   0.42798   0.00000  Uiso   1.00
C21    C     0.31401   0.93714   0.31781   0.00000  Uiso   1.00
C22    C     0.40800   0.90003   0.30455   0.00000  Uiso   1.00
C23    C     0.47114   0.97288   0.28824   0.00000  Uiso   1.00
H24    H     0.15496   0.14920   0.32896   0.00000  Uiso   1.00
H25    H     0.98289   0.10258   0.29755   0.00000  Uiso   1.00
H26    H     0.14967   0.17644   0.39220   0.00000  Uiso   1.00
H27    H     0.32399   0.19828   0.29633   0.00000  Uiso   1.00
H28    H     0.80527   0.00409   0.26402   0.00000  Uiso   1.00
H29    H     0.15697   0.15984   0.46361   0.00000  Uiso   1.00
H30    H     0.52457   0.20590   0.26144   0.00000  Uiso   1.00
H31    H     0.25650   0.78862   0.33891   0.00000  Uiso   1.00
H32    H     0.09000   0.72221   0.30804   0.00000  Uiso   1.00
H33    H     0.25678   0.79607   0.40270   0.00000  Uiso   1.00
H34    H     0.43110   0.81791   0.30683   0.00000  Uiso   1.00
H35    H     0.89220   0.69537   0.27254   0.00000  Uiso   1.00
H36    H     0.24391   0.85111   0.47213   0.00000  Uiso   1.00
H37    H     0.61150   0.89718   0.26996   0.00000  Uiso   1.00
O38    O     0.73735   0.81255   0.24781   0.00000  Uiso   1.00
O39    O     0.19880   0.01688   0.50966   0.00000  Uiso   1.00
O40    O     0.68106   0.07732   0.24441   0.00000  Uiso   1.00
N41    N     0.84859   0.94055   0.27026   0.00000  Uiso   1.00
N42    N     0.17740   0.08616   0.45686   0.00000  Uiso   1.00
N43    N     0.52108   0.12923   0.26786   0.00000  Uiso   1.00
N44    N     0.89537   0.77443   0.27484   0.00000  Uiso   1.00
N45    N     0.22417   0.92003   0.46145   0.00000  Uiso   1.00
N46    N     0.56786   0.96311   0.27244   0.00000  Uiso   1.00
C47    C     0.82177   0.93341   0.83124   0.00000  Uiso   1.00
C48    C     0.90118   0.00874   0.81555   0.00000  Uiso   1.00
C49    C     0.99401   0.97955   0.79980   0.00000  Uiso   1.00
C50    C     0.05598   0.06031   0.78708   0.00000  Uiso   1.00
C51    C     0.18385   0.16115   0.76229   0.00000  Uiso   1.00
C52    C     0.81058   0.96862   0.86698   0.00000  Uiso   1.00
C53    C     0.82721   0.90568   0.89448   0.00000  Uiso   1.00
C54    C     0.81290   0.95267   0.92505   0.00000  Uiso   1.00
C55    C     0.80003   0.99119   0.98010   0.00000  Uiso   1.00
C56    C     0.71587   0.95675   0.81488   0.00000  Uiso   1.00
C57    C     0.65286   0.88383   0.79859   0.00000  Uiso   1.00
C58    C     0.55880   0.92082   0.78531   0.00000  Uiso   1.00
C59    C     0.39888   0.94091   0.75948   0.00000  Uiso   1.00
C60    C     0.76676   0.12877   0.83663   0.00000  Uiso   1.00
C61    C     0.87130   0.11485   0.81848   0.00000  Uiso   1.00
C62    C     0.93315   0.19569   0.80577   0.00000  Uiso   1.00
C63    C     0.02605   0.16662   0.79001   0.00000  Uiso   1.00
C64    C     0.78070   0.07472   0.86991   0.00000  Uiso   1.00
C65    C     0.76635   0.12182   0.90044   0.00000  Uiso   1.00
C66    C     0.78297   0.05897   0.92798   0.00000  Uiso   1.00
C67    C     0.68599   0.06286   0.81781   0.00000  Uiso   1.00
C68    C     0.59200   0.09997   0.80455   0.00000  Uiso   1.00
C69    C     0.52886   0.02712   0.78824   0.00000  Uiso   1.00
H70    H     0.84504   0.85080   0.82896   0.00000  Uiso   1.00
H71    H     0.01711   0.89742   0.79755   0.00000  Uiso   1.00
H72    H     0.85033   0.82356   0.89220   0.00000  Uiso   1.00
H73    H     0.67601   0.80172   0.79633   0.00000  Uiso   1.00
H74    H     0.19473   0.99591   0.76402   0.00000  Uiso   1.00
H75    H     0.84303   0.84016   0.96361   0.00000  Uiso   1.00
H76    H     0.47543   0.79410   0.76144   0.00000  Uiso   1.00
H77    H     0.74350   0.21138   0.83891   0.00000  Uiso   1.00
H78    H     0.91000   0.27779   0.80804   0.00000  Uiso   1.00
H79    H     0.74322   0.20393   0.90270   0.00000  Uiso   1.00
H80    H     0.56890   0.18209   0.80683   0.00000  Uiso   1.00
H81    H     0.10780   0.30463   0.77254   0.00000  Uiso   1.00
H82    H     0.75609   0.14889   0.97213   0.00000  Uiso   1.00
H83    H     0.38850   0.10282   0.76996   0.00000  Uiso   1.00
O84    O     0.26265   0.18745   0.74781   0.00000  Uiso   1.00
O85    O     0.80120   0.98312   0.00966   0.00000  Uiso   1.00
O86    O     0.31894   0.92268   0.74441   0.00000  Uiso   1.00
N87    N     0.15141   0.05945   0.77026   0.00000  Uiso   1.00
N88    N     0.82260   0.91384   0.95686   0.00000  Uiso   1.00
N89    N     0.47892   0.87077   0.76786   0.00000  Uiso   1.00
N90    N     0.10463   0.22557   0.77484   0.00000  Uiso   1.00
N91    N     0.77583   0.07997   0.96145   0.00000  Uiso   1.00
N92    N     0.43214   0.03689   0.77244   0.00000  Uiso   1.00
C93    C     0.43341   0.67823   0.08124   0.00000  Uiso   1.00
C94    C     0.50874   0.59882   0.06555   0.00000  Uiso   1.00
C95    C     0.47955   0.50599   0.04980   0.00000  Uiso   1.00
C96    C     0.56031   0.44402   0.03708   0.00000  Uiso   1.00
C97    C     0.66115   0.31615   0.01229   0.00000  Uiso   1.00
C98    C     0.46862   0.68942   0.11698   0.00000  Uiso   1.00
C99    C     0.40568   0.67279   0.14448   0.00000  Uiso   1.00
C100   C     0.45267   0.68710   0.17505   0.00000  Uiso   1.00
C101   C     0.49119   0.69997   0.23010   0.00000  Uiso   1.00
C102   C     0.45675   0.78413   0.06488   0.00000  Uiso   1.00
C103   C     0.38383   0.84714   0.04859   0.00000  Uiso   1.00
C104   C     0.42082   0.94120   0.03531   0.00000  Uiso   1.00
C105   C     0.44091   0.10112   0.00948   0.00000  Uiso   1.00
C106   C     0.62877   0.73324   0.08663   0.00000  Uiso   1.00
C107   C     0.61485   0.62870   0.06848   0.00000  Uiso   1.00
C108   C     0.69569   0.56685   0.05577   0.00000  Uiso   1.00
C109   C     0.66662   0.47395   0.04001   0.00000  Uiso   1.00
C110   C     0.57472   0.71930   0.11991   0.00000  Uiso   1.00
C111   C     0.62182   0.73365   0.15044   0.00000  Uiso   1.00
C112   C     0.55897   0.71703   0.17798   0.00000  Uiso   1.00
C113   C     0.56286   0.81401   0.06781   0.00000  Uiso   1.00
C114   C     0.59997   0.90800   0.05455   0.00000  Uiso   1.00
C115   C     0.52712   0.97114   0.03824   0.00000  Uiso   1.00
H116   H     0.35080   0.65496   0.07896   0.00000  Uiso   1.00
H117   H     0.39742   0.48289   0.04755   0.00000  Uiso   1.00
H118   H     0.32356   0.64967   0.14220   0.00000  Uiso   1.00
H119   H     0.30172   0.82399   0.04633   0.00000  Uiso   1.00
H120   H     0.49591   0.30527   0.01402   0.00000  Uiso   1.00
H121   H     0.34016   0.65697   0.21361   0.00000  Uiso   1.00
H122   H     0.29410   0.02457   0.01144   0.00000  Uiso   1.00
H123   H     0.71138   0.75650   0.08891   0.00000  Uiso   1.00
H124   H     0.77779   0.59000   0.05804   0.00000  Uiso   1.00
H125   H     0.70393   0.75678   0.15270   0.00000  Uiso   1.00
H126   H     0.68209   0.93110   0.05683   0.00000  Uiso   1.00
H127   H     0.80463   0.39220   0.02254   0.00000  Uiso   1.00
H128   H     0.64889   0.74391   0.22213   0.00000  Uiso   1.00
H129   H     0.60282   0.11150   0.01996   0.00000  Uiso   1.00
O130   O     0.68745   0.23735   0.99781   0.00000  Uiso   1.00
O131   O     0.48312   0.69880   0.25966   0.00000  Uiso   1.00
O132   O     0.42268   0.18106   0.99441   0.00000  Uiso   1.00
N133   N     0.55945   0.34859   0.02026   0.00000  Uiso   1.00
N134   N     0.41384   0.67740   0.20686   0.00000  Uiso   1.00
N135   N     0.37077   0.02108   0.01786   0.00000  Uiso   1.00
N136   N     0.72557   0.39537   0.02484   0.00000  Uiso   1.00
N137   N     0.57997   0.72417   0.21145   0.00000  Uiso   1.00
N138   N     0.53689   0.06786   0.02244   0.00000  Uiso   1.00
C139   C     0.56659   0.32177   0.58124   0.00000  Uiso   1.00
C140   C     0.49126   0.40118   0.56555   0.00000  Uiso   1.00
C141   C     0.52045   0.49401   0.54980   0.00000  Uiso   1.00
C142   C     0.43969   0.55598   0.53708   0.00000  Uiso   1.00
C143   C     0.33885   0.68385   0.51229   0.00000  Uiso   1.00
C144   C     0.53138   0.31058   0.61698   0.00000  Uiso   1.00
C145   C     0.59432   0.32721   0.64448   0.00000  Uiso   1.00
C146   C     0.54733   0.31290   0.67505   0.00000  Uiso   1.00
C147   C     0.50881   0.30003   0.73010   0.00000  Uiso   1.00
C148   C     0.54325   0.21587   0.56488   0.00000  Uiso   1.00
C149   C     0.61617   0.15286   0.54859   0.00000  Uiso   1.00
C150   C     0.57918   0.05880   0.53531   0.00000  Uiso   1.00
C151   C     0.55909   0.89888   0.50948   0.00000  Uiso   1.00
C152   C     0.37123   0.26676   0.58663   0.00000  Uiso   1.00
C153   C     0.38515   0.37130   0.56848   0.00000  Uiso   1.00
C154   C     0.30431   0.43315   0.55577   0.00000  Uiso   1.00
C155   C     0.33338   0.52605   0.54001   0.00000  Uiso   1.00
C156   C     0.42528   0.28070   0.61991   0.00000  Uiso   1.00
C157   C     0.37818   0.26635   0.65044   0.00000  Uiso   1.00
C158   C     0.44103   0.28297   0.67798   0.00000  Uiso   1.00
C159   C     0.43714   0.18599   0.56781   0.00000  Uiso   1.00
C160   C     0.40003   0.09200   0.55455   0.00000  Uiso   1.00
C161   C     0.47288   0.02886   0.53824   0.00000  Uiso   1.00
H162   H     0.64920   0.34504   0.57896   0.00000  Uiso   1.00
H163   H     0.60258   0.51711   0.54755   0.00000  Uiso   1.00
H164   H     0.67644   0.35033   0.64220   0.00000  Uiso   1.00
H165   H     0.69828   0.17601   0.54633   0.00000  Uiso   1.00
H166   H     0.50409   0.69473   0.51402   0.00000  Uiso   1.00
H167   H     0.65984   0.34303   0.71361   0.00000  Uiso   1.00
H168   H     0.70590   0.97543   0.51144   0.00000  Uiso   1.00
H169   H     0.28862   0.24350   0.58891   0.00000  Uiso   1.00
H170   H     0.22221   0.41000   0.55804   0.00000  Uiso   1.00
H171   H     0.29607   0.24322   0.65270   0.00000  Uiso   1.00
H172   H     0.31791   0.06890   0.55683   0.00000  Uiso   1.00
H173   H     0.19537   0.60780   0.52254   0.00000  Uiso   1.00
H174   H     0.35111   0.25609   0.72213   0.00000  Uiso   1.00
H175   H     0.39718   0.88850   0.51996   0.00000  Uiso   1.00
O176   O     0.31255   0.76265   0.49781   0.00000  Uiso   1.00
O177   O     0.51688   0.30120   0.75966   0.00000  Uiso   1.00
O178   O     0.57732   0.81894   0.49441   0.00000  Uiso   1.00
N179   N     0.44055   0.65141   0.52026   0.00000  Uiso   1.00
N180   N     0.58616   0.32260   0.70686   0.00000  Uiso   1.00
N181   N     0.62923   0.97892   0.51786   0.00000  Uiso   1.00
N182   N     0.27443   0.60463   0.52484   0.00000  Uiso   1.00
N183   N     0.42003   0.27583   0.71145   0.00000  Uiso   1.00
N184   N     0.46311   0.93214   0.52244   0.00000  Uiso   1.00
C185   C     0.32177   0.56659   0.41876   0.00000  Uiso   1.00
C186   C     0.40118   0.49126   0.43445   0.00000  Uiso   1.00
C187   C     0.49401   0.52045   0.45020   0.00000  Uiso   1.00
C188   C     0.55598   0.43969   0.46292   0.00000  Uiso   1.00
C189   C     0.68385   0.33885   0.48771   0.00000  Uiso   1.00
C190   C     0.31058   0.53138   0.38302   0.00000  Uiso   1.00
C191   C     0.32721   0.59432   0.35552   0.00000  Uiso   1.00
C192   C     0.31290   0.54733   0.32495   0.00000  Uiso   1.00
C193   C     0.30003   0.50881   0.26990   0.00000  Uiso   1.00
C194   C     0.21587   0.54325   0.43512   0.00000  Uiso   1.00
C195   C     0.15286   0.61617   0.45141   0.00000  Uiso   1.00
C196   C     0.05880   0.57918   0.46469   0.00000  Uiso   1.00
C197   C     0.89888   0.55909   0.49052   0.00000  Uiso   1.00
C198   C     0.26676   0.37123   0.41337   0.00000  Uiso   1.00
C199   C     0.37130   0.38515   0.43152   0.00000  Uiso   1.00
C200   C     0.43315   0.30431   0.44423   0.00000  Uiso   1.00
C201   C     0.52605   0.33338   0.45999   0.00000  Uiso   1.00
C202   C     0.28070   0.42528   0.38009   0.00000  Uiso   1.00
C203   C     0.26635   0.37818   0.34956   0.00000  Uiso   1.00
C204   C     0.28297   0.44103   0.32202   0.00000  Uiso   1.00
C205   C     0.18599   0.43714   0.43219   0.00000  Uiso   1.00
C206   C     0.09200   0.40003   0.44545   0.00000  Uiso   1.00
C207   C     0.02886   0.47288   0.46176   0.00000  Uiso   1.00
H208   H     0.34504   0.64920   0.42104   0.00000  Uiso   1.00
H209   H     0.51711   0.60258   0.45245   0.00000  Uiso   1.00
H210   H     0.35033   0.67644   0.35780   0.00000  Uiso   1.00
H211   H     0.17601   0.69828   0.45367   0.00000  Uiso   1.00
H212   H     0.69473   0.50409   0.48598   0.00000  Uiso   1.00
H213   H     0.34303   0.65984   0.28639   0.00000  Uiso   1.00
H214   H     0.97543   0.70590   0.48856   0.00000  Uiso   1.00
H215   H     0.24350   0.28862   0.41109   0.00000  Uiso   1.00
H216   H     0.41000   0.22221   0.44196   0.00000  Uiso   1.00
H217   H     0.24322   0.29607   0.34730   0.00000  Uiso   1.00
H218   H     0.06890   0.31791   0.44317   0.00000  Uiso   1.00
H219   H     0.60780   0.19537   0.47746   0.00000  Uiso   1.00
H220   H     0.25609   0.35111   0.27787   0.00000  Uiso   1.00
H221   H     0.88850   0.39718   0.48004   0.00000  Uiso   1.00
O222   O     0.76265   0.31255   0.50219   0.00000  Uiso   1.00
O223   O     0.30120   0.51688   0.24034   0.00000  Uiso   1.00
O224   O     0.81894   0.57732   0.50559   0.00000  Uiso   1.00
N225   N     0.65141   0.44055   0.47974   0.00000  Uiso   1.00
N226   N     0.32260   0.58616   0.29314   0.00000  Uiso   1.00
N227   N     0.97892   0.62923   0.48214   0.00000  Uiso   1.00
N228   N     0.60463   0.27443   0.47516   0.00000  Uiso   1.00
N229   N     0.27583   0.42003   0.28855   0.00000  Uiso   1.00
N230   N     0.93214   0.46311   0.47756   0.00000  Uiso   1.00
C231   C     0.67823   0.43341   0.91876   0.00000  Uiso   1.00
C232   C     0.59882   0.50874   0.93445   0.00000  Uiso   1.00
C233   C     0.50599   0.47955   0.95020   0.00000  Uiso   1.00
C234   C     0.44402   0.56031   0.96292   0.00000  Uiso   1.00
C235   C     0.31615   0.66115   0.98771   0.00000  Uiso   1.00
C236   C     0.68942   0.46862   0.88302   0.00000  Uiso   1.00
C237   C     0.67279   0.40568   0.85552   0.00000  Uiso   1.00
C238   C     0.68710   0.45267   0.82495   0.00000  Uiso   1.00
C239   C     0.69997   0.49119   0.76990   0.00000  Uiso   1.00
C240   C     0.78413   0.45675   0.93512   0.00000  Uiso   1.00
C241   C     0.84714   0.38383   0.95141   0.00000  Uiso   1.00
C242   C     0.94120   0.42082   0.96469   0.00000  Uiso   1.00
C243   C     0.10112   0.44091   0.99052   0.00000  Uiso   1.00
C244   C     0.73324   0.62877   0.91337   0.00000  Uiso   1.00
C245   C     0.62870   0.61485   0.93152   0.00000  Uiso   1.00
C246   C     0.56685   0.69569   0.94423   0.00000  Uiso   1.00
C247   C     0.47395   0.66662   0.95999   0.00000  Uiso   1.00
C248   C     0.71930   0.57472   0.88009   0.00000  Uiso   1.00
C249   C     0.73365   0.62182   0.84956   0.00000  Uiso   1.00
C250   C     0.71703   0.55897   0.82202   0.00000  Uiso   1.00
C251   C     0.81401   0.56286   0.93219   0.00000  Uiso   1.00
C252   C     0.90800   0.59997   0.94545   0.00000  Uiso   1.00
C253   C     0.97114   0.52712   0.96176   0.00000  Uiso   1.00
H254   H     0.65496   0.35080   0.92104   0.00000  Uiso   1.00
H255   H     0.48289   0.39742   0.95245   0.00000  Uiso   1.00
H256   H     0.64967   0.32356   0.85780   0.00000  Uiso   1.00
H257   H     0.82399   0.30172   0.95367   0.00000  Uiso   1.00
H258   H     0.30527   0.49591   0.98598   0.00000  Uiso   1.00
H259   H     0.65697   0.34016   0.78639   0.00000  Uiso   1.00
H260   H     0.02457   0.29410   0.98856   0.00000  Uiso   1.00
H261   H     0.75650   0.71138   0.91109   0.00000  Uiso   1.00
H262   H     0.59000   0.77779   0.94196   0.00000  Uiso   1.00
H263   H     0.75678   0.70393   0.84730   0.00000  Uiso   1.00
H264   H     0.93110   0.68209   0.94317   0.00000  Uiso   1.00
H265   H     0.39220   0.80463   0.97746   0.00000  Uiso   1.00
H266   H     0.74391   0.64889   0.77787   0.00000  Uiso   1.00
H267   H     0.11150   0.60282   0.98004   0.00000  Uiso   1.00
O268   O     0.23735   0.68745   0.00219   0.00000  Uiso   1.00
O269   O     0.69880   0.48312   0.74034   0.00000  Uiso   1.00
O270   O     0.18106   0.42268   0.00559   0.00000  Uiso   1.00
N271   N     0.34859   0.55945   0.97974   0.00000  Uiso   1.00
N272   N     0.67740   0.41384   0.79314   0.00000  Uiso   1.00
N273   N     0.02108   0.37077   0.98214   0.00000  Uiso   1.00
N274   N     0.39537   0.72557   0.97516   0.00000  Uiso   1.00
N275   N     0.72417   0.57997   0.78855   0.00000  Uiso   1.00
N276   N     0.06786   0.53689   0.97756   0.00000  Uiso   1.00
C277   C     0.06659   0.17823   0.66876   0.00000  Uiso   1.00
C278   C     0.99126   0.09882   0.68445   0.00000  Uiso   1.00
C279   C     0.02045   0.00599   0.70020   0.00000  Uiso   1.00
C280   C     0.93969   0.94402   0.71292   0.00000  Uiso   1.00
C281   C     0.83885   0.81615   0.73771   0.00000  Uiso   1.00
C282   C     0.03138   0.18942   0.63302   0.00000  Uiso   1.00
C283   C     0.09432   0.17279   0.60552   0.00000  Uiso   1.00
C284   C     0.04733   0.18710   0.57495   0.00000  Uiso   1.00
C285   C     0.00881   0.19997   0.51990   0.00000  Uiso   1.00
C286   C     0.04325   0.28413   0.68512   0.00000  Uiso   1.00
C287   C     0.11617   0.34714   0.70141   0.00000  Uiso   1.00
C288   C     0.07918   0.44120   0.71469   0.00000  Uiso   1.00
C289   C     0.05909   0.60112   0.74052   0.00000  Uiso   1.00
C290   C     0.87123   0.23324   0.66337   0.00000  Uiso   1.00
C291   C     0.88515   0.12870   0.68152   0.00000  Uiso   1.00
C292   C     0.80431   0.06685   0.69423   0.00000  Uiso   1.00
C293   C     0.83338   0.97395   0.70999   0.00000  Uiso   1.00
C294   C     0.92528   0.21930   0.63009   0.00000  Uiso   1.00
C295   C     0.87818   0.23365   0.59956   0.00000  Uiso   1.00
C296   C     0.94103   0.21703   0.57202   0.00000  Uiso   1.00
C297   C     0.93714   0.31401   0.68219   0.00000  Uiso   1.00
C298   C     0.90003   0.40800   0.69545   0.00000  Uiso   1.00
C299   C     0.97288   0.47114   0.71176   0.00000  Uiso   1.00
H300   H     0.14920   0.15496   0.67104   0.00000  Uiso   1.00
H301   H     0.10258   0.98289   0.70245   0.00000  Uiso   1.00
H302   H     0.17644   0.14967   0.60780   0.00000  Uiso   1.00
H303   H     0.19828   0.32399   0.70367   0.00000  Uiso   1.00
H304   H     0.00409   0.80527   0.73598   0.00000  Uiso   1.00
H305   H     0.15984   0.15697   0.53639   0.00000  Uiso   1.00
H306   H     0.20590   0.52457   0.73856   0.00000  Uiso   1.00
H307   H     0.78862   0.25650   0.66109   0.00000  Uiso   1.00
H308   H     0.72221   0.09000   0.69196   0.00000  Uiso   1.00
H309   H     0.79607   0.25678   0.59730   0.00000  Uiso   1.00
H310   H     0.81791   0.43110   0.69317   0.00000  Uiso   1.00
H311   H     0.69537   0.89220   0.72746   0.00000  Uiso   1.00
H312   H     0.85111   0.24391   0.52787   0.00000  Uiso   1.00
H313   H     0.89718   0.61150   0.73004   0.00000  Uiso   1.00
O314   O     0.81255   0.73735   0.75219   0.00000  Uiso   1.00
O315   O     0.01688   0.19880   0.49034   0.00000  Uiso   1.00
O316   O     0.07732   0.68106   0.75559   0.00000  Uiso   1.00
N317   N     0.94055   0.84859   0.72974   0.00000  Uiso   1.00
N318   N     0.08616   0.17740   0.54314   0.00000  Uiso   1.00
N319   N     0.12923   0.52108   0.73214   0.00000  Uiso   1.00
N320   N     0.77443   0.89537   0.72516   0.00000  Uiso   1.00
N321   N     0.92003   0.22417   0.53855   0.00000  Uiso   1.00
N322   N     0.96311   0.56786   0.72756   0.00000  Uiso   1.00
C323   C     0.93341   0.82177   0.16876   0.00000  Uiso   1.00
C324   C     0.00874   0.90118   0.18445   0.00000  Uiso   1.00
C325   C     0.97955   0.99401   0.20020   0.00000  Uiso   1.00
C326   C     0.06031   0.05598   0.21292   0.00000  Uiso   1.00
C327   C     0.16115   0.18385   0.23771   0.00000  Uiso   1.00
C328   C     0.96862   0.81058   0.13302   0.00000  Uiso   1.00
C329   C     0.90568   0.82721   0.10552   0.00000  Uiso   1.00
C330   C     0.95267   0.81290   0.07495   0.00000  Uiso   1.00
C331   C     0.99119   0.80003   0.01990   0.00000  Uiso   1.00
C332   C     0.95675   0.71587   0.18512   0.00000  Uiso   1.00
C333   C     0.88383   0.65286   0.20141   0.00000  Uiso   1.00
C334   C     0.92082   0.55880   0.21469   0.00000  Uiso   1.00
C335   C     0.94091   0.39888   0.24052   0.00000  Uiso   1.00
C336   C     0.12877   0.76676   0.16337   0.00000  Uiso   1.00
C337   C     0.11485   0.87130   0.18152   0.00000  Uiso   1.00
C338   C     0.19569   0.93315   0.19423   0.00000  Uiso   1.00
C339   C     0.16662   0.02605   0.20999   0.00000  Uiso   1.00
C340   C     0.07472   0.78070   0.13009   0.00000  Uiso   1.00
C341   C     0.12182   0.76635   0.09956   0.00000  Uiso   1.00
C342   C     0.05897   0.78297   0.07202   0.00000  Uiso   1.00
C343   C     0.06286   0.68599   0.18219   0.00000  Uiso   1.00
C344   C     0.09997   0.59200   0.19545   0.00000  Uiso   1.00
C345   C     0.02712   0.52886   0.21176   0.00000  Uiso   1.00
H346   H     0.85080   0.84504   0.17104   0.00000  Uiso   1.00
H347   H     0.89742   0.01711   0.20245   0.00000  Uiso   1.00
H348   H     0.82356   0.85033   0.10780   0.00000  Uiso   1.00
H349   H     0.80172   0.67601   0.20367   0.00000  Uiso   1.00
H350   H     0.99591   0.19473   0.23598   0.00000  Uiso   1.00
H351   H     0.84016   0.84303   0.03639   0.00000  Uiso   1.00
H352   H     0.79410   0.47543   0.23856   0.00000  Uiso   1.00
H353   H     0.21138   0.74350   0.16109   0.00000  Uiso   1.00
H354   H     0.27779   0.91000   0.19196   0.00000  Uiso   1.00
H355   H     0.20393   0.74322   0.09730   0.00000  Uiso   1.00
H356   H     0.18209   0.56890   0.19317   0.00000  Uiso   1.00
H357   H     0.30463   0.10780   0.22746   0.00000  Uiso   1.00
H358   H     0.14889   0.75609   0.02787   0.00000  Uiso   1.00
H359   H     0.10282   0.38850   0.23004   0.00000  Uiso   1.00
O360   O     0.18745   0.26265   0.25219   0.00000  Uiso   1.00
O361   O     0.98312   0.80120   0.99034   0.00000  Uiso   1.00
O362   O     0.92268   0.31894   0.25559   0.00000  Uiso   1.00
N363   N     0.05945   0.15141   0.22974   0.00000  Uiso   1.00
N364   N     0.91384   0.82260   0.04314   0.00000  Uiso   1.00
N365   N     0.87077   0.47892   0.23214   0.00000  Uiso   1.00
N366   N     0.22557   0.10463   0.22516   0.00000  Uiso   1.00
N367   N     0.07997   0.77583   0.03855   0.00000  Uiso   1.00
N368   N     0.03689   0.43214   0.22756   0.00000  Uiso   1.00
