data_job_06895
_audit_creation_date              2018-12-19
_audit_creation_method            'Materials Studio'
_symmetry_space_group_name_H-M    'P1'
_symmetry_Int_Tables_number       1
_symmetry_cell_setting            triclinic
loop_
_symmetry_equiv_pos_as_xyz
  x,y,z
_cell_length_a                    23.6620
_cell_length_b                    21.2045
_cell_length_c                    19.1103
_cell_angle_alpha                 103.3590
_cell_angle_beta                  100.8920
_cell_angle_gamma                 103.5510
loop_
_atom_site_label
_atom_site_type_symbol
_atom_site_fract_x
_atom_site_fract_y
_atom_site_fract_z
_atom_site_U_iso_or_equiv
_atom_site_adp_type
_atom_site_occupancy
C1     C     0.52480   0.20860   0.61243   0.00000  Uiso   1.00
C2     C     0.49116   0.15872   0.53631   0.00000  Uiso   1.00
C3     C     0.43479   0.15503   0.49535   0.00000  Uiso   1.00
C4     C     0.41174   0.10585   0.42695   0.00000  Uiso   1.00
C5     C     0.35459   0.03505   0.31279   0.00000  Uiso   1.00
C6     C     0.53850   0.16572   0.66379   0.00000  Uiso   1.00
C7     C     0.52195   0.16793   0.73002   0.00000  Uiso   1.00
C8     C     0.53875   0.12465   0.76893   0.00000  Uiso   1.00
C9     C     0.55514   0.06476   0.85271   0.00000  Uiso   1.00
C10    C     0.58536   0.24601   0.60387   0.00000  Uiso   1.00
C11    C     0.60821   0.31573   0.61974   0.00000  Uiso   1.00
C12    C     0.66446   0.34006   0.60822   0.00000  Uiso   1.00
C13    C     0.75360   0.40483   0.59896   0.00000  Uiso   1.00
C14    C     0.58408   0.12784   0.56379   0.00000  Uiso   1.00
C15    C     0.52336   0.11485   0.50989   0.00000  Uiso   1.00
C16    C     0.50038   0.06567   0.44153   0.00000  Uiso   1.00
C17    C     0.44399   0.06191   0.40048   0.00000  Uiso   1.00
C18    C     0.57070   0.12185   0.63737   0.00000  Uiso   1.00
C19    C     0.58753   0.07857   0.67620   0.00000  Uiso   1.00
C20    C     0.57100   0.08070   0.74247   0.00000  Uiso   1.00
C21    C     0.61756   0.20215   0.57745   0.00000  Uiso   1.00
C22    C     0.67379   0.22637   0.56592   0.00000  Uiso   1.00
C23    C     0.69672   0.29611   0.58176   0.00000  Uiso   1.00
H24    H     0.49973   0.24275   0.63300   0.00000  Uiso   1.00
H25    H     0.40989   0.18898   0.51582   0.00000  Uiso   1.00
H26    H     0.49703   0.20188   0.75045   0.00000  Uiso   1.00
H27    H     0.58327   0.34966   0.64018   0.00000  Uiso   1.00
H28    H     0.32447   0.11000   0.37426   0.00000  Uiso   1.00
H29    H     0.50824   0.13723   0.86901   0.00000  Uiso   1.00
H30    H     0.69010   0.44885   0.63648   0.00000  Uiso   1.00
H31    H     0.60915   0.09368   0.54322   0.00000  Uiso   1.00
H32    H     0.52531   0.03173   0.42110   0.00000  Uiso   1.00
H33    H     0.61246   0.04463   0.65574   0.00000  Uiso   1.00
H34    H     0.69870   0.19241   0.54547   0.00000  Uiso   1.00
H35    H     0.41815   0.98237   0.29739   0.00000  Uiso   1.00
H36    H     0.60192   0.00959   0.79214   0.00000  Uiso   1.00
H37    H     0.78378   0.32121   0.55961   0.00000  Uiso   1.00
O38    O     0.31418   0.00811   0.25712   0.00000  Uiso   1.00
O39    O     0.55528   0.04383   0.90622   0.00000  Uiso   1.00
O40    O     0.79387   0.45267   0.60115   0.00000  Uiso   1.00
N41    N     0.35803   0.08848   0.37292   0.00000  Uiso   1.00
N42    N     0.52983   0.11392   0.83547   0.00000  Uiso   1.00
N43    N     0.69986   0.40526   0.61810   0.00000  Uiso   1.00
N44    N     0.40844   0.01980   0.33155   0.00000  Uiso   1.00
N45    N     0.58024   0.04524   0.79411   0.00000  Uiso   1.00
N46    N     0.75027   0.33658   0.57674   0.00000  Uiso   1.00
C47    C     0.72900   0.49091   0.05862   0.00000  Uiso   1.00
C48    C     0.66135   0.46173   0.04611   0.00000  Uiso   1.00
C49    C     0.63066   0.39375   0.03091   0.00000  Uiso   1.00
C50    C     0.56880   0.37733   0.02124   0.00000  Uiso   1.00
C51    C     0.46831   0.32444   0.00095   0.00000  Uiso   1.00
C52    C     0.73684   0.53015   0.00183   0.00000  Uiso   1.00
C53    C     0.76964   0.51970   0.94943   0.00000  Uiso   1.00
C54    C     0.77133   0.56088   0.90249   0.00000  Uiso   1.00
C55    C     0.78809   0.61425   0.81351   0.00000  Uiso   1.00
C56    C     0.75092   0.54371   0.13466   0.00000  Uiso   1.00
C57    C     0.79556   0.54467   0.19393   0.00000  Uiso   1.00
C58    C     0.80910   0.59728   0.25882   0.00000  Uiso   1.00
C59    C     0.84771   0.67169   0.37607   0.00000  Uiso   1.00
C60    C     0.67370   0.58264   0.06846   0.00000  Uiso   1.00
C61    C     0.63131   0.51156   0.05145   0.00000  Uiso   1.00
C62    C     0.56947   0.49523   0.04180   0.00000  Uiso   1.00
C63    C     0.53870   0.42724   0.02660   0.00000  Uiso   1.00
C64    C     0.70681   0.57997   0.00718   0.00000  Uiso   1.00
C65    C     0.70845   0.62118   0.96032   0.00000  Uiso   1.00
C66    C     0.74123   0.61079   0.90785   0.00000  Uiso   1.00
C67    C     0.72088   0.59353   0.14001   0.00000  Uiso   1.00
C68    C     0.73436   0.64615   0.20482   0.00000  Uiso   1.00
C69    C     0.77901   0.64719   0.26417   0.00000  Uiso   1.00
H70    H     0.75239   0.45213   0.05446   0.00000  Uiso   1.00
H71    H     0.65393   0.35521   0.02677   0.00000  Uiso   1.00
H72    H     0.79289   0.48115   0.94531   0.00000  Uiso   1.00
H73    H     0.81879   0.50611   0.18977   0.00000  Uiso   1.00
H74    H     0.53151   0.26973   0.99841   0.00000  Uiso   1.00
H75    H     0.82453   0.53529   0.82665   0.00000  Uiso   1.00
H76    H     0.87916   0.58793   0.34215   0.00000  Uiso   1.00
H77    H     0.65031   0.62143   0.07263   0.00000  Uiso   1.00
H78    H     0.54624   0.53380   0.04594   0.00000  Uiso   1.00
H79    H     0.68520   0.65973   0.96447   0.00000  Uiso   1.00
H80    H     0.71111   0.68470   0.20894   0.00000  Uiso   1.00
H81    H     0.44411   0.41468   0.01396   0.00000  Uiso   1.00
H82    H     0.73713   0.68024   0.84221   0.00000  Uiso   1.00
H83    H     0.79176   0.73287   0.35770   0.00000  Uiso   1.00
O84    O     0.42119   0.28150   0.98828   0.00000  Uiso   1.00
O85    O     0.80562   0.62991   0.76295   0.00000  Uiso   1.00
O86    O     0.87730   0.69897   0.43927   0.00000  Uiso   1.00
N87    N     0.52522   0.31587   0.00575   0.00000  Uiso   1.00
N88    N     0.79917   0.56414   0.84515   0.00000  Uiso   1.00
N89    N     0.85026   0.61337   0.32710   0.00000  Uiso   1.00
N90    N     0.47819   0.39387   0.01412   0.00000  Uiso   1.00
N91    N     0.75214   0.64214   0.85353   0.00000  Uiso   1.00
N92    N     0.80323   0.69136   0.33547   0.00000  Uiso   1.00
C93    C     0.22387   0.61084   0.55309   0.00000  Uiso   1.00
C94    C     0.17981   0.54196   0.50820   0.00000  Uiso   1.00
C95    C     0.18323   0.50178   0.44152   0.00000  Uiso   1.00
C96    C     0.13855   0.44047   0.40915   0.00000  Uiso   1.00
C97    C     0.07719   0.33662   0.33438   0.00000  Uiso   1.00
C98    C     0.18626   0.66013   0.56232   0.00000  Uiso   1.00
C99    C     0.19510   0.71931   0.54115   0.00000  Uiso   1.00
C100   C     0.15584   0.75748   0.55435   0.00000  Uiso   1.00
C101   C     0.10451   0.83712   0.56365   0.00000  Uiso   1.00
C102   C     0.24699   0.60478   0.63061   0.00000  Uiso   1.00
C103   C     0.30690   0.61744   0.66687   0.00000  Uiso   1.00
C104   C     0.31878   0.60903   0.73757   0.00000  Uiso   1.00
C105   C     0.36174   0.60273   0.85291   0.00000  Uiso   1.00
C106   C     0.13844   0.57339   0.61419   0.00000  Uiso   1.00
C107   C     0.13341   0.52162   0.54139   0.00000  Uiso   1.00
C108   C     0.08872   0.46035   0.50912   0.00000  Uiso   1.00
C109   C     0.09207   0.42009   0.44240   0.00000  Uiso   1.00
C110   C     0.13986   0.63979   0.59551   0.00000  Uiso   1.00
C111   C     0.10059   0.67788   0.60875   0.00000  Uiso   1.00
C112   C     0.10936   0.73711   0.58759   0.00000  Uiso   1.00
C113   C     0.20059   0.58444   0.66380   0.00000  Uiso   1.00
C114   C     0.21238   0.57601   0.73447   0.00000  Uiso   1.00
C115   C     0.27230   0.58865   0.77082   0.00000  Uiso   1.00
H116   H     0.25999   0.62668   0.52725   0.00000  Uiso   1.00
H117   H     0.21914   0.51754   0.41585   0.00000  Uiso   1.00
H118   H     0.23101   0.73504   0.51547   0.00000  Uiso   1.00
H119   H     0.34279   0.63318   0.64117   0.00000  Uiso   1.00
H120   H     0.15338   0.38759   0.30696   0.00000  Uiso   1.00
H121   H     0.17842   0.84620   0.51704   0.00000  Uiso   1.00
H122   H     0.41413   0.63142   0.78210   0.00000  Uiso   1.00
H123   H     0.10232   0.55756   0.64003   0.00000  Uiso   1.00
H124   H     0.05282   0.44463   0.53481   0.00000  Uiso   1.00
H125   H     0.06469   0.66213   0.63444   0.00000  Uiso   1.00
H126   H     0.17647   0.56027   0.76013   0.00000  Uiso   1.00
H127   H     0.01839   0.32841   0.40351   0.00000  Uiso   1.00
H128   H     0.04343   0.78703   0.61360   0.00000  Uiso   1.00
H129   H     0.27914   0.57224   0.87865   0.00000  Uiso   1.00
O130   O     0.05616   0.28497   0.28397   0.00000  Uiso   1.00
O131   O     0.08901   0.88666   0.55961   0.00000  Uiso   1.00
O132   O     0.39826   0.60486   0.90735   0.00000  Uiso   1.00
N133   N     0.12841   0.38915   0.34413   0.00000  Uiso   1.00
N134   N     0.15181   0.81793   0.54053   0.00000  Uiso   1.00
N135   N     0.37218   0.61714   0.78835   0.00000  Uiso   1.00
N136   N     0.05577   0.35731   0.39608   0.00000  Uiso   1.00
N137   N     0.07917   0.78608   0.59249   0.00000  Uiso   1.00
N138   N     0.29955   0.58530   0.84030   0.00000  Uiso   1.00
C139   C     0.97366   0.08128   0.73105   0.00000  Uiso   1.00
C140   C     0.94286   0.01174   0.67496   0.00000  Uiso   1.00
C141   C     0.88145   0.98439   0.64314   0.00000  Uiso   1.00
C142   C     0.86217   0.92002   0.59303   0.00000  Uiso   1.00
C143   C     0.80816   0.81747   0.50859   0.00000  Uiso   1.00
C144   C     0.01973   0.11832   0.69716   0.00000  Uiso   1.00
C145   C     0.02295   0.18060   0.68401   0.00000  Uiso   1.00
C146   C     0.06840   0.20595   0.65260   0.00000  Uiso   1.00
C147   C     0.13375   0.26891   0.60267   0.00000  Uiso   1.00
C148   C     0.00978   0.06876   0.79882   0.00000  Uiso   1.00
C149   C     0.00465   0.08937   0.87116   0.00000  Uiso   1.00
C150   C     0.04173   0.07300   0.92535   0.00000  Uiso   1.00
C151   C     0.09163   0.05900   0.03326   0.00000  Uiso   1.00
C152   C     0.04864   0.01557   0.69864   0.00000  Uiso   1.00
C153   C     0.98359   0.97605   0.65736   0.00000  Uiso   1.00
C154   C     0.96440   0.91169   0.60729   0.00000  Uiso   1.00
C155   C     0.90297   0.88426   0.57540   0.00000  Uiso   1.00
C156   C     0.06046   0.08264   0.67956   0.00000  Uiso   1.00
C157   C     0.10591   0.10790   0.64816   0.00000  Uiso   1.00
C158   C     0.10920   0.17020   0.63497   0.00000  Uiso   1.00
C159   C     0.05051   0.03306   0.78122   0.00000  Uiso   1.00
C160   C     0.08760   0.01667   0.83530   0.00000  Uiso   1.00
C161   C     0.08253   0.03725   0.90771   0.00000  Uiso   1.00
H162   H     0.94196   0.10907   0.74475   0.00000  Uiso   1.00
H163   H     0.84994   0.01203   0.65677   0.00000  Uiso   1.00
H164   H     0.99143   0.20821   0.69765   0.00000  Uiso   1.00
H165   H     0.97313   0.11699   0.88476   0.00000  Uiso   1.00
H166   H     0.76589   0.88872   0.55145   0.00000  Uiso   1.00
H167   H     0.06424   0.30238   0.63765   0.00000  Uiso   1.00
H168   H     0.02565   0.11003   0.03223   0.00000  Uiso   1.00
H169   H     0.08035   0.98779   0.68494   0.00000  Uiso   1.00
H170   H     0.99593   0.88409   0.59368   0.00000  Uiso   1.00
H171   H     0.13742   0.08027   0.63455   0.00000  Uiso   1.00
H172   H     0.11912   0.98905   0.82166   0.00000  Uiso   1.00
H173   H     0.88438   0.78487   0.50023   0.00000  Uiso   1.00
H174   H     0.18273   0.19854   0.58644   0.00000  Uiso   1.00
H175   H     0.14413   0.00619   0.98101   0.00000  Uiso   1.00
O176   O     0.76711   0.77078   0.46687   0.00000  Uiso   1.00
O177   O     0.15853   0.31350   0.57998   0.00000  Uiso   1.00
O178   O     0.10789   0.06113   0.09764   0.00000  Uiso   1.00
N179   N     0.80536   0.87850   0.55193   0.00000  Uiso   1.00
N180   N     0.08430   0.26525   0.63252   0.00000  Uiso   1.00
N181   N     0.04822   0.08543   0.00141   0.00000  Uiso   1.00
N182   N     0.86912   0.82263   0.52437   0.00000  Uiso   1.00
N183   N     0.14805   0.20937   0.60496   0.00000  Uiso   1.00
N184   N     0.11198   0.02956   0.97385   0.00000  Uiso   1.00
C185   C     0.18566   0.65367   0.05977   0.00000  Uiso   1.00
C186   C     0.12130   0.61093   0.01904   0.00000  Uiso   1.00
C187   C     0.08526   0.62108   0.95887   0.00000  Uiso   1.00
C188   C     0.02770   0.57645   0.92943   0.00000  Uiso   1.00
C189   C     0.93093   0.51811   0.86164   0.00000  Uiso   1.00
C190   C     0.22363   0.60456   0.05643   0.00000  Uiso   1.00
C191   C     0.27363   0.60936   0.02770   0.00000  Uiso   1.00
C192   C     0.30220   0.55937   0.02975   0.00000  Uiso   1.00
C193   C     0.36433   0.49115   0.02006   0.00000  Uiso   1.00
C194   C     0.18591   0.67884   0.14134   0.00000  Uiso   1.00
C195   C     0.20421   0.74609   0.18401   0.00000  Uiso   1.00
C196   C     0.20105   0.75864   0.25755   0.00000  Uiso   1.00
C197   C     0.20461   0.80575   0.37969   0.00000  Uiso   1.00
C198   C     0.14752   0.55636   0.11450   0.00000  Uiso   1.00
C199   C     0.10059   0.55808   0.04877   0.00000  Uiso   1.00
C200   C     0.04307   0.51342   0.01942   0.00000  Uiso   1.00
C201   C     0.00695   0.52350   0.95921   0.00000  Uiso   1.00
C202   C     0.20292   0.55170   0.08616   0.00000  Uiso   1.00
C203   C     0.23143   0.50169   0.08825   0.00000  Uiso   1.00
C204   C     0.28146   0.50641   0.05953   0.00000  Uiso   1.00
C205   C     0.16520   0.62598   0.17107   0.00000  Uiso   1.00
C206   C     0.16201   0.63843   0.24456   0.00000  Uiso   1.00
C207   C     0.18030   0.70569   0.28733   0.00000  Uiso   1.00
H208   H     0.20179   0.69482   0.03662   0.00000  Uiso   1.00
H209   H     0.10131   0.66199   0.93587   0.00000  Uiso   1.00
H210   H     0.28965   0.65027   0.00471   0.00000  Uiso   1.00
H211   H     0.22024   0.78698   0.16099   0.00000  Uiso   1.00
H212   H     0.98078   0.60227   0.83726   0.00000  Uiso   1.00
H213   H     0.37791   0.57757   0.98242   0.00000  Uiso   1.00
H214   H     0.23156   0.86585   0.31197   0.00000  Uiso   1.00
H215   H     0.13140   0.51521   0.13765   0.00000  Uiso   1.00
H216   H     0.02705   0.47252   0.04244   0.00000  Uiso   1.00
H217   H     0.21539   0.46080   0.11127   0.00000  Uiso   1.00
H218   H     0.14598   0.59751   0.26755   0.00000  Uiso   1.00
H219   H     0.92051   0.44848   0.92375   0.00000  Uiso   1.00
H220   H     0.31765   0.42379   0.06891   0.00000  Uiso   1.00
H221   H     0.17129   0.71207   0.39846   0.00000  Uiso   1.00
O222   O     0.88328   0.50052   0.81603   0.00000  Uiso   1.00
O223   O     0.40431   0.46813   0.00649   0.00000  Uiso   1.00
O224   O     0.21229   0.84634   0.43885   0.00000  Uiso   1.00
N225   N     0.98091   0.57194   0.87069   0.00000  Uiso   1.00
N226   N     0.35220   0.54884   0.00640   0.00000  Uiso   1.00
N227   N     0.21539   0.81836   0.31451   0.00000  Uiso   1.00
N228   N     0.94848   0.48919   0.91723   0.00000  Uiso   1.00
N229   N     0.31977   0.46609   0.05294   0.00000  Uiso   1.00
N230   N     0.18296   0.73561   0.36105   0.00000  Uiso   1.00
C231   C     0.71806   0.91295   0.10941   0.00000  Uiso   1.00
C232   C     0.66631   0.88331   0.03916   0.00000  Uiso   1.00
C233   C     0.64697   0.81650   0.99503   0.00000  Uiso   1.00
C234   C     0.59886   0.79940   0.93308   0.00000  Uiso   1.00
C235   C     0.52269   0.74606   0.82662   0.00000  Uiso   1.00
C236   C     0.69158   0.94392   0.17105   0.00000  Uiso   1.00
C237   C     0.69351   0.92808   0.23781   0.00000  Uiso   1.00
C238   C     0.66668   0.96201   0.28690   0.00000  Uiso   1.00
C239   C     0.62980   0.00281   0.38522   0.00000  Uiso   1.00
C240   C     0.76131   0.97222   0.09644   0.00000  Uiso   1.00
C241   C     0.82186   0.98017   0.10049   0.00000  Uiso   1.00
C242   C     0.85374   0.03793   0.08677   0.00000  Uiso   1.00
C243   C     0.92511   0.12266   0.06925   0.00000  Uiso   1.00
C244   C     0.66701   0.00139   0.07788   0.00000  Uiso   1.00
C245   C     0.63858   0.93135   0.02203   0.00000  Uiso   1.00
C246   C     0.59048   0.91435   0.96014   0.00000  Uiso   1.00
C247   C     0.57108   0.84752   0.91592   0.00000  Uiso   1.00
C248   C     0.66385   0.99196   0.15392   0.00000  Uiso   1.00
C249   C     0.63702   0.02592   0.20292   0.00000  Uiso   1.00
C250   C     0.63890   0.01013   0.26974   0.00000  Uiso   1.00
C251   C     0.73358   0.02025   0.07931   0.00000  Uiso   1.00
C252   C     0.76537   0.07802   0.06559   0.00000  Uiso   1.00
C253   C     0.82596   0.08606   0.06962   0.00000  Uiso   1.00
H254   H     0.73965   0.87555   0.12275   0.00000  Uiso   1.00
H255   H     0.66844   0.77934   0.00830   0.00000  Uiso   1.00
H256   H     0.71497   0.89091   0.25105   0.00000  Uiso   1.00
H257   H     0.84330   0.94299   0.11374   0.00000  Uiso   1.00
H258   H     0.57724   0.69385   0.87388   0.00000  Uiso   1.00
H259   H     0.67538   0.92911   0.38574   0.00000  Uiso   1.00
H260   H     0.94599   0.03894   0.09620   0.00000  Uiso   1.00
H261   H     0.64542   0.03879   0.06455   0.00000  Uiso   1.00
H262   H     0.56903   0.95153   0.94690   0.00000  Uiso   1.00
H263   H     0.61557   0.06310   0.18965   0.00000  Uiso   1.00
H264   H     0.74390   0.11518   0.05234   0.00000  Uiso   1.00
H265   H     0.49656   0.83360   0.82404   0.00000  Uiso   1.00
H266   H     0.59470   0.06887   0.33591   0.00000  Uiso   1.00
H267   H     0.86531   0.17869   0.04636   0.00000  Uiso   1.00
O268   O     0.48834   0.70337   0.77263   0.00000  Uiso   1.00
O269   O     0.61711   0.01204   0.44418   0.00000  Uiso   1.00
O270   O     0.97214   0.15613   0.06430   0.00000  Uiso   1.00
N271   N     0.56874   0.73872   0.87828   0.00000  Uiso   1.00
N272   N     0.66049   0.95867   0.35684   0.00000  Uiso   1.00
N273   N     0.91349   0.06135   0.08616   0.00000  Uiso   1.00
N274   N     0.52533   0.81392   0.85147   0.00000  Uiso   1.00
N275   N     0.61708   0.03387   0.33002   0.00000  Uiso   1.00
N276   N     0.87008   0.13655   0.05935   0.00000  Uiso   1.00
C277   C     0.47445   0.67600   0.22102   0.00000  Uiso   1.00
C278   C     0.51180   0.73138   0.29202   0.00000  Uiso   1.00
C279   C     0.57069   0.73911   0.32837   0.00000  Uiso   1.00
C280   C     0.59698   0.79303   0.39252   0.00000  Uiso   1.00
C281   C     0.65977   0.87227   0.49867   0.00000  Uiso   1.00
C282   C     0.45407   0.71247   0.16530   0.00000  Uiso   1.00
C283   C     0.46442   0.70428   0.09510   0.00000  Uiso   1.00
C284   C     0.44211   0.74227   0.05257   0.00000  Uiso   1.00
C285   C     0.41524   0.79210   0.96197   0.00000  Uiso   1.00
C286   C     0.41772   0.64035   0.23949   0.00000  Uiso   1.00
C287   C     0.39749   0.57152   0.23166   0.00000  Uiso   1.00
C288   C     0.34456   0.54879   0.25158   0.00000  Uiso   1.00
C289   C     0.26125   0.48665   0.27618   0.00000  Uiso   1.00
C290   C     0.41641   0.75801   0.27029   0.00000  Uiso   1.00
C291   C     0.48027   0.77593   0.31878   0.00000  Uiso   1.00
C292   C     0.50648   0.82984   0.38289   0.00000  Uiso   1.00
C293   C     0.56540   0.83765   0.41933   0.00000  Uiso   1.00
C294   C     0.42255   0.75701   0.19206   0.00000  Uiso   1.00
C295   C     0.40021   0.79501   0.14962   0.00000  Uiso   1.00
C296   C     0.41052   0.78689   0.07938   0.00000  Uiso   1.00
C297   C     0.38619   0.68489   0.26626   0.00000  Uiso   1.00
C298   C     0.33328   0.66226   0.28619   0.00000  Uiso   1.00
C299   C     0.31298   0.59341   0.27839   0.00000  Uiso   1.00
H300   H     0.49899   0.64132   0.20017   0.00000  Uiso   1.00
H301   H     0.59507   0.70464   0.30764   0.00000  Uiso   1.00
H302   H     0.48881   0.66980   0.07440   0.00000  Uiso   1.00
H303   H     0.42190   0.53707   0.21095   0.00000  Uiso   1.00
H304   H     0.68770   0.79449   0.43857   0.00000  Uiso   1.00
H305   H     0.46363   0.72103   0.94677   0.00000  Uiso   1.00
H306   H     0.32252   0.44113   0.23470   0.00000  Uiso   1.00
H307   H     0.39187   0.79269   0.29113   0.00000  Uiso   1.00
H308   H     0.48207   0.86431   0.40359   0.00000  Uiso   1.00
H309   H     0.37581   0.82947   0.17035   0.00000  Uiso   1.00
H310   H     0.30890   0.69674   0.30690   0.00000  Uiso   1.00
H311   H     0.59598   0.92408   0.51644   0.00000  Uiso   1.00
H312   H     0.37191   0.85062   0.02465   0.00000  Uiso   1.00
H313   H     0.23081   0.57073   0.31258   0.00000  Uiso   1.00
O314   O     0.70312   0.90368   0.54983   0.00000  Uiso   1.00
O315   O     0.40914   0.80729   0.90461   0.00000  Uiso   1.00
O316   O     0.22401   0.44008   0.28237   0.00000  Uiso   1.00
N317   N     0.65373   0.81515   0.44147   0.00000  Uiso   1.00
N318   N     0.44425   0.74648   0.98167   0.00000  Uiso   1.00
N319   N     0.31231   0.48479   0.25084   0.00000  Uiso   1.00
N320   N     0.60438   0.88488   0.48338   0.00000  Uiso   1.00
N321   N     0.39489   0.81621   0.02358   0.00000  Uiso   1.00
N322   N     0.26296   0.55453   0.29275   0.00000  Uiso   1.00
C323   C     0.31062   0.38470   0.68432   0.00000  Uiso   1.00
C324   C     0.37511   0.42536   0.72701   0.00000  Uiso   1.00
C325   C     0.40989   0.48043   0.71167   0.00000  Uiso   1.00
C326   C     0.46783   0.51076   0.75722   0.00000  Uiso   1.00
C327   C     0.56457   0.57756   0.81458   0.00000  Uiso   1.00
C328   C     0.27377   0.38728   0.74179   0.00000  Uiso   1.00
C329   C     0.22335   0.41033   0.73887   0.00000  Uiso   1.00
C330   C     0.19598   0.40859   0.79686   0.00000  Uiso   1.00
C331   C     0.13536   0.41622   0.87714   0.00000  Uiso   1.00
C332   C     0.31109   0.31125   0.65830   0.00000  Uiso   1.00
C333   C     0.29203   0.27037   0.58519   0.00000  Uiso   1.00
C334   C     0.29606   0.20461   0.57288   0.00000  Uiso   1.00
C335   C     0.29339   0.09420   0.52353   0.00000  Uiso   1.00
C336   C     0.35165   0.34062   0.79248   0.00000  Uiso   1.00
C337   C     0.39740   0.40142   0.78575   0.00000  Uiso   1.00
C338   C     0.45529   0.43167   0.83133   0.00000  Uiso   1.00
C339   C     0.49016   0.48677   0.81607   0.00000  Uiso   1.00
C340   C     0.29606   0.36334   0.80053   0.00000  Uiso   1.00
C341   C     0.26875   0.36156   0.85853   0.00000  Uiso   1.00
C342   C     0.21830   0.38460   0.85571   0.00000  Uiso   1.00
C343   C     0.33338   0.28731   0.71704   0.00000  Uiso   1.00
C344   C     0.33743   0.22160   0.70485   0.00000  Uiso   1.00
C345   C     0.31839   0.18062   0.63173   0.00000  Uiso   1.00
H346   H     0.29327   0.40334   0.63859   0.00000  Uiso   1.00
H347   H     0.39263   0.49895   0.66621   0.00000  Uiso   1.00
H348   H     0.20611   0.42885   0.69340   0.00000  Uiso   1.00
H349   H     0.27479   0.28891   0.53974   0.00000  Uiso   1.00
H350   H     0.51261   0.59441   0.72276   0.00000  Uiso   1.00
H351   H     0.11932   0.44657   0.78008   0.00000  Uiso   1.00
H352   H     0.26413   0.15149   0.45605   0.00000  Uiso   1.00
H353   H     0.36900   0.32198   0.83821   0.00000  Uiso   1.00
H354   H     0.47253   0.41313   0.87679   0.00000  Uiso   1.00
H355   H     0.28601   0.34302   0.90398   0.00000  Uiso   1.00
H356   H     0.35468   0.20309   0.75032   0.00000  Uiso   1.00
H357   H     0.57746   0.52476   0.89367   0.00000  Uiso   1.00
H358   H     0.18416   0.37691   0.95099   0.00000  Uiso   1.00
H359   H     0.32898   0.08183   0.62697   0.00000  Uiso   1.00
O360   O     0.61176   0.62103   0.83000   0.00000  Uiso   1.00
O361   O     0.09577   0.42705   0.90519   0.00000  Uiso   1.00
O362   O     0.28576   0.03992   0.48009   0.00000  Uiso   1.00
N363   N     0.51367   0.56550   0.75768   0.00000  Uiso   1.00
N364   N     0.14597   0.42729   0.81127   0.00000  Uiso   1.00
N365   N     0.28134   0.15141   0.50834   0.00000  Uiso   1.00
N366   N     0.54857   0.52802   0.84964   0.00000  Uiso   1.00
N367   N     0.18086   0.38981   0.90324   0.00000  Uiso   1.00
N368   N     0.31624   0.11393   0.60031   0.00000  Uiso   1.00
C369   C     0.77504   0.23622   0.31547   0.00000  Uiso   1.00
C370   C     0.81915   0.30588   0.35714   0.00000  Uiso   1.00
C371   C     0.81636   0.34858   0.42263   0.00000  Uiso   1.00
C372   C     0.86098   0.41020   0.45200   0.00000  Uiso   1.00
C373   C     0.92254   0.51559   0.52203   0.00000  Uiso   1.00
C374   C     0.81275   0.18690   0.30856   0.00000  Uiso   1.00
C375   C     0.80458   0.12956   0.33320   0.00000  Uiso   1.00
C376   C     0.84381   0.09102   0.32167   0.00000  Uiso   1.00
C377   C     0.89541   0.01166   0.31624   0.00000  Uiso   1.00
C378   C     0.75091   0.23882   0.23667   0.00000  Uiso   1.00
C379   C     0.69074   0.22512   0.20084   0.00000  Uiso   1.00
C380   C     0.67791   0.23027   0.12878   0.00000  Uiso   1.00
C381   C     0.63349   0.23153   0.01171   0.00000  Uiso   1.00
C382   C     0.85923   0.26971   0.25119   0.00000  Uiso   1.00
C383   C     0.86488   0.32407   0.32222   0.00000  Uiso   1.00
C384   C     0.90952   0.38564   0.35151   0.00000  Uiso   1.00
C385   C     0.90679   0.42843   0.41702   0.00000  Uiso   1.00
C386   C     0.85848   0.20509   0.27365   0.00000  Uiso   1.00
C387   C     0.89773   0.16662   0.26208   0.00000  Uiso   1.00
C388   C     0.88963   0.10924   0.28669   0.00000  Uiso   1.00
C389   C     0.79665   0.25702   0.20175   0.00000  Uiso   1.00
C390   C     0.78390   0.26219   0.12973   0.00000  Uiso   1.00
C391   C     0.72372   0.24850   0.09380   0.00000  Uiso   1.00
H392   H     0.73944   0.22204   0.34265   0.00000  Uiso   1.00
H393   H     0.78097   0.33448   0.44963   0.00000  Uiso   1.00
H394   H     0.76918   0.11549   0.36021   0.00000  Uiso   1.00
H395   H     0.65537   0.21104   0.22788   0.00000  Uiso   1.00
H396   H     0.84719   0.46714   0.55286   0.00000  Uiso   1.00
H397   H     0.82233   0.00538   0.36428   0.00000  Uiso   1.00
H398   H     0.58233   0.20686   0.08523   0.00000  Uiso   1.00
H399   H     0.89484   0.28388   0.22401   0.00000  Uiso   1.00
H400   H     0.94490   0.39971   0.32447   0.00000  Uiso   1.00
H401   H     0.93312   0.18072   0.23505   0.00000  Uiso   1.00
H402   H     0.81930   0.27627   0.10272   0.00000  Uiso   1.00
H403   H     0.98025   0.52009   0.45128   0.00000  Uiso   1.00
H404   H     0.95539   0.05832   0.26270   0.00000  Uiso   1.00
H405   H     0.71538   0.25981   0.98365   0.00000  Uiso   1.00
O406   O     0.94386   0.56868   0.57031   0.00000  Uiso   1.00
O407   O     0.91123   0.96286   0.32289   0.00000  Uiso   1.00
O408   O     0.59636   0.22721   0.95679   0.00000  Uiso   1.00
N409   N     0.87163   0.46371   0.51515   0.00000  Uiso   1.00
N410   N     0.84839   0.03200   0.33886   0.00000  Uiso   1.00
N411   N     0.62401   0.22035   0.07796   0.00000  Uiso   1.00
N412   N     0.94323   0.49220   0.46049   0.00000  Uiso   1.00
N413   N     0.91999   0.06049   0.28420   0.00000  Uiso   1.00
N414   N     0.69560   0.24884   0.02330   0.00000  Uiso   1.00
C415   C     0.03650   0.79299   0.17550   0.00000  Uiso   1.00
C416   C     0.07118   0.86497   0.22346   0.00000  Uiso   1.00
C417   C     0.12696   0.90187   0.22032   0.00000  Uiso   1.00
C418   C     0.15116   0.96689   0.26885   0.00000  Uiso   1.00
C419   C     0.20966   0.07453   0.33577   0.00000  Uiso   1.00
C420   C     0.02449   0.75172   0.22955   0.00000  Uiso   1.00
C421   C     0.04101   0.69339   0.23151   0.00000  Uiso   1.00
C422   C     0.02590   0.66307   0.28516   0.00000  Uiso   1.00
C423   C     0.01187   0.59486   0.36148   0.00000  Uiso   1.00
C424   C     0.97533   0.79644   0.13641   0.00000  Uiso   1.00
C425   C     0.95050   0.77570   0.06005   0.00000  Uiso   1.00
C426   C     0.89400   0.78302   0.03528   0.00000  Uiso   1.00
C427   C     0.80364   0.78424   0.96699   0.00000  Uiso   1.00
C428   C     0.98029   0.84284   0.26729   0.00000  Uiso   1.00
C429   C     0.04064   0.89205   0.27332   0.00000  Uiso   1.00
C430   C     0.06476   0.95703   0.32187   0.00000  Uiso   1.00
C431   C     0.12057   0.99403   0.31880   0.00000  Uiso   1.00
C432   C     0.99395   0.77879   0.27940   0.00000  Uiso   1.00
C433   C     0.97881   0.74855   0.33306   0.00000  Uiso   1.00
C434   C     0.99531   0.69020   0.33511   0.00000  Uiso   1.00
C435   C     0.94479   0.82352   0.18626   0.00000  Uiso   1.00
C436   C     0.88831   0.83086   0.16161   0.00000  Uiso   1.00
C437   C     0.86341   0.81015   0.08523   0.00000  Uiso   1.00
H438   H     0.06027   0.77190   0.13669   0.00000  Uiso   1.00
H439   H     0.15058   0.88089   0.18173   0.00000  Uiso   1.00
H440   H     0.06463   0.67244   0.19292   0.00000  Uiso   1.00
H441   H     0.97414   0.75474   0.02149   0.00000  Uiso   1.00
H442   H     0.23724   0.01367   0.25367   0.00000  Uiso   1.00
H443   H     0.05600   0.57413   0.27724   0.00000  Uiso   1.00
H444   H     0.86519   0.74767   0.91575   0.00000  Uiso   1.00
H445   H     0.95651   0.86392   0.30611   0.00000  Uiso   1.00
H446   H     0.04112   0.97797   0.36045   0.00000  Uiso   1.00
H447   H     0.95518   0.76952   0.37163   0.00000  Uiso   1.00
H448   H     0.86469   0.85182   0.20020   0.00000  Uiso   1.00
H449   H     0.14840   0.09246   0.39873   0.00000  Uiso   1.00
H450   H     0.96716   0.65292   0.42229   0.00000  Uiso   1.00
H451   H     0.77636   0.82646   0.06080   0.00000  Uiso   1.00
O452   O     0.25036   0.12642   0.35891   0.00000  Uiso   1.00
O453   O     0.01257   0.54975   0.38981   0.00000  Uiso   1.00
O454   O     0.76224   0.77744   0.91554   0.00000  Uiso   1.00
N455   N     0.20471   0.01656   0.28035   0.00000  Uiso   1.00
N456   N     0.03527   0.60563   0.30239   0.00000  Uiso   1.00
N457   N     0.85688   0.76786   0.96442   0.00000  Uiso   1.00
N458   N     0.15691   0.05896   0.35840   0.00000  Uiso   1.00
N459   N     0.98747   0.64802   0.38044   0.00000  Uiso   1.00
N460   N     0.80908   0.81026   0.04247   0.00000  Uiso   1.00
C461   C     0.79723   0.19295   0.80883   0.00000  Uiso   1.00
C462   C     0.86166   0.23209   0.85321   0.00000  Uiso   1.00
C463   C     0.89368   0.21871   0.91404   0.00000  Uiso   1.00
C464   C     0.95207   0.26034   0.94700   0.00000  Uiso   1.00
C465   C     0.04824   0.31306   0.02003   0.00000  Uiso   1.00
C466   C     0.76239   0.24515   0.81110   0.00000  Uiso   1.00
C467   C     0.71094   0.24274   0.83650   0.00000  Uiso   1.00
C468   C     0.68576   0.29537   0.83400   0.00000  Uiso   1.00
C469   C     0.62779   0.36833   0.84159   0.00000  Uiso   1.00
C470   C     0.79968   0.16859   0.72819   0.00000  Uiso   1.00
C471   C     0.77958   0.10182   0.68388   0.00000  Uiso   1.00
C472   C     0.78578   0.08999   0.61157   0.00000  Uiso   1.00
C473   C     0.78571   0.04409   0.49044   0.00000  Uiso   1.00
C474   C     0.84399   0.29067   0.75920   0.00000  Uiso   1.00
C475   C     0.88706   0.28516   0.82625   0.00000  Uiso   1.00
C476   C     0.94542   0.32683   0.85913   0.00000  Uiso   1.00
C477   C     0.97752   0.31351   0.91999   0.00000  Uiso   1.00
C478   C     0.78779   0.29822   0.78414   0.00000  Uiso   1.00
C479   C     0.76268   0.35086   0.78159   0.00000  Uiso   1.00
C480   C     0.71121   0.34854   0.80699   0.00000  Uiso   1.00
C481   C     0.82508   0.22167   0.70123   0.00000  Uiso   1.00
C482   C     0.83132   0.20994   0.62897   0.00000  Uiso   1.00
C483   C     0.81123   0.14316   0.58456   0.00000  Uiso   1.00
H484   H     0.77745   0.15163   0.82982   0.00000  Uiso   1.00
H485   H     0.87401   0.17763   0.93489   0.00000  Uiso   1.00
H486   H     0.69129   0.20166   0.85735   0.00000  Uiso   1.00
H487   H     0.75992   0.06076   0.70476   0.00000  Uiso   1.00
H488   H     0.99225   0.22989   0.03950   0.00000  Uiso   1.00
H489   H     0.60697   0.28054   0.87599   0.00000  Uiso   1.00
H490   H     0.75169   0.98342   0.55422   0.00000  Uiso   1.00
H491   H     0.86377   0.33200   0.73822   0.00000  Uiso   1.00
H492   H     0.96506   0.36790   0.83826   0.00000  Uiso   1.00
H493   H     0.78234   0.39192   0.76072   0.00000  Uiso   1.00
H494   H     0.85097   0.25102   0.60813   0.00000  Uiso   1.00
H495   H     0.06615   0.38431   0.96108   0.00000  Uiso   1.00
H496   H     0.68087   0.43496   0.79756   0.00000  Uiso   1.00
H497   H     0.82559   0.13784   0.47579   0.00000  Uiso   1.00
O498   O     0.09427   0.32748   0.06777   0.00000  Uiso   1.00
O499   O     0.58880   0.39392   0.85323   0.00000  Uiso   1.00
O500   O     0.77866   0.00411   0.43108   0.00000  Uiso   1.00
N501   N     0.99574   0.26130   0.00731   0.00000  Uiso   1.00
N502   N     0.63554   0.30866   0.85444   0.00000  Uiso   1.00
N503   N     0.77082   0.03088   0.55361   0.00000  Uiso   1.00
N504   N     0.03551   0.34439   0.96511   0.00000  Uiso   1.00
N505   N     0.67531   0.39175   0.81224   0.00000  Uiso   1.00
N506   N     0.81059   0.11397   0.51141   0.00000  Uiso   1.00
C507   C     0.28062   0.95935   0.74986   0.00000  Uiso   1.00
C508   C     0.33350   0.99483   0.81823   0.00000  Uiso   1.00
C509   C     0.34673   0.06100   0.86237   0.00000  Uiso   1.00
C510   C     0.39711   0.08407   0.92242   0.00000  Uiso   1.00
C511   C     0.47378   0.14551   0.02623   0.00000  Uiso   1.00
C512   C     0.30776   0.93501   0.68606   0.00000  Uiso   1.00
C513   C     0.29934   0.95089   0.61907   0.00000  Uiso   1.00
C514   C     0.32804   0.92358   0.56786   0.00000  Uiso   1.00
C515   C     0.36471   0.89212   0.46646   0.00000  Uiso   1.00
C516   C     0.24580   0.89563   0.76459   0.00000  Uiso   1.00
C517   C     0.18528   0.87838   0.76360   0.00000  Uiso   1.00
C518   C     0.16182   0.81791   0.77849   0.00000  Uiso   1.00
C519   C     0.10230   0.72529   0.79900   0.00000  Uiso   1.00
C520   C     0.34657   0.88263   0.77803   0.00000  Uiso   1.00
C521   C     0.36932   0.95316   0.83352   0.00000  Uiso   1.00
C522   C     0.41969   0.97612   0.89353   0.00000  Uiso   1.00
C523   C     0.43299   0.04232   0.93775   0.00000  Uiso   1.00
C524   C     0.34358   0.89334   0.70136   0.00000  Uiso   1.00
C525   C     0.37230   0.86601   0.65023   0.00000  Uiso   1.00
C526   C     0.36392   0.88184   0.58319   0.00000  Uiso   1.00
C527   C     0.28162   0.85396   0.77989   0.00000  Uiso   1.00
C528   C     0.25825   0.79350   0.79477   0.00000  Uiso   1.00
C529   C     0.19770   0.77616   0.79381   0.00000  Uiso   1.00
H530   H     0.25274   0.99179   0.73795   0.00000  Uiso   1.00
H531   H     0.31900   0.09324   0.85050   0.00000  Uiso   1.00
H532   H     0.27161   0.98313   0.60725   0.00000  Uiso   1.00
H533   H     0.15758   0.91063   0.75176   0.00000  Uiso   1.00
H534   H     0.40828   0.18735   0.98203   0.00000  Uiso   1.00
H535   H     0.30833   0.95516   0.46909   0.00000  Uiso   1.00
H536   H     0.06787   0.80229   0.77382   0.00000  Uiso   1.00
H537   H     0.37445   0.85018   0.78993   0.00000  Uiso   1.00
H538   H     0.44740   0.94387   0.90535   0.00000  Uiso   1.00
H539   H     0.40001   0.83376   0.66209   0.00000  Uiso   1.00
H540   H     0.28598   0.76126   0.80660   0.00000  Uiso   1.00
H541   H     0.51249   0.06611   0.02654   0.00000  Uiso   1.00
H542   H     0.41254   0.83392   0.51360   0.00000  Uiso   1.00
H543   H     0.17209   0.68105   0.81834   0.00000  Uiso   1.00
O544   O     0.50618   0.19092   0.07925   0.00000  Uiso   1.00
O545   O     0.37505   0.88629   0.40630   0.00000  Uiso   1.00
O546   O     0.05958   0.68573   0.80610   0.00000  Uiso   1.00
N547   N     0.42278   0.14595   0.97667   0.00000  Uiso   1.00
N548   N     0.32935   0.92888   0.49711   0.00000  Uiso   1.00
N549   N     0.10454   0.78595   0.78199   0.00000  Uiso   1.00
N550   N     0.47886   0.08072   0.00063   0.00000  Uiso   1.00
N551   N     0.38543   0.86364   0.52107   0.00000  Uiso   1.00
N552   N     0.16061   0.72071   0.80595   0.00000  Uiso   1.00
