data_job_06941
_audit_creation_date              2018-12-19
_audit_creation_method            'Materials Studio'
_symmetry_space_group_name_H-M    'P1'
_symmetry_Int_Tables_number       1
_symmetry_cell_setting            triclinic
loop_
_symmetry_equiv_pos_as_xyz
  x,y,z
_cell_length_a                    24.1035
_cell_length_b                    22.2548
_cell_length_c                    23.9860
_cell_angle_alpha                 100.6810
_cell_angle_beta                  92.7181
_cell_angle_gamma                 96.2449
loop_
_atom_site_label
_atom_site_type_symbol
_atom_site_fract_x
_atom_site_fract_y
_atom_site_fract_z
_atom_site_U_iso_or_equiv
_atom_site_adp_type
_atom_site_occupancy
C1     C     0.69997   0.17496   0.11272   0.00000  Uiso   1.00
C2     C     0.71611   0.11433   0.08050   0.00000  Uiso   1.00
C3     C     0.76827   0.09389   0.08449   0.00000  Uiso   1.00
C4     C     0.77463   0.03713   0.05153   0.00000  Uiso   1.00
C5     C     0.80643   0.94832   0.00690   0.00000  Uiso   1.00
C6     C     0.67850   0.20850   0.06762   0.00000  Uiso   1.00
C7     C     0.69903   0.26722   0.06079   0.00000  Uiso   1.00
C8     C     0.67373   0.28973   0.01699   0.00000  Uiso   1.00
C9     C     0.64711   0.34714   0.95238   0.00000  Uiso   1.00
C10    C     0.64948   0.15790   0.14506   0.00000  Uiso   1.00
C11    C     0.64560   0.17410   0.20335   0.00000  Uiso   1.00
C12    C     0.59585   0.15402   0.22475   0.00000  Uiso   1.00
C13    C     0.52418   0.13287   0.28039   0.00000  Uiso   1.00
C14    C     0.61852   0.11052   0.04708   0.00000  Uiso   1.00
C15    C     0.67187   0.07934   0.04485   0.00000  Uiso   1.00
C16    C     0.67815   0.02259   0.01187   0.00000  Uiso   1.00
C17    C     0.73030   0.00206   0.01581   0.00000  Uiso   1.00
C18    C     0.63426   0.17350   0.03197   0.00000  Uiso   1.00
C19    C     0.60891   0.19593   0.98817   0.00000  Uiso   1.00
C20    C     0.62940   0.25467   0.98127   0.00000  Uiso   1.00
C21    C     0.60524   0.12290   0.10941   0.00000  Uiso   1.00
C22    C     0.55548   0.10280   0.13073   0.00000  Uiso   1.00
C23    C     0.55153   0.11896   0.18903   0.00000  Uiso   1.00
H24    H     0.73442   0.20222   0.14048   0.00000  Uiso   1.00
H25    H     0.80250   0.12099   0.11208   0.00000  Uiso   1.00
H26    H     0.73327   0.29430   0.08839   0.00000  Uiso   1.00
H27    H     0.67985   0.20118   0.23093   0.00000  Uiso   1.00
H28    H     0.85848   0.01551   0.06487   0.00000  Uiso   1.00
H29    H     0.71249   0.38095   0.01491   0.00000  Uiso   1.00
H30    H     0.59984   0.18460   0.31548   0.00000  Uiso   1.00
H31    H     0.58407   0.08328   0.01933   0.00000  Uiso   1.00
H32    H     0.64390   0.99552   0.98428   0.00000  Uiso   1.00
H33    H     0.57467   0.16883   0.96059   0.00000  Uiso   1.00
H34    H     0.52125   0.07572   0.10312   0.00000  Uiso   1.00
H35    H     0.72975   0.91367   0.96113   0.00000  Uiso   1.00
H36    H     0.58376   0.27912   0.91119   0.00000  Uiso   1.00
H37    H     0.47112   0.08277   0.21175   0.00000  Uiso   1.00
O38    O     0.83619   0.90902   0.99212   0.00000  Uiso   1.00
O39    O     0.64466   0.38847   0.92660   0.00000  Uiso   1.00
O40    O     0.49687   0.13086   0.32093   0.00000  Uiso   1.00
N41    N     0.81997   0.00358   0.04527   0.00000  Uiso   1.00
N42    N     0.68348   0.34525   0.99856   0.00000  Uiso   1.00
N43    N     0.57816   0.16169   0.27957   0.00000  Uiso   1.00
N44    N     0.75070   0.94878   0.98945   0.00000  Uiso   1.00
N45    N     0.61422   0.29045   0.94275   0.00000  Uiso   1.00
N46    N     0.50890   0.10689   0.22375   0.00000  Uiso   1.00
C47    C     0.13068   0.82143   0.09335   0.00000  Uiso   1.00
C48    C     0.08033   0.85375   0.08031   0.00000  Uiso   1.00
C49    C     0.07861   0.91695   0.09059   0.00000  Uiso   1.00
C50    C     0.02860   0.93741   0.07565   0.00000  Uiso   1.00
C51    C     0.95749   0.99387   0.05914   0.00000  Uiso   1.00
C52    C     0.11080   0.77712   0.13173   0.00000  Uiso   1.00
C53    C     0.13471   0.77588   0.18523   0.00000  Uiso   1.00
C54    C     0.11035   0.73181   0.21356   0.00000  Uiso   1.00
C55    C     0.08658   0.66927   0.27686   0.00000  Uiso   1.00
C56    C     0.14214   0.78131   0.03730   0.00000  Uiso   1.00
C57    C     0.19241   0.78358   0.01141   0.00000  Uiso   1.00
C58    C     0.19445   0.74303   0.96024   0.00000  Uiso   1.00
C59    C     0.21934   0.68700   0.87691   0.00000  Uiso   1.00
C60    C     0.04492   0.74537   0.04853   0.00000  Uiso   1.00
C61    C     0.03375   0.81243   0.05597   0.00000  Uiso   1.00
C62    C     0.98373   0.83280   0.04100   0.00000  Uiso   1.00
C63    C     0.98193   0.89602   0.05126   0.00000  Uiso   1.00
C64    C     0.06422   0.73580   0.10739   0.00000  Uiso   1.00
C65    C     0.03983   0.69172   0.13565   0.00000  Uiso   1.00
C66    C     0.06369   0.69042   0.18918   0.00000  Uiso   1.00
C67    C     0.09556   0.73999   0.01295   0.00000  Uiso   1.00
C68    C     0.09752   0.69943   0.96182   0.00000  Uiso   1.00
C69    C     0.14778   0.70164   0.93585   0.00000  Uiso   1.00
H70    H     0.16695   0.85360   0.11231   0.00000  Uiso   1.00
H71    H     0.11467   0.94891   0.10944   0.00000  Uiso   1.00
H72    H     0.17076   0.80785   0.20406   0.00000  Uiso   1.00
H73    H     0.22845   0.81556   0.03026   0.00000  Uiso   1.00
H74    H     0.03616   0.03636   0.09554   0.00000  Uiso   1.00
H75    H     0.15444   0.73892   0.29504   0.00000  Uiso   1.00
H76    H     0.27610   0.75517   0.92855   0.00000  Uiso   1.00
H77    H     0.00865   0.71320   0.02958   0.00000  Uiso   1.00
H78    H     0.94768   0.80082   0.02217   0.00000  Uiso   1.00
H79    H     0.00378   0.65976   0.11679   0.00000  Uiso   1.00
H80    H     0.06147   0.66746   0.94299   0.00000  Uiso   1.00
H81    H     0.90063   0.91616   0.02471   0.00000  Uiso   1.00
H82    H     0.01892   0.61872   0.22422   0.00000  Uiso   1.00
H83    H     0.14057   0.63497   0.85773   0.00000  Uiso   1.00
O84    O     0.93113   0.03643   0.05676   0.00000  Uiso   1.00
O85    O     0.08633   0.64619   0.31850   0.00000  Uiso   1.00
O86    O     0.24594   0.66751   0.83767   0.00000  Uiso   1.00
N87    N     0.01263   0.99605   0.07988   0.00000  Uiso   1.00
N88    N     0.12322   0.71797   0.26641   0.00000  Uiso   1.00
N89    N     0.23696   0.73314   0.92378   0.00000  Uiso   1.00
N90    N     0.93970   0.93137   0.04176   0.00000  Uiso   1.00
N91    N     0.05029   0.65329   0.22829   0.00000  Uiso   1.00
N92    N     0.16403   0.66847   0.88566   0.00000  Uiso   1.00
C93    C     0.01293   0.12473   0.71268   0.00000  Uiso   1.00
C94    C     0.98868   0.06648   0.73213   0.00000  Uiso   1.00
C95    C     0.99069   0.05698   0.78773   0.00000  Uiso   1.00
C96    C     0.96608   0.00053   0.79675   0.00000  Uiso   1.00
C97    C     0.93236   0.91695   0.83379   0.00000  Uiso   1.00
C98    C     0.05316   0.10424   0.66770   0.00000  Uiso   1.00
C99    C     0.10938   0.12650   0.66912   0.00000  Uiso   1.00
C100   C     0.13905   0.10185   0.62390   0.00000  Uiso   1.00
C101   C     0.20543   0.07693   0.56090   0.00000  Uiso   1.00
C102   C     0.96456   0.14635   0.68143   0.00000  Uiso   1.00
C103   C     0.94629   0.20402   0.69439   0.00000  Uiso   1.00
C104   C     0.90138   0.21482   0.66071   0.00000  Uiso   1.00
C105   C     0.83019   0.25529   0.61902   0.00000  Uiso   1.00
C106   C     0.96567   0.04137   0.62983   0.00000  Uiso   1.00
C107   C     0.96301   0.02119   0.68713   0.00000  Uiso   1.00
C108   C     0.93839   0.96474   0.69607   0.00000  Uiso   1.00
C109   C     0.94036   0.95516   0.75167   0.00000  Uiso   1.00
C110   C     0.02749   0.05896   0.62270   0.00000  Uiso   1.00
C111   C     0.05709   0.03427   0.57746   0.00000  Uiso   1.00
C112   C     0.11334   0.05648   0.57882   0.00000  Uiso   1.00
C113   C     0.93889   0.10107   0.63643   0.00000  Uiso   1.00
C114   C     0.89400   0.11179   0.60273   0.00000  Uiso   1.00
C115   C     0.87566   0.16946   0.61563   0.00000  Uiso   1.00
H116   H     0.03292   0.15999   0.74771   0.00000  Uiso   1.00
H117   H     0.01056   0.09203   0.82254   0.00000  Uiso   1.00
H118   H     0.12923   0.16155   0.70395   0.00000  Uiso   1.00
H119   H     0.96617   0.23905   0.72921   0.00000  Uiso   1.00
H120   H     0.97447   0.99671   0.88566   0.00000  Uiso   1.00
H121   H     0.22469   0.14331   0.63559   0.00000  Uiso   1.00
H122   H     0.88084   0.30675   0.68886   0.00000  Uiso   1.00
H123   H     0.94568   0.00611   0.59480   0.00000  Uiso   1.00
H124   H     0.91853   0.92971   0.66124   0.00000  Uiso   1.00
H125   H     0.03721   0.99923   0.54265   0.00000  Uiso   1.00
H126   H     0.87414   0.07673   0.56791   0.00000  Uiso   1.00
H127   H     0.89978   0.86497   0.75474   0.00000  Uiso   1.00
H128   H     0.15001   0.01157   0.50467   0.00000  Uiso   1.00
H129   H     0.80615   0.17500   0.55794   0.00000  Uiso   1.00
O130   O     0.92086   0.88335   0.86666   0.00000  Uiso   1.00
O131   O     0.24914   0.07569   0.53858   0.00000  Uiso   1.00
O132   O     0.79801   0.29011   0.60846   0.00000  Uiso   1.00
N133   N     0.96061   0.97620   0.84573   0.00000  Uiso   1.00
N134   N     0.19455   0.11325   0.61194   0.00000  Uiso   1.00
N135   N     0.87309   0.26605   0.66173   0.00000  Uiso   1.00
N136   N     0.92042   0.90530   0.77528   0.00000  Uiso   1.00
N137   N     0.15436   0.04236   0.54149   0.00000  Uiso   1.00
N138   N     0.83290   0.19516   0.59128   0.00000  Uiso   1.00
C139   C     0.26990   0.54369   0.54827   0.00000  Uiso   1.00
C140   C     0.26832   0.47701   0.51759   0.00000  Uiso   1.00
C141   C     0.31376   0.44357   0.51189   0.00000  Uiso   1.00
C142   C     0.30366   0.38319   0.48230   0.00000  Uiso   1.00
C143   C     0.30936   0.28359   0.43819   0.00000  Uiso   1.00
C144   C     0.22731   0.54317   0.59326   0.00000  Uiso   1.00
C145   C     0.23826   0.56536   0.65117   0.00000  Uiso   1.00
C146   C     0.19364   0.56068   0.68528   0.00000  Uiso   1.00
C147   C     0.13566   0.56383   0.75864   0.00000  Uiso   1.00
C148   C     0.24640   0.57815   0.50491   0.00000  Uiso   1.00
C149   C     0.27341   0.62978   0.48855   0.00000  Uiso   1.00
C150   C     0.24485   0.65456   0.44828   0.00000  Uiso   1.00
C151   C     0.21653   0.71204   0.38446   0.00000  Uiso   1.00
C152   C     0.17116   0.49592   0.50586   0.00000  Uiso   1.00
C153   C     0.21469   0.45106   0.49455   0.00000  Uiso   1.00
C154   C     0.20452   0.39072   0.46496   0.00000  Uiso   1.00
C155   C     0.24994   0.35719   0.45922   0.00000  Uiso   1.00
C156   C     0.17368   0.51722   0.57022   0.00000  Uiso   1.00
C157   C     0.12903   0.51251   0.60425   0.00000  Uiso   1.00
C158   C     0.13991   0.53469   0.66220   0.00000  Uiso   1.00
C159   C     0.19278   0.55221   0.48187   0.00000  Uiso   1.00
C160   C     0.16417   0.57692   0.44162   0.00000  Uiso   1.00
C161   C     0.19113   0.62857   0.42520   0.00000  Uiso   1.00
H162   H     0.31165   0.56389   0.56621   0.00000  Uiso   1.00
H163   H     0.35525   0.46366   0.52973   0.00000  Uiso   1.00
H164   H     0.27976   0.58544   0.66899   0.00000  Uiso   1.00
H165   H     0.31491   0.64984   0.50639   0.00000  Uiso   1.00
H166   H     0.37994   0.34109   0.47914   0.00000  Uiso   1.00
H167   H     0.22077   0.59789   0.77278   0.00000  Uiso   1.00
H168   H     0.29487   0.73369   0.42990   0.00000  Uiso   1.00
H169   H     0.12941   0.47572   0.48792   0.00000  Uiso   1.00
H170   H     0.16302   0.37065   0.44714   0.00000  Uiso   1.00
H171   H     0.08753   0.49243   0.58640   0.00000  Uiso   1.00
H172   H     0.12267   0.55683   0.42380   0.00000  Uiso   1.00
H173   H     0.22392   0.26560   0.41211   0.00000  Uiso   1.00
H174   H     0.06475   0.52240   0.70575   0.00000  Uiso   1.00
H175   H     0.13885   0.65820   0.36287   0.00000  Uiso   1.00
O176   O     0.32732   0.23581   0.42023   0.00000  Uiso   1.00
O177   O     0.11850   0.57274   0.80547   0.00000  Uiso   1.00
O178   O     0.21572   0.75090   0.35562   0.00000  Uiso   1.00
N179   N     0.33861   0.33775   0.46895   0.00000  Uiso   1.00
N180   N     0.18980   0.57783   0.74349   0.00000  Uiso   1.00
N181   N     0.25907   0.70480   0.42293   0.00000  Uiso   1.00
N182   N     0.25466   0.29713   0.43288   0.00000  Uiso   1.00
N183   N     0.10584   0.53721   0.70742   0.00000  Uiso   1.00
N184   N     0.17512   0.66418   0.38687   0.00000  Uiso   1.00
C185   C     0.69196   0.76289   0.20694   0.00000  Uiso   1.00
C186   C     0.66643   0.76028   0.26354   0.00000  Uiso   1.00
C187   C     0.69325   0.78268   0.31701   0.00000  Uiso   1.00
C188   C     0.66271   0.77588   0.36355   0.00000  Uiso   1.00
C189   C     0.63148   0.77614   0.45246   0.00000  Uiso   1.00
C190   C     0.65326   0.79623   0.17441   0.00000  Uiso   1.00
C191   C     0.66901   0.84886   0.15295   0.00000  Uiso   1.00
C192   C     0.62737   0.87231   0.12446   0.00000  Uiso   1.00
C193   C     0.57571   0.92836   0.07497   0.00000  Uiso   1.00
C194   C     0.68632   0.69660   0.17435   0.00000  Uiso   1.00
C195   C     0.72987   0.66545   0.15282   0.00000  Uiso   1.00
C196   C     0.71606   0.60502   0.12427   0.00000  Uiso   1.00
C197   C     0.71573   0.50637   0.07468   0.00000  Uiso   1.00
C198   C     0.59001   0.71098   0.19451   0.00000  Uiso   1.00
C199   C     0.61105   0.73208   0.25678   0.00000  Uiso   1.00
C200   C     0.58046   0.72524   0.30325   0.00000  Uiso   1.00
C201   C     0.60723   0.74763   0.35679   0.00000  Uiso   1.00
C202   C     0.59788   0.76803   0.16766   0.00000  Uiso   1.00
C203   C     0.55621   0.79141   0.13919   0.00000  Uiso   1.00
C204   C     0.57190   0.84406   0.11769   0.00000  Uiso   1.00
C205   C     0.63094   0.66839   0.16760   0.00000  Uiso   1.00
C206   C     0.61707   0.60801   0.13907   0.00000  Uiso   1.00
C207   C     0.66059   0.57677   0.11750   0.00000  Uiso   1.00
H208   H     0.73507   0.78485   0.21220   0.00000  Uiso   1.00
H209   H     0.73611   0.80451   0.32222   0.00000  Uiso   1.00
H210   H     0.71187   0.87067   0.15818   0.00000  Uiso   1.00
H211   H     0.77271   0.68728   0.15805   0.00000  Uiso   1.00
H212   H     0.71283   0.81389   0.44122   0.00000  Uiso   1.00
H213   H     0.66172   0.95337   0.09532   0.00000  Uiso   1.00
H214   H     0.79003   0.56668   0.09505   0.00000  Uiso   1.00
H215   H     0.54689   0.68902   0.18925   0.00000  Uiso   1.00
H216   H     0.53761   0.70342   0.29801   0.00000  Uiso   1.00
H217   H     0.51337   0.76958   0.13397   0.00000  Uiso   1.00
H218   H     0.57421   0.58620   0.13385   0.00000  Uiso   1.00
H219   H     0.55172   0.73184   0.42157   0.00000  Uiso   1.00
H220   H     0.50061   0.87133   0.07567   0.00000  Uiso   1.00
H221   H     0.62892   0.48463   0.07540   0.00000  Uiso   1.00
O222   O     0.62956   0.78409   0.50336   0.00000  Uiso   1.00
O223   O     0.56251   0.96707   0.04954   0.00000  Uiso   1.00
O224   O     0.73084   0.45974   0.04919   0.00000  Uiso   1.00
N225   N     0.67619   0.79259   0.42167   0.00000  Uiso   1.00
N226   N     0.62841   0.92301   0.09828   0.00000  Uiso   1.00
N227   N     0.74836   0.56149   0.09802   0.00000  Uiso   1.00
N228   N     0.58950   0.74844   0.41110   0.00000  Uiso   1.00
N229   N     0.54171   0.87886   0.08771   0.00000  Uiso   1.00
N230   N     0.66167   0.51734   0.08744   0.00000  Uiso   1.00
C231   C     0.51299   0.32800   0.53816   0.00000  Uiso   1.00
C232   C     0.49294   0.35052   0.48525   0.00000  Uiso   1.00
C233   C     0.49401   0.41162   0.47978   0.00000  Uiso   1.00
C234   C     0.47378   0.42267   0.42792   0.00000  Uiso   1.00
C235   C     0.44579   0.46498   0.35256   0.00000  Uiso   1.00
C236   C     0.55673   0.28531   0.51914   0.00000  Uiso   1.00
C237   C     0.61145   0.29159   0.54217   0.00000  Uiso   1.00
C238   C     0.64491   0.24773   0.51884   0.00000  Uiso   1.00
C239   C     0.71596   0.18878   0.49613   0.00000  Uiso   1.00
C240   C     0.46337   0.28717   0.55364   0.00000  Uiso   1.00
C241   C     0.43959   0.29499   0.60568   0.00000  Uiso   1.00
C242   C     0.39445   0.25269   0.61140   0.00000  Uiso   1.00
C243   C     0.32053   0.19663   0.64225   0.00000  Uiso   1.00
C244   C     0.47513   0.23896   0.45579   0.00000  Uiso   1.00
C245   C     0.47237   0.30215   0.44051   0.00000  Uiso   1.00
C246   C     0.45213   0.31310   0.38865   0.00000  Uiso   1.00
C247   C     0.45317   0.37421   0.38310   0.00000  Uiso   1.00
C248   C     0.53617   0.23695   0.47440   0.00000  Uiso   1.00
C249   C     0.56956   0.19307   0.45104   0.00000  Uiso   1.00
C250   C     0.62431   0.19928   0.47402   0.00000  Uiso   1.00
C251   C     0.44280   0.23880   0.50890   0.00000  Uiso   1.00
C252   C     0.39770   0.19648   0.51454   0.00000  Uiso   1.00
C253   C     0.37385   0.20424   0.56658   0.00000  Uiso   1.00
H254   H     0.52901   0.36566   0.57300   0.00000  Uiso   1.00
H255   H     0.50994   0.44904   0.51442   0.00000  Uiso   1.00
H256   H     0.62735   0.32901   0.57680   0.00000  Uiso   1.00
H257   H     0.45551   0.33242   0.64030   0.00000  Uiso   1.00
H258   H     0.47975   0.52015   0.42973   0.00000  Uiso   1.00
H259   H     0.72731   0.26707   0.56128   0.00000  Uiso   1.00
H260   H     0.36496   0.27425   0.69518   0.00000  Uiso   1.00
H261   H     0.45912   0.20130   0.42096   0.00000  Uiso   1.00
H262   H     0.43622   0.27567   0.35403   0.00000  Uiso   1.00
H263   H     0.55363   0.15565   0.41642   0.00000  Uiso   1.00
H264   H     0.38179   0.15906   0.47991   0.00000  Uiso   1.00
H265   H     0.41992   0.37944   0.29956   0.00000  Uiso   1.00
H266   H     0.66748   0.12635   0.43111   0.00000  Uiso   1.00
H267   H     0.30513   0.13354   0.56500   0.00000  Uiso   1.00
O268   O     0.43604   0.50168   0.32336   0.00000  Uiso   1.00
O269   O     0.76083   0.16964   0.49596   0.00000  Uiso   1.00
O270   O     0.28543   0.17907   0.67162   0.00000  Uiso   1.00
N271   N     0.46880   0.47683   0.40828   0.00000  Uiso   1.00
N272   N     0.70026   0.24022   0.53127   0.00000  Uiso   1.00
N273   N     0.36150   0.24693   0.65646   0.00000  Uiso   1.00
N274   N     0.43660   0.40111   0.33824   0.00000  Uiso   1.00
N275   N     0.66806   0.16450   0.46123   0.00000  Uiso   1.00
N276   N     0.32930   0.17121   0.58641   0.00000  Uiso   1.00
C277   C     0.28474   0.04945   0.90403   0.00000  Uiso   1.00
C278   C     0.25285   0.06858   0.95659   0.00000  Uiso   1.00
C279   C     0.19675   0.05062   0.96218   0.00000  Uiso   1.00
C280   C     0.17540   0.07309   0.01367   0.00000  Uiso   1.00
C281   C     0.12078   0.09682   0.08856   0.00000  Uiso   1.00
C282   C     0.33434   0.01991   0.92403   0.00000  Uiso   1.00
C283   C     0.34675   0.96102   0.90224   0.00000  Uiso   1.00
C284   C     0.39399   0.94253   0.92632   0.00000  Uiso   1.00
C285   C     0.46591   0.89071   0.95063   0.00000  Uiso   1.00
C286   C     0.30941   0.10912   0.88732   0.00000  Uiso   1.00
C287   C     0.30088   0.12524   0.83466   0.00000  Uiso   1.00
C288   C     0.32716   0.18184   0.82783   0.00000  Uiso   1.00
C289   C     0.36037   0.26854   0.79514   0.00000  Uiso   1.00
C290   C     0.34659   0.12131   0.98553   0.00000  Uiso   1.00
C291   C     0.28645   0.10761   0.00086   0.00000  Uiso   1.00
C292   C     0.26518   0.13011   0.05236   0.00000  Uiso   1.00
C293   C     0.20905   0.11219   0.05802   0.00000  Uiso   1.00
C294   C     0.36793   0.05893   0.96830   0.00000  Uiso   1.00
C295   C     0.41517   0.04052   0.99242   0.00000  Uiso   1.00
C296   C     0.42765   0.98162   0.97067   0.00000  Uiso   1.00
C297   C     0.34301   0.14815   0.93159   0.00000  Uiso   1.00
C298   C     0.36931   0.20474   0.92484   0.00000  Uiso   1.00
C299   C     0.36081   0.22094   0.87218   0.00000  Uiso   1.00
H300   H     0.25859   0.01907   0.86956   0.00000  Uiso   1.00
H301   H     0.17077   0.02041   0.92791   0.00000  Uiso   1.00
H302   H     0.32074   0.93083   0.86798   0.00000  Uiso   1.00
H303   H     0.27488   0.09502   0.80041   0.00000  Uiso   1.00
H304   H     0.08822   0.03908   0.01213   0.00000  Uiso   1.00
H305   H     0.40447   0.85022   0.88574   0.00000  Uiso   1.00
H306   H     0.30776   0.19645   0.74326   0.00000  Uiso   1.00
H307   H     0.37274   0.15169   0.02000   0.00000  Uiso   1.00
H308   H     0.29118   0.16031   0.08661   0.00000  Uiso   1.00
H309   H     0.44116   0.07074   0.02667   0.00000  Uiso   1.00
H310   H     0.39530   0.23493   0.95911   0.00000  Uiso   1.00
H311   H     0.18596   0.15264   0.14094   0.00000  Uiso   1.00
H312   H     0.50220   0.96377   0.01455   0.00000  Uiso   1.00
H313   H     0.40550   0.31000   0.87207   0.00000  Uiso   1.00
O314   O     0.08138   0.09912   0.11764   0.00000  Uiso   1.00
O315   O     0.49629   0.85134   0.95182   0.00000  Uiso   1.00
O316   O     0.36941   0.30558   0.76489   0.00000  Uiso   1.00
N317   N     0.12241   0.06464   0.03330   0.00000  Uiso   1.00
N318   N     0.41808   0.88805   0.91514   0.00000  Uiso   1.00
N319   N     0.32768   0.21174   0.78193   0.00000  Uiso   1.00
N320   N     0.17500   0.12574   0.10261   0.00000  Uiso   1.00
N321   N     0.47067   0.94916   0.98445   0.00000  Uiso   1.00
N322   N     0.38027   0.27284   0.85124   0.00000  Uiso   1.00
C323   C     0.90088   0.32581   0.94234   0.00000  Uiso   1.00
C324   C     0.93766   0.27625   0.95097   0.00000  Uiso   1.00
C325   C     0.92202   0.21315   0.93671   0.00000  Uiso   1.00
C326   C     0.96172   0.17544   0.94800   0.00000  Uiso   1.00
C327   C     0.01072   0.09475   0.95762   0.00000  Uiso   1.00
C328   C     0.93306   0.36566   0.90647   0.00000  Uiso   1.00
C329   C     0.91355   0.37774   0.85478   0.00000  Uiso   1.00
C330   C     0.94938   0.41531   0.82861   0.00000  Uiso   1.00
C331   C     0.99123   0.47346   0.76916   0.00000  Uiso   1.00
C332   C     0.89929   0.36653   0.00071   0.00000  Uiso   1.00
C333   C     0.85138   0.37935   0.02827   0.00000  Uiso   1.00
C334   C     0.85877   0.41766   0.08144   0.00000  Uiso   1.00
C335   C     0.84818   0.47717   0.16832   0.00000  Uiso   1.00
C336   C     0.99920   0.37106   0.98777   0.00000  Uiso   1.00
C337   C     0.99107   0.30083   0.97565   0.00000  Uiso   1.00
C338   C     0.03080   0.26321   0.98697   0.00000  Uiso   1.00
C339   C     0.01522   0.20006   0.97272   0.00000  Uiso   1.00
C340   C     0.98647   0.39024   0.93114   0.00000  Uiso   1.00
C341   C     0.02233   0.42780   0.90505   0.00000  Uiso   1.00
C342   C     0.00288   0.43993   0.85333   0.00000  Uiso   1.00
C343   C     0.95269   0.39111   0.02539   0.00000  Uiso   1.00
C344   C     0.96016   0.42941   0.07853   0.00000  Uiso   1.00
C345   C     0.91227   0.44229   0.10616   0.00000  Uiso   1.00
H346   H     0.85930   0.30668   0.92313   0.00000  Uiso   1.00
H347   H     0.88068   0.19414   0.91760   0.00000  Uiso   1.00
H348   H     0.87221   0.35871   0.83570   0.00000  Uiso   1.00
H349   H     0.81006   0.36032   0.00916   0.00000  Uiso   1.00
H350   H     0.92795   0.08022   0.92234   0.00000  Uiso   1.00
H351   H     0.91009   0.42724   0.74965   0.00000  Uiso   1.00
H352   H     0.77901   0.43064   0.11542   0.00000  Uiso   1.00
H353   H     0.04078   0.39020   0.00699   0.00000  Uiso   1.00
H354   H     0.07213   0.28225   0.00607   0.00000  Uiso   1.00
H355   H     0.06366   0.44682   0.92416   0.00000  Uiso   1.00
H356   H     0.00150   0.44843   0.09762   0.00000  Uiso   1.00
H357   H     0.08334   0.15173   0.99414   0.00000  Uiso   1.00
H358   H     0.06547   0.49875   0.82144   0.00000  Uiso   1.00
H359   H     0.93440   0.50215   0.18722   0.00000  Uiso   1.00
O360   O     0.02300   0.04345   0.95611   0.00000  Uiso   1.00
O361   O     0.99955   0.49874   0.72954   0.00000  Uiso   1.00
O362   O     0.82759   0.50319   0.20943   0.00000  Uiso   1.00
N363   N     0.96022   0.11186   0.93938   0.00000  Uiso   1.00
N364   N     0.94352   0.43630   0.77791   0.00000  Uiso   1.00
N365   N     0.82097   0.43949   0.11987   0.00000  Uiso   1.00
N366   N     0.04383   0.15034   0.97801   0.00000  Uiso   1.00
N367   N     0.02713   0.47478   0.81655   0.00000  Uiso   1.00
N368   N     0.90458   0.47797   0.15851   0.00000  Uiso   1.00
C369   C     0.93097   0.07196   0.21929   0.00000  Uiso   1.00
C370   C     0.95793   0.13622   0.21560   0.00000  Uiso   1.00
C371   C     0.96181   0.16023   0.16631   0.00000  Uiso   1.00
C372   C     0.98803   0.21996   0.17187   0.00000  Uiso   1.00
C373   C     0.02659   0.31451   0.15810   0.00000  Uiso   1.00
C374   C     0.88628   0.08136   0.26196   0.00000  Uiso   1.00
C375   C     0.82993   0.05924   0.25164   0.00000  Uiso   1.00
C376   C     0.79584   0.07278   0.29622   0.00000  Uiso   1.00
C377   C     0.72318   0.08213   0.35443   0.00000  Uiso   1.00
C378   C     0.97585   0.04174   0.24714   0.00000  Uiso   1.00
C379   C     0.99480   0.98629   0.22437   0.00000  Uiso   1.00
C380   C     0.03610   0.96647   0.25648   0.00000  Uiso   1.00
C381   C     0.10250   0.91430   0.29168   0.00000  Uiso   1.00
C382   C     0.97061   0.13535   0.31682   0.00000  Uiso   1.00
C383   C     0.97946   0.17065   0.26858   0.00000  Uiso   1.00
C384   C     0.00568   0.23036   0.27422   0.00000  Uiso   1.00
C385   C     0.00960   0.25445   0.22494   0.00000  Uiso   1.00
C386   C     0.90782   0.11579   0.31493   0.00000  Uiso   1.00
C387   C     0.87380   0.12937   0.35954   0.00000  Uiso   1.00
C388   C     0.81741   0.10728   0.34929   0.00000  Uiso   1.00
C389   C     0.99739   0.07617   0.30011   0.00000  Uiso   1.00
C390   C     0.03866   0.05643   0.33227   0.00000  Uiso   1.00
C391   C     0.05767   0.00097   0.30956   0.00000  Uiso   1.00
H392   H     0.91420   0.04515   0.17804   0.00000  Uiso   1.00
H393   H     0.94514   0.13357   0.12532   0.00000  Uiso   1.00
H394   H     0.81328   0.03259   0.21064   0.00000  Uiso   1.00
H395   H     0.97812   0.95966   0.18337   0.00000  Uiso   1.00
H396   H     0.98892   0.24678   0.09023   0.00000  Uiso   1.00
H397   H     0.71089   0.03385   0.27013   0.00000  Uiso   1.00
H398   H     0.05849   0.88006   0.21264   0.00000  Uiso   1.00
H399   H     0.98738   0.16216   0.35807   0.00000  Uiso   1.00
H400   H     0.02234   0.25700   0.31522   0.00000  Uiso   1.00
H401   H     0.89048   0.15601   0.40053   0.00000  Uiso   1.00
H402   H     0.05532   0.08309   0.37327   0.00000  Uiso   1.00
H403   H     0.05158   0.34696   0.24436   0.00000  Uiso   1.00
H404   H     0.77355   0.13402   0.42426   0.00000  Uiso   1.00
H405   H     0.12115   0.98024   0.36677   0.00000  Uiso   1.00
O406   O     0.04191   0.35716   0.13587   0.00000  Uiso   1.00
O407   O     0.67715   0.07778   0.37189   0.00000  Uiso   1.00
O408   O     0.13319   0.87602   0.29646   0.00000  Uiso   1.00
N409   N     0.99888   0.25734   0.13239   0.00000  Uiso   1.00
N410   N     0.73894   0.05826   0.30058   0.00000  Uiso   1.00
N411   N     0.06390   0.91448   0.24683   0.00000  Uiso   1.00
N412   N     0.03260   0.31125   0.21532   0.00000  Uiso   1.00
N413   N     0.77265   0.11217   0.38351   0.00000  Uiso   1.00
N414   N     0.09762   0.96838   0.32977   0.00000  Uiso   1.00
C415   C     0.80968   0.59726   0.48934   0.00000  Uiso   1.00
C416   C     0.80836   0.66450   0.51702   0.00000  Uiso   1.00
C417   C     0.76147   0.69573   0.51951   0.00000  Uiso   1.00
C418   C     0.76893   0.75709   0.54670   0.00000  Uiso   1.00
C419   C     0.75889   0.85709   0.58604   0.00000  Uiso   1.00
C420   C     0.85356   0.59740   0.44559   0.00000  Uiso   1.00
C421   C     0.84468   0.57221   0.38801   0.00000  Uiso   1.00
C422   C     0.89021   0.57708   0.35508   0.00000  Uiso   1.00
C423   C     0.95036   0.57288   0.28352   0.00000  Uiso   1.00
C424   C     0.83336   0.56648   0.53547   0.00000  Uiso   1.00
C425   C     0.80750   0.51528   0.55346   0.00000  Uiso   1.00
C426   C     0.83602   0.49411   0.59619   0.00000  Uiso   1.00
C427   C     0.86480   0.44189   0.66418   0.00000  Uiso   1.00
C428   C     0.90632   0.65067   0.53323   0.00000  Uiso   1.00
C429   C     0.86084   0.69351   0.54086   0.00000  Uiso   1.00
C430   C     0.86838   0.75484   0.56806   0.00000  Uiso   1.00
C431   C     0.82151   0.78616   0.57059   0.00000  Uiso   1.00
C432   C     0.90605   0.62641   0.46943   0.00000  Uiso   1.00
C433   C     0.95159   0.63132   0.43657   0.00000  Uiso   1.00
C434   C     0.94279   0.60615   0.37896   0.00000  Uiso   1.00
C435   C     0.88584   0.59549   0.55931   0.00000  Uiso   1.00
C436   C     0.91441   0.57439   0.60202   0.00000  Uiso   1.00
C437   C     0.88860   0.52317   0.62007   0.00000  Uiso   1.00
H438   H     0.76882   0.57467   0.47077   0.00000  Uiso   1.00
H439   H     0.72086   0.67327   0.50105   0.00000  Uiso   1.00
H440   H     0.80406   0.54976   0.36958   0.00000  Uiso   1.00
H441   H     0.76688   0.49284   0.53500   0.00000  Uiso   1.00
H442   H     0.69083   0.79538   0.54511   0.00000  Uiso   1.00
H443   H     0.86628   0.53495   0.26790   0.00000  Uiso   1.00
H444   H     0.78787   0.41492   0.61672   0.00000  Uiso   1.00
H445   H     0.94718   0.67326   0.55178   0.00000  Uiso   1.00
H446   H     0.90900   0.77728   0.58651   0.00000  Uiso   1.00
H447   H     0.99221   0.65377   0.45503   0.00000  Uiso   1.00
H448   H     0.95503   0.59685   0.62045   0.00000  Uiso   1.00
H449   H     0.84354   0.87980   0.61446   0.00000  Uiso   1.00
H450   H     0.01898   0.61936   0.33726   0.00000  Uiso   1.00
H451   H     0.94058   0.49934   0.68608   0.00000  Uiso   1.00
O452   O     0.73886   0.90424   0.60115   0.00000  Uiso   1.00
O453   O     0.96903   0.56255   0.23747   0.00000  Uiso   1.00
O454   O     0.86617   0.40508   0.69511   0.00000  Uiso   1.00
N455   N     0.73201   0.80097   0.55667   0.00000  Uiso   1.00
N456   N     0.89604   0.55749   0.29750   0.00000  Uiso   1.00
N457   N     0.82274   0.44526   0.62361   0.00000  Uiso   1.00
N458   N     0.81418   0.84640   0.59400   0.00000  Uiso   1.00
N459   N     0.97820   0.60291   0.33482   0.00000  Uiso   1.00
N460   N     0.90491   0.49069   0.66093   0.00000  Uiso   1.00
C461   C     0.45954   0.53709   0.73220   0.00000  Uiso   1.00
C462   C     0.50394   0.56310   0.69700   0.00000  Uiso   1.00
C463   C     0.49860   0.56098   0.63878   0.00000  Uiso   1.00
C464   C     0.54399   0.58736   0.61451   0.00000  Uiso   1.00
C465   C     0.60549   0.62353   0.55485   0.00000  Uiso   1.00
C466   C     0.48719   0.49225   0.76226   0.00000  Uiso   1.00
C467   C     0.46776   0.43056   0.75891   0.00000  Uiso   1.00
C468   C     0.49904   0.39731   0.78958   0.00000  Uiso   1.00
C469   C     0.53452   0.32350   0.83127   0.00000  Uiso   1.00
C470   C     0.44922   0.59062   0.77875   0.00000  Uiso   1.00
C471   C     0.39787   0.61163   0.78929   0.00000  Uiso   1.00
C472   C     0.39718   0.66118   0.83386   0.00000  Uiso   1.00
C473   C     0.37371   0.74010   0.90116   0.00000  Uiso   1.00
C474   C     0.54961   0.58772   0.79262   0.00000  Uiso   1.00
C475   C     0.55286   0.59060   0.72982   0.00000  Uiso   1.00
C476   C     0.59826   0.61699   0.70562   0.00000  Uiso   1.00
C477   C     0.59300   0.61491   0.64738   0.00000  Uiso   1.00
C478   C     0.53611   0.51975   0.79507   0.00000  Uiso   1.00
C479   C     0.56742   0.48658   0.82576   0.00000  Uiso   1.00
C480   C     0.54805   0.42486   0.82246   0.00000  Uiso   1.00
C481   C     0.49815   0.61812   0.81157   0.00000  Uiso   1.00
C482   C     0.49753   0.66764   0.85613   0.00000  Uiso   1.00
C483   C     0.44620   0.68873   0.86674   0.00000  Uiso   1.00
H484   H     0.42145   0.51568   0.70666   0.00000  Uiso   1.00
H485   H     0.46074   0.53968   0.61340   0.00000  Uiso   1.00
H486   H     0.42990   0.40930   0.73352   0.00000  Uiso   1.00
H487   H     0.36002   0.59033   0.76389   0.00000  Uiso   1.00
H488   H     0.52588   0.57841   0.52448   0.00000  Uiso   1.00
H489   H     0.46084   0.30348   0.77777   0.00000  Uiso   1.00
H490   H     0.31349   0.68523   0.84181   0.00000  Uiso   1.00
H491   H     0.58771   0.60913   0.81817   0.00000  Uiso   1.00
H492   H     0.63612   0.63827   0.73103   0.00000  Uiso   1.00
H493   H     0.60528   0.50788   0.85115   0.00000  Uiso   1.00
H494   H     0.53540   0.68891   0.88152   0.00000  Uiso   1.00
H495   H     0.66823   0.65842   0.61995   0.00000  Uiso   1.00
H496   H     0.60319   0.38349   0.87325   0.00000  Uiso   1.00
H497   H     0.45584   0.76524   0.93729   0.00000  Uiso   1.00
O498   O     0.62591   0.63587   0.51287   0.00000  Uiso   1.00
O499   O     0.54058   0.27519   0.84519   0.00000  Uiso   1.00
O500   O     0.34726   0.77603   0.92922   0.00000  Uiso   1.00
N501   N     0.55273   0.59325   0.55891   0.00000  Uiso   1.00
N502   N     0.49193   0.33621   0.79571   0.00000  Uiso   1.00
N503   N     0.35417   0.69310   0.85560   0.00000  Uiso   1.00
N504   N     0.62933   0.63630   0.61028   0.00000  Uiso   1.00
N505   N     0.56853   0.37926   0.84709   0.00000  Uiso   1.00
N506   N     0.43076   0.73616   0.90697   0.00000  Uiso   1.00
C507   C     0.40448   0.82554   0.33154   0.00000  Uiso   1.00
C508   C     0.42388   0.78591   0.37244   0.00000  Uiso   1.00
C509   C     0.41999   0.72209   0.36134   0.00000  Uiso   1.00
C510   C     0.44010   0.69445   0.40430   0.00000  Uiso   1.00
C511   C     0.46667   0.62760   0.45989   0.00000  Uiso   1.00
C512   C     0.36332   0.86474   0.36285   0.00000  Uiso   1.00
C513   C     0.30852   0.86719   0.34368   0.00000  Uiso   1.00
C514   C     0.27766   0.90591   0.37857   0.00000  Uiso   1.00
C515   C     0.21022   0.96147   0.41924   0.00000  Uiso   1.00
C516   C     0.45544   0.87010   0.32514   0.00000  Uiso   1.00
C517   C     0.47809   0.87708   0.27427   0.00000  Uiso   1.00
C518   C     0.52478   0.92034   0.27742   0.00000  Uiso   1.00
C519   C     0.60038   0.98423   0.25955   0.00000  Uiso   1.00
C520   C     0.44709   0.88995   0.42757   0.00000  Uiso   1.00
C521   C     0.44702   0.82090   0.42460   0.00000  Uiso   1.00
C522   C     0.46714   0.79336   0.46759   0.00000  Uiso   1.00
C523   C     0.46329   0.72950   0.45656   0.00000  Uiso   1.00
C524   C     0.38646   0.89973   0.41501   0.00000  Uiso   1.00
C525   C     0.35567   0.93846   0.44993   0.00000  Uiso   1.00
C526   C     0.30084   0.94096   0.43082   0.00000  Uiso   1.00
C527   C     0.47859   0.90509   0.37731   0.00000  Uiso   1.00
C528   C     0.52524   0.94835   0.38053   0.00000  Uiso   1.00
C529   C     0.54796   0.95539   0.32968   0.00000  Uiso   1.00
H530   H     0.38646   0.79830   0.29093   0.00000  Uiso   1.00
H531   H     0.40207   0.69502   0.32097   0.00000  Uiso   1.00
H532   H     0.29063   0.84011   0.30331   0.00000  Uiso   1.00
H533   H     0.46017   0.85000   0.23392   0.00000  Uiso   1.00
H534   H     0.42957   0.59596   0.37729   0.00000  Uiso   1.00
H535   H     0.19459   0.90189   0.34004   0.00000  Uiso   1.00
H536   H     0.55210   0.92274   0.19371   0.00000  Uiso   1.00
H537   H     0.46511   0.91720   0.46819   0.00000  Uiso   1.00
H538   H     0.48505   0.82045   0.50796   0.00000  Uiso   1.00
H539   H     0.37360   0.96553   0.49029   0.00000  Uiso   1.00
H540   H     0.54314   0.97542   0.42090   0.00000  Uiso   1.00
H541   H     0.49692   0.69775   0.52905   0.00000  Uiso   1.00
H542   H     0.26193   0.00369   0.49180   0.00000  Uiso   1.00
H543   H     0.61945   0.02454   0.34548   0.00000  Uiso   1.00
O544   O     0.47492   0.58106   0.47614   0.00000  Uiso   1.00
O545   O     0.16663   0.98244   0.42726   0.00000  Uiso   1.00
O546   O     0.63569   0.00980   0.23529   0.00000  Uiso   1.00
N547   N     0.44270   0.63319   0.40754   0.00000  Uiso   1.00
N548   N     0.22300   0.91921   0.37272   0.00000  Uiso   1.00
N549   N     0.55723   0.93872   0.23592   0.00000  Uiso   1.00
N550   N     0.47893   0.68797   0.48921   0.00000  Uiso   1.00
N551   N     0.25923   0.97399   0.45439   0.00000  Uiso   1.00
N552   N     0.59347   0.99350   0.31758   0.00000  Uiso   1.00
