data_job_05427
_audit_creation_date              2018-12-19
_audit_creation_method            'Materials Studio'
_symmetry_space_group_name_H-M    'P1'
_symmetry_Int_Tables_number       1
_symmetry_cell_setting            triclinic
loop_
_symmetry_equiv_pos_as_xyz
  x,y,z
_cell_length_a                    21.5358
_cell_length_b                    11.8116
_cell_length_c                    23.6040
_cell_angle_alpha                 90.0000
_cell_angle_beta                  90.0000
_cell_angle_gamma                 90.0000
loop_
_atom_site_label
_atom_site_type_symbol
_atom_site_fract_x
_atom_site_fract_y
_atom_site_fract_z
_atom_site_U_iso_or_equiv
_atom_site_adp_type
_atom_site_occupancy
C1     C     0.42676   0.93392   0.35619   0.00000  Uiso   1.00
C2     C     0.40452   0.99614   0.40904   0.00000  Uiso   1.00
C3     C     0.43960   0.07059   0.44135   0.00000  Uiso   1.00
C4     C     0.41080   0.11880   0.48812   0.00000  Uiso   1.00
C5     C     0.38565   0.21924   0.56808   0.00000  Uiso   1.00
C6     C     0.41664   0.80829   0.36787   0.00000  Uiso   1.00
C7     C     0.46192   0.72479   0.36557   0.00000  Uiso   1.00
C8     C     0.44332   0.61487   0.37768   0.00000  Uiso   1.00
C9     C     0.43699   0.42365   0.39369   0.00000  Uiso   1.00
C10    C     0.38132   0.96527   0.30920   0.00000  Uiso   1.00
C11    C     0.39689   0.01375   0.25756   0.00000  Uiso   1.00
C12    C     0.34855   0.03598   0.22026   0.00000  Uiso   1.00
C13    C     0.28737   0.08850   0.14517   0.00000  Uiso   1.00
C14    C     0.31323   0.88716   0.38177   0.00000  Uiso   1.00
C15    C     0.34285   0.97074   0.42293   0.00000  Uiso   1.00
C16    C     0.31399   0.01886   0.46966   0.00000  Uiso   1.00
C17    C     0.34902   0.09337   0.50204   0.00000  Uiso   1.00
C18    C     0.35498   0.78289   0.38177   0.00000  Uiso   1.00
C19    C     0.33631   0.67307   0.39388   0.00000  Uiso   1.00
C20    C     0.38154   0.58943   0.39160   0.00000  Uiso   1.00
C21    C     0.31965   0.93988   0.32310   0.00000  Uiso   1.00
C22    C     0.27128   0.96203   0.28587   0.00000  Uiso   1.00
C23    C     0.28677   0.01054   0.23418   0.00000  Uiso   1.00
H24    H     0.47477   0.95368   0.34537   0.00000  Uiso   1.00
H25    H     0.48732   0.09021   0.43059   0.00000  Uiso   1.00
H26    H     0.50963   0.74447   0.35481   0.00000  Uiso   1.00
H27    H     0.44461   0.03339   0.24682   0.00000  Uiso   1.00
H28    H     0.47405   0.23035   0.53121   0.00000  Uiso   1.00
H29    H     0.52109   0.50133   0.37141   0.00000  Uiso   1.00
H30    H     0.38398   0.11057   0.14368   0.00000  Uiso   1.00
H31    H     0.26522   0.86739   0.39259   0.00000  Uiso   1.00
H32    H     0.26627   0.99919   0.48040   0.00000  Uiso   1.00
H33    H     0.28858   0.65345   0.40463   0.00000  Uiso   1.00
H34    H     0.22356   0.94237   0.29663   0.00000  Uiso   1.00
H35    H     0.29464   0.15647   0.57164   0.00000  Uiso   1.00
H36    H     0.34168   0.42745   0.41184   0.00000  Uiso   1.00
H37    H     0.20457   0.03669   0.18412   0.00000  Uiso   1.00
O38    O     0.38882   0.28164   0.60835   0.00000  Uiso   1.00
O39    O     0.45054   0.32520   0.39869   0.00000  Uiso   1.00
O40    O     0.27065   0.12451   0.09992   0.00000  Uiso   1.00
N41    N     0.43168   0.19489   0.52867   0.00000  Uiso   1.00
N42    N     0.47566   0.51330   0.37928   0.00000  Uiso   1.00
N43    N     0.34748   0.08286   0.16636   0.00000  Uiso   1.00
N44    N     0.33514   0.15514   0.55042   0.00000  Uiso   1.00
N45    N     0.37912   0.47355   0.40103   0.00000  Uiso   1.00
N46    N     0.25094   0.04311   0.18812   0.00000  Uiso   1.00
C47    C     0.56877   0.60484   0.65545   0.00000  Uiso   1.00
C48    C     0.58584   0.66555   0.60060   0.00000  Uiso   1.00
C49    C     0.54815   0.74051   0.57116   0.00000  Uiso   1.00
C50    C     0.57228   0.78712   0.52186   0.00000  Uiso   1.00
C51    C     0.58970   0.88551   0.43959   0.00000  Uiso   1.00
C52    C     0.57654   0.47874   0.64353   0.00000  Uiso   1.00
C53    C     0.53102   0.39664   0.65020   0.00000  Uiso   1.00
C54    C     0.54732   0.28600   0.63703   0.00000  Uiso   1.00
C55    C     0.55031   0.09436   0.62145   0.00000  Uiso   1.00
C56    C     0.61923   0.63559   0.69808   0.00000  Uiso   1.00
C57    C     0.60960   0.68534   0.75062   0.00000  Uiso   1.00
C58    C     0.66184   0.70673   0.78338   0.00000  Uiso   1.00
C59    C     0.73111   0.75863   0.85250   0.00000  Uiso   1.00
C60    C     0.67866   0.55432   0.62024   0.00000  Uiso   1.00
C61    C     0.64553   0.63810   0.58148   0.00000  Uiso   1.00
C62    C     0.66973   0.68462   0.53220   0.00000  Uiso   1.00
C63    C     0.63207   0.75963   0.50270   0.00000  Uiso   1.00
C64    C     0.63623   0.45130   0.62440   0.00000  Uiso   1.00
C65    C     0.65260   0.34075   0.61123   0.00000  Uiso   1.00
C66    C     0.60712   0.25850   0.61787   0.00000  Uiso   1.00
C67    C     0.67891   0.60815   0.67895   0.00000  Uiso   1.00
C68    C     0.73118   0.62946   0.71165   0.00000  Uiso   1.00
C69    C     0.72163   0.67924   0.76422   0.00000  Uiso   1.00
H70    H     0.52230   0.62619   0.67034   0.00000  Uiso   1.00
H71    H     0.50195   0.76171   0.58598   0.00000  Uiso   1.00
H72    H     0.48484   0.41790   0.66500   0.00000  Uiso   1.00
H73    H     0.56340   0.70656   0.76540   0.00000  Uiso   1.00
H74    H     0.50571   0.89983   0.48400   0.00000  Uiso   1.00
H75    H     0.46962   0.17488   0.65064   0.00000  Uiso   1.00
H76    H     0.63529   0.78358   0.86236   0.00000  Uiso   1.00
H77    H     0.72513   0.53295   0.60534   0.00000  Uiso   1.00
H78    H     0.71592   0.66336   0.51741   0.00000  Uiso   1.00
H79    H     0.69880   0.31955   0.59644   0.00000  Uiso   1.00
H80    H     0.77736   0.60821   0.69684   0.00000  Uiso   1.00
H81    H     0.67937   0.82000   0.42835   0.00000  Uiso   1.00
H82    H     0.64328   0.09504   0.59500   0.00000  Uiso   1.00
H83    H     0.80895   0.70375   0.80671   0.00000  Uiso   1.00
O84    O     0.58282   0.94736   0.39949   0.00000  Uiso   1.00
O85    O     0.53547   0.99625   0.61814   0.00000  Uiso   1.00
O86    O     0.75282   0.79485   0.89590   0.00000  Uiso   1.00
N87    N     0.54785   0.86316   0.48297   0.00000  Uiso   1.00
N88    N     0.51411   0.18538   0.63877   0.00000  Uiso   1.00
N89    N     0.66899   0.75443   0.83671   0.00000  Uiso   1.00
N90    N     0.64130   0.82021   0.45303   0.00000  Uiso   1.00
N91    N     0.60755   0.14242   0.60883   0.00000  Uiso   1.00
N92    N     0.76244   0.71148   0.80677   0.00000  Uiso   1.00
C93    C     0.57324   0.06608   0.85619   0.00000  Uiso   1.00
C94    C     0.59548   0.00386   0.90904   0.00000  Uiso   1.00
C95    C     0.56040   0.92941   0.94135   0.00000  Uiso   1.00
C96    C     0.58920   0.88120   0.98812   0.00000  Uiso   1.00
C97    C     0.61435   0.78076   0.06808   0.00000  Uiso   1.00
C98    C     0.58336   0.19171   0.86787   0.00000  Uiso   1.00
C99    C     0.53808   0.27521   0.86557   0.00000  Uiso   1.00
C100   C     0.55668   0.38513   0.87768   0.00000  Uiso   1.00
C101   C     0.56301   0.57635   0.89369   0.00000  Uiso   1.00
C102   C     0.61868   0.03473   0.80920   0.00000  Uiso   1.00
C103   C     0.60311   0.98625   0.75756   0.00000  Uiso   1.00
C104   C     0.65145   0.96402   0.72026   0.00000  Uiso   1.00
C105   C     0.71263   0.91150   0.64517   0.00000  Uiso   1.00
C106   C     0.68677   0.11284   0.88177   0.00000  Uiso   1.00
C107   C     0.65715   0.02926   0.92293   0.00000  Uiso   1.00
C108   C     0.68601   0.98114   0.96966   0.00000  Uiso   1.00
C109   C     0.65098   0.90663   0.00204   0.00000  Uiso   1.00
C110   C     0.64502   0.21711   0.88177   0.00000  Uiso   1.00
C111   C     0.66369   0.32693   0.89388   0.00000  Uiso   1.00
C112   C     0.61846   0.41057   0.89160   0.00000  Uiso   1.00
C113   C     0.68035   0.06012   0.82310   0.00000  Uiso   1.00
C114   C     0.72872   0.03797   0.78587   0.00000  Uiso   1.00
C115   C     0.71323   0.98946   0.73418   0.00000  Uiso   1.00
H116   H     0.52523   0.04632   0.84537   0.00000  Uiso   1.00
H117   H     0.51268   0.90979   0.93059   0.00000  Uiso   1.00
H118   H     0.49037   0.25553   0.85481   0.00000  Uiso   1.00
H119   H     0.55539   0.96661   0.74682   0.00000  Uiso   1.00
H120   H     0.52595   0.76965   0.03121   0.00000  Uiso   1.00
H121   H     0.47891   0.49867   0.87141   0.00000  Uiso   1.00
H122   H     0.61602   0.88943   0.64368   0.00000  Uiso   1.00
H123   H     0.73478   0.13261   0.89259   0.00000  Uiso   1.00
H124   H     0.73373   0.00081   0.98040   0.00000  Uiso   1.00
H125   H     0.71142   0.34655   0.90463   0.00000  Uiso   1.00
H126   H     0.77644   0.05763   0.79663   0.00000  Uiso   1.00
H127   H     0.70536   0.84353   0.07164   0.00000  Uiso   1.00
H128   H     0.65832   0.57255   0.91184   0.00000  Uiso   1.00
H129   H     0.79543   0.96331   0.68412   0.00000  Uiso   1.00
O130   O     0.61118   0.71836   0.10835   0.00000  Uiso   1.00
O131   O     0.54946   0.67480   0.89869   0.00000  Uiso   1.00
O132   O     0.72935   0.87549   0.59992   0.00000  Uiso   1.00
N133   N     0.56832   0.80511   0.02867   0.00000  Uiso   1.00
N134   N     0.52434   0.48670   0.87928   0.00000  Uiso   1.00
N135   N     0.65252   0.91714   0.66636   0.00000  Uiso   1.00
N136   N     0.66486   0.84486   0.05042   0.00000  Uiso   1.00
N137   N     0.62088   0.52645   0.90103   0.00000  Uiso   1.00
N138   N     0.74906   0.95689   0.68812   0.00000  Uiso   1.00
C139   C     0.43123   0.39516   0.15545   0.00000  Uiso   1.00
C140   C     0.41416   0.33445   0.10060   0.00000  Uiso   1.00
C141   C     0.45185   0.25949   0.07116   0.00000  Uiso   1.00
C142   C     0.42772   0.21288   0.02186   0.00000  Uiso   1.00
C143   C     0.41030   0.11449   0.93959   0.00000  Uiso   1.00
C144   C     0.42346   0.52126   0.14353   0.00000  Uiso   1.00
C145   C     0.46898   0.60336   0.15020   0.00000  Uiso   1.00
C146   C     0.45268   0.71400   0.13703   0.00000  Uiso   1.00
C147   C     0.44969   0.90564   0.12145   0.00000  Uiso   1.00
C148   C     0.38077   0.36441   0.19808   0.00000  Uiso   1.00
C149   C     0.39040   0.31466   0.25062   0.00000  Uiso   1.00
C150   C     0.33816   0.29327   0.28338   0.00000  Uiso   1.00
C151   C     0.26889   0.24137   0.35250   0.00000  Uiso   1.00
C152   C     0.32134   0.44568   0.12024   0.00000  Uiso   1.00
C153   C     0.35447   0.36190   0.08148   0.00000  Uiso   1.00
C154   C     0.33027   0.31538   0.03220   0.00000  Uiso   1.00
C155   C     0.36793   0.24037   0.00270   0.00000  Uiso   1.00
C156   C     0.36377   0.54870   0.12440   0.00000  Uiso   1.00
C157   C     0.34740   0.65925   0.11123   0.00000  Uiso   1.00
C158   C     0.39288   0.74150   0.11787   0.00000  Uiso   1.00
C159   C     0.32109   0.39185   0.17895   0.00000  Uiso   1.00
C160   C     0.26882   0.37054   0.21165   0.00000  Uiso   1.00
C161   C     0.27837   0.32076   0.26422   0.00000  Uiso   1.00
H162   H     0.47770   0.37381   0.17034   0.00000  Uiso   1.00
H163   H     0.49805   0.23829   0.08598   0.00000  Uiso   1.00
H164   H     0.51516   0.58210   0.16500   0.00000  Uiso   1.00
H165   H     0.43660   0.29344   0.26540   0.00000  Uiso   1.00
H166   H     0.49429   0.10017   0.98400   0.00000  Uiso   1.00
H167   H     0.53038   0.82512   0.15064   0.00000  Uiso   1.00
H168   H     0.36471   0.21642   0.36236   0.00000  Uiso   1.00
H169   H     0.27487   0.46705   0.10534   0.00000  Uiso   1.00
H170   H     0.28408   0.33664   0.01741   0.00000  Uiso   1.00
H171   H     0.30120   0.68045   0.09644   0.00000  Uiso   1.00
H172   H     0.22264   0.39179   0.19684   0.00000  Uiso   1.00
H173   H     0.32063   0.18000   0.92835   0.00000  Uiso   1.00
H174   H     0.35672   0.90496   0.09500   0.00000  Uiso   1.00
H175   H     0.19105   0.29625   0.30671   0.00000  Uiso   1.00
O176   O     0.41718   0.05264   0.89949   0.00000  Uiso   1.00
O177   O     0.46453   0.00375   0.11814   0.00000  Uiso   1.00
O178   O     0.24718   0.20515   0.39590   0.00000  Uiso   1.00
N179   N     0.45215   0.13684   0.98297   0.00000  Uiso   1.00
N180   N     0.48589   0.81462   0.13877   0.00000  Uiso   1.00
N181   N     0.33101   0.24557   0.33671   0.00000  Uiso   1.00
N182   N     0.35870   0.17979   0.95303   0.00000  Uiso   1.00
N183   N     0.39245   0.85758   0.10883   0.00000  Uiso   1.00
N184   N     0.23756   0.28852   0.30677   0.00000  Uiso   1.00
C185   C     0.92676   0.06608   0.35619   0.00000  Uiso   1.00
C186   C     0.90452   0.00386   0.40904   0.00000  Uiso   1.00
C187   C     0.93960   0.92941   0.44135   0.00000  Uiso   1.00
C188   C     0.91080   0.88120   0.48812   0.00000  Uiso   1.00
C189   C     0.88565   0.78076   0.56808   0.00000  Uiso   1.00
C190   C     0.91664   0.19171   0.36787   0.00000  Uiso   1.00
C191   C     0.96192   0.27521   0.36557   0.00000  Uiso   1.00
C192   C     0.94332   0.38513   0.37768   0.00000  Uiso   1.00
C193   C     0.93699   0.57635   0.39369   0.00000  Uiso   1.00
C194   C     0.88132   0.03473   0.30920   0.00000  Uiso   1.00
C195   C     0.89689   0.98625   0.25756   0.00000  Uiso   1.00
C196   C     0.84855   0.96402   0.22026   0.00000  Uiso   1.00
C197   C     0.78737   0.91150   0.14517   0.00000  Uiso   1.00
C198   C     0.81323   0.11284   0.38177   0.00000  Uiso   1.00
C199   C     0.84285   0.02926   0.42293   0.00000  Uiso   1.00
C200   C     0.81399   0.98114   0.46966   0.00000  Uiso   1.00
C201   C     0.84902   0.90663   0.50204   0.00000  Uiso   1.00
C202   C     0.85498   0.21711   0.38177   0.00000  Uiso   1.00
C203   C     0.83631   0.32693   0.39388   0.00000  Uiso   1.00
C204   C     0.88154   0.41057   0.39160   0.00000  Uiso   1.00
C205   C     0.81965   0.06012   0.32310   0.00000  Uiso   1.00
C206   C     0.77128   0.03797   0.28587   0.00000  Uiso   1.00
C207   C     0.78677   0.98946   0.23418   0.00000  Uiso   1.00
H208   H     0.97477   0.04632   0.34537   0.00000  Uiso   1.00
H209   H     0.98732   0.90979   0.43059   0.00000  Uiso   1.00
H210   H     0.00963   0.25553   0.35481   0.00000  Uiso   1.00
H211   H     0.94461   0.96661   0.24682   0.00000  Uiso   1.00
H212   H     0.97405   0.76965   0.53121   0.00000  Uiso   1.00
H213   H     0.02109   0.49867   0.37141   0.00000  Uiso   1.00
H214   H     0.88398   0.88943   0.14368   0.00000  Uiso   1.00
H215   H     0.76522   0.13261   0.39259   0.00000  Uiso   1.00
H216   H     0.76627   0.00081   0.48040   0.00000  Uiso   1.00
H217   H     0.78858   0.34655   0.40463   0.00000  Uiso   1.00
H218   H     0.72356   0.05763   0.29663   0.00000  Uiso   1.00
H219   H     0.79464   0.84353   0.57164   0.00000  Uiso   1.00
H220   H     0.84168   0.57255   0.41184   0.00000  Uiso   1.00
H221   H     0.70457   0.96331   0.18412   0.00000  Uiso   1.00
O222   O     0.88882   0.71836   0.60835   0.00000  Uiso   1.00
O223   O     0.95054   0.67480   0.39869   0.00000  Uiso   1.00
O224   O     0.77065   0.87549   0.09992   0.00000  Uiso   1.00
N225   N     0.93168   0.80511   0.52867   0.00000  Uiso   1.00
N226   N     0.97566   0.48670   0.37928   0.00000  Uiso   1.00
N227   N     0.84748   0.91714   0.16636   0.00000  Uiso   1.00
N228   N     0.83514   0.84486   0.55042   0.00000  Uiso   1.00
N229   N     0.87912   0.52645   0.40103   0.00000  Uiso   1.00
N230   N     0.75094   0.95689   0.18812   0.00000  Uiso   1.00
C231   C     0.06877   0.39516   0.65545   0.00000  Uiso   1.00
C232   C     0.08584   0.33445   0.60060   0.00000  Uiso   1.00
C233   C     0.04815   0.25949   0.57116   0.00000  Uiso   1.00
C234   C     0.07228   0.21288   0.52186   0.00000  Uiso   1.00
C235   C     0.08970   0.11449   0.43959   0.00000  Uiso   1.00
C236   C     0.07654   0.52126   0.64353   0.00000  Uiso   1.00
C237   C     0.03102   0.60336   0.65020   0.00000  Uiso   1.00
C238   C     0.04732   0.71400   0.63703   0.00000  Uiso   1.00
C239   C     0.05031   0.90564   0.62145   0.00000  Uiso   1.00
C240   C     0.11923   0.36441   0.69808   0.00000  Uiso   1.00
C241   C     0.10960   0.31466   0.75062   0.00000  Uiso   1.00
C242   C     0.16184   0.29327   0.78338   0.00000  Uiso   1.00
C243   C     0.23111   0.24137   0.85250   0.00000  Uiso   1.00
C244   C     0.17866   0.44568   0.62024   0.00000  Uiso   1.00
C245   C     0.14553   0.36190   0.58148   0.00000  Uiso   1.00
C246   C     0.16973   0.31538   0.53220   0.00000  Uiso   1.00
C247   C     0.13207   0.24037   0.50270   0.00000  Uiso   1.00
C248   C     0.13623   0.54870   0.62440   0.00000  Uiso   1.00
C249   C     0.15260   0.65925   0.61123   0.00000  Uiso   1.00
C250   C     0.10712   0.74150   0.61787   0.00000  Uiso   1.00
C251   C     0.17891   0.39185   0.67895   0.00000  Uiso   1.00
C252   C     0.23118   0.37054   0.71165   0.00000  Uiso   1.00
C253   C     0.22163   0.32076   0.76422   0.00000  Uiso   1.00
H254   H     0.02230   0.37381   0.67034   0.00000  Uiso   1.00
H255   H     0.00195   0.23829   0.58598   0.00000  Uiso   1.00
H256   H     0.98484   0.58210   0.66500   0.00000  Uiso   1.00
H257   H     0.06340   0.29344   0.76540   0.00000  Uiso   1.00
H258   H     0.00571   0.10017   0.48400   0.00000  Uiso   1.00
H259   H     0.96962   0.82512   0.65064   0.00000  Uiso   1.00
H260   H     0.13529   0.21642   0.86236   0.00000  Uiso   1.00
H261   H     0.22513   0.46705   0.60534   0.00000  Uiso   1.00
H262   H     0.21592   0.33664   0.51741   0.00000  Uiso   1.00
H263   H     0.19880   0.68045   0.59644   0.00000  Uiso   1.00
H264   H     0.27736   0.39179   0.69684   0.00000  Uiso   1.00
H265   H     0.17937   0.18000   0.42835   0.00000  Uiso   1.00
H266   H     0.14328   0.90496   0.59500   0.00000  Uiso   1.00
H267   H     0.30895   0.29625   0.80671   0.00000  Uiso   1.00
O268   O     0.08282   0.05264   0.39949   0.00000  Uiso   1.00
O269   O     0.03547   0.00375   0.61814   0.00000  Uiso   1.00
O270   O     0.25282   0.20515   0.89590   0.00000  Uiso   1.00
N271   N     0.04785   0.13684   0.48297   0.00000  Uiso   1.00
N272   N     0.01411   0.81462   0.63877   0.00000  Uiso   1.00
N273   N     0.16899   0.24557   0.83671   0.00000  Uiso   1.00
N274   N     0.14130   0.17979   0.45303   0.00000  Uiso   1.00
N275   N     0.10755   0.85758   0.60883   0.00000  Uiso   1.00
N276   N     0.26244   0.28852   0.80677   0.00000  Uiso   1.00
C277   C     0.07324   0.93392   0.85619   0.00000  Uiso   1.00
C278   C     0.09548   0.99614   0.90904   0.00000  Uiso   1.00
C279   C     0.06040   0.07059   0.94135   0.00000  Uiso   1.00
C280   C     0.08920   0.11880   0.98812   0.00000  Uiso   1.00
C281   C     0.11435   0.21924   0.06808   0.00000  Uiso   1.00
C282   C     0.08336   0.80829   0.86787   0.00000  Uiso   1.00
C283   C     0.03808   0.72479   0.86557   0.00000  Uiso   1.00
C284   C     0.05668   0.61487   0.87768   0.00000  Uiso   1.00
C285   C     0.06301   0.42365   0.89369   0.00000  Uiso   1.00
C286   C     0.11868   0.96527   0.80920   0.00000  Uiso   1.00
C287   C     0.10311   0.01375   0.75756   0.00000  Uiso   1.00
C288   C     0.15145   0.03598   0.72026   0.00000  Uiso   1.00
C289   C     0.21263   0.08850   0.64517   0.00000  Uiso   1.00
C290   C     0.18677   0.88716   0.88177   0.00000  Uiso   1.00
C291   C     0.15715   0.97074   0.92293   0.00000  Uiso   1.00
C292   C     0.18601   0.01886   0.96966   0.00000  Uiso   1.00
C293   C     0.15098   0.09337   0.00204   0.00000  Uiso   1.00
C294   C     0.14502   0.78289   0.88177   0.00000  Uiso   1.00
C295   C     0.16369   0.67307   0.89388   0.00000  Uiso   1.00
C296   C     0.11846   0.58943   0.89160   0.00000  Uiso   1.00
C297   C     0.18035   0.93988   0.82310   0.00000  Uiso   1.00
C298   C     0.22872   0.96203   0.78587   0.00000  Uiso   1.00
C299   C     0.21323   0.01054   0.73418   0.00000  Uiso   1.00
H300   H     0.02523   0.95368   0.84537   0.00000  Uiso   1.00
H301   H     0.01268   0.09021   0.93059   0.00000  Uiso   1.00
H302   H     0.99037   0.74447   0.85481   0.00000  Uiso   1.00
H303   H     0.05539   0.03339   0.74682   0.00000  Uiso   1.00
H304   H     0.02595   0.23035   0.03121   0.00000  Uiso   1.00
H305   H     0.97891   0.50133   0.87141   0.00000  Uiso   1.00
H306   H     0.11602   0.11057   0.64368   0.00000  Uiso   1.00
H307   H     0.23478   0.86739   0.89259   0.00000  Uiso   1.00
H308   H     0.23373   0.99919   0.98040   0.00000  Uiso   1.00
H309   H     0.21142   0.65345   0.90463   0.00000  Uiso   1.00
H310   H     0.27644   0.94237   0.79663   0.00000  Uiso   1.00
H311   H     0.20536   0.15647   0.07164   0.00000  Uiso   1.00
H312   H     0.15832   0.42745   0.91184   0.00000  Uiso   1.00
H313   H     0.29543   0.03669   0.68412   0.00000  Uiso   1.00
O314   O     0.11118   0.28164   0.10835   0.00000  Uiso   1.00
O315   O     0.04946   0.32520   0.89869   0.00000  Uiso   1.00
O316   O     0.22935   0.12451   0.59992   0.00000  Uiso   1.00
N317   N     0.06832   0.19489   0.02867   0.00000  Uiso   1.00
N318   N     0.02434   0.51330   0.87928   0.00000  Uiso   1.00
N319   N     0.15252   0.08286   0.66636   0.00000  Uiso   1.00
N320   N     0.16486   0.15514   0.05042   0.00000  Uiso   1.00
N321   N     0.12088   0.47355   0.90103   0.00000  Uiso   1.00
N322   N     0.24906   0.04311   0.68812   0.00000  Uiso   1.00
C323   C     0.93123   0.60484   0.15545   0.00000  Uiso   1.00
C324   C     0.91416   0.66555   0.10060   0.00000  Uiso   1.00
C325   C     0.95185   0.74051   0.07116   0.00000  Uiso   1.00
C326   C     0.92772   0.78712   0.02186   0.00000  Uiso   1.00
C327   C     0.91030   0.88551   0.93959   0.00000  Uiso   1.00
C328   C     0.92346   0.47874   0.14353   0.00000  Uiso   1.00
C329   C     0.96898   0.39664   0.15020   0.00000  Uiso   1.00
C330   C     0.95268   0.28600   0.13703   0.00000  Uiso   1.00
C331   C     0.94969   0.09436   0.12145   0.00000  Uiso   1.00
C332   C     0.88077   0.63559   0.19808   0.00000  Uiso   1.00
C333   C     0.89040   0.68534   0.25062   0.00000  Uiso   1.00
C334   C     0.83816   0.70673   0.28338   0.00000  Uiso   1.00
C335   C     0.76889   0.75863   0.35250   0.00000  Uiso   1.00
C336   C     0.82134   0.55432   0.12024   0.00000  Uiso   1.00
C337   C     0.85447   0.63810   0.08148   0.00000  Uiso   1.00
C338   C     0.83027   0.68462   0.03220   0.00000  Uiso   1.00
C339   C     0.86793   0.75963   0.00270   0.00000  Uiso   1.00
C340   C     0.86377   0.45130   0.12440   0.00000  Uiso   1.00
C341   C     0.84740   0.34075   0.11123   0.00000  Uiso   1.00
C342   C     0.89288   0.25850   0.11787   0.00000  Uiso   1.00
C343   C     0.82109   0.60815   0.17895   0.00000  Uiso   1.00
C344   C     0.76882   0.62946   0.21165   0.00000  Uiso   1.00
C345   C     0.77837   0.67924   0.26422   0.00000  Uiso   1.00
H346   H     0.97770   0.62619   0.17034   0.00000  Uiso   1.00
H347   H     0.99805   0.76171   0.08598   0.00000  Uiso   1.00
H348   H     0.01516   0.41790   0.16500   0.00000  Uiso   1.00
H349   H     0.93660   0.70656   0.26540   0.00000  Uiso   1.00
H350   H     0.99429   0.89983   0.98400   0.00000  Uiso   1.00
H351   H     0.03038   0.17488   0.15064   0.00000  Uiso   1.00
H352   H     0.86471   0.78358   0.36236   0.00000  Uiso   1.00
H353   H     0.77487   0.53295   0.10534   0.00000  Uiso   1.00
H354   H     0.78408   0.66336   0.01741   0.00000  Uiso   1.00
H355   H     0.80120   0.31955   0.09644   0.00000  Uiso   1.00
H356   H     0.72264   0.60821   0.19684   0.00000  Uiso   1.00
H357   H     0.82063   0.82000   0.92835   0.00000  Uiso   1.00
H358   H     0.85672   0.09504   0.09500   0.00000  Uiso   1.00
H359   H     0.69105   0.70375   0.30671   0.00000  Uiso   1.00
O360   O     0.91718   0.94736   0.89949   0.00000  Uiso   1.00
O361   O     0.96453   0.99625   0.11814   0.00000  Uiso   1.00
O362   O     0.74718   0.79485   0.39590   0.00000  Uiso   1.00
N363   N     0.95215   0.86316   0.98297   0.00000  Uiso   1.00
N364   N     0.98589   0.18538   0.13877   0.00000  Uiso   1.00
N365   N     0.83101   0.75443   0.33671   0.00000  Uiso   1.00
N366   N     0.85870   0.82021   0.95303   0.00000  Uiso   1.00
N367   N     0.89245   0.14242   0.10883   0.00000  Uiso   1.00
N368   N     0.73756   0.71148   0.30677   0.00000  Uiso   1.00
