data_job_01360
_audit_creation_date              2018-12-19
_audit_creation_method            'Materials Studio'
_symmetry_space_group_name_H-M    'P1'
_symmetry_Int_Tables_number       1
_symmetry_cell_setting            triclinic
loop_
_symmetry_equiv_pos_as_xyz
  x,y,z
_cell_length_a                    21.4126
_cell_length_b                    12.2857
_cell_length_c                    14.3438
_cell_angle_alpha                 90.0000
_cell_angle_beta                  142.7675
_cell_angle_gamma                 90.0000
loop_
_atom_site_label
_atom_site_type_symbol
_atom_site_fract_x
_atom_site_fract_y
_atom_site_fract_z
_atom_site_U_iso_or_equiv
_atom_site_adp_type
_atom_site_occupancy
C1     C     0.82257   0.74342   0.91458   0.00000  Uiso   1.00
C2     C     0.88378   0.76742   0.07579   0.00000  Uiso   1.00
C3     C     0.98999   0.75821   0.21181   0.00000  Uiso   1.00
C4     C     0.03126   0.78391   0.34743   0.00000  Uiso   1.00
C5     C     0.13585   0.81601   0.59783   0.00000  Uiso   1.00
C6     C     0.74225   0.65833   0.84612   0.00000  Uiso   1.00
C7     C     0.72945   0.55740   0.78902   0.00000  Uiso   1.00
C8     C     0.65157   0.49128   0.73129   0.00000  Uiso   1.00
C9     C     0.53638   0.35405   0.62501   0.00000  Uiso   1.00
C10    C     0.76247   0.84700   0.82115   0.00000  Uiso   1.00
C11    C     0.76665   0.90468   0.74302   0.00000  Uiso   1.00
C12    C     0.70578   0.99739   0.66424   0.00000  Uiso   1.00
C13    C     0.62199   0.15309   0.51920   0.00000  Uiso   1.00
C14    C     0.70700   0.80546   0.91356   0.00000  Uiso   1.00
C15    C     0.82100   0.80112   0.07523   0.00000  Uiso   1.00
C16    C     0.86213   0.82685   0.21068   0.00000  Uiso   1.00
C17    C     0.96838   0.81767   0.34688   0.00000  Uiso   1.00
C18    C     0.67948   0.69203   0.84556   0.00000  Uiso   1.00
C19    C     0.60159   0.62605   0.78789   0.00000  Uiso   1.00
C20    C     0.58868   0.52504   0.73073   0.00000  Uiso   1.00
C21    C     0.69970   0.88070   0.82060   0.00000  Uiso   1.00
C22    C     0.63879   0.97333   0.74191   0.00000  Uiso   1.00
C23    C     0.64289   0.03115   0.66368   0.00000  Uiso   1.00
H24    H     0.87144   0.71717   0.91501   0.00000  Uiso   1.00
H25    H     0.03854   0.73211   0.21219   0.00000  Uiso   1.00
H26    H     0.77804   0.53135   0.78945   0.00000  Uiso   1.00
H27    H     0.81524   0.87858   0.74347   0.00000  Uiso   1.00
H28    H     0.19612   0.76350   0.54143   0.00000  Uiso   1.00
H29    H     0.64681   0.34020   0.65001   0.00000  Uiso   1.00
H30    H     0.72526   0.07239   0.55305   0.00000  Uiso   1.00
H31    H     0.65812   0.83169   0.91313   0.00000  Uiso   1.00
H32    H     0.81353   0.85292   0.21022   0.00000  Uiso   1.00
H33    H     0.55302   0.65215   0.78748   0.00000  Uiso   1.00
H34    H     0.59022   0.99938   0.74150   0.00000  Uiso   1.00
H35    H     0.01349   0.86155   0.53983   0.00000  Uiso   1.00
H36    H     0.46418   0.43824   0.64840   0.00000  Uiso   1.00
H37    H     0.54263   0.17044   0.55146   0.00000  Uiso   1.00
O38    O     0.21088   0.82439   0.73610   0.00000  Uiso   1.00
O39    O     0.49020   0.26904   0.56657   0.00000  Uiso   1.00
O40    O     0.59312   0.22966   0.43938   0.00000  Uiso   1.00
N41    N     0.13182   0.78368   0.50028   0.00000  Uiso   1.00
N42    N     0.61825   0.38791   0.66688   0.00000  Uiso   1.00
N43    N     0.69157   0.07244   0.57620   0.00000  Uiso   1.00
N44    N     0.03355   0.83644   0.49942   0.00000  Uiso   1.00
N45    N     0.51998   0.44067   0.66602   0.00000  Uiso   1.00
N46    N     0.59330   0.12520   0.57534   0.00000  Uiso   1.00
C47    C     0.17743   0.24342   0.58542   0.00000  Uiso   1.00
C48    C     0.11622   0.26742   0.42421   0.00000  Uiso   1.00
C49    C     0.01001   0.25821   0.28819   0.00000  Uiso   1.00
C50    C     0.96874   0.28391   0.15257   0.00000  Uiso   1.00
C51    C     0.86415   0.31601   0.90217   0.00000  Uiso   1.00
C52    C     0.25775   0.15833   0.65388   0.00000  Uiso   1.00
C53    C     0.27055   0.05740   0.71098   0.00000  Uiso   1.00
C54    C     0.34843   0.99128   0.76871   0.00000  Uiso   1.00
C55    C     0.46362   0.85405   0.87499   0.00000  Uiso   1.00
C56    C     0.23753   0.34700   0.67885   0.00000  Uiso   1.00
C57    C     0.23335   0.40468   0.75698   0.00000  Uiso   1.00
C58    C     0.29422   0.49739   0.83576   0.00000  Uiso   1.00
C59    C     0.37801   0.65309   0.98080   0.00000  Uiso   1.00
C60    C     0.29300   0.30546   0.58644   0.00000  Uiso   1.00
C61    C     0.17900   0.30112   0.42477   0.00000  Uiso   1.00
C62    C     0.13787   0.32685   0.28932   0.00000  Uiso   1.00
C63    C     0.03162   0.31767   0.15312   0.00000  Uiso   1.00
C64    C     0.32052   0.19203   0.65444   0.00000  Uiso   1.00
C65    C     0.39841   0.12605   0.71211   0.00000  Uiso   1.00
C66    C     0.41132   0.02504   0.76927   0.00000  Uiso   1.00
C67    C     0.30030   0.38070   0.67940   0.00000  Uiso   1.00
C68    C     0.36121   0.47333   0.75809   0.00000  Uiso   1.00
C69    C     0.35711   0.53115   0.83632   0.00000  Uiso   1.00
H70    H     0.12856   0.21717   0.58499   0.00000  Uiso   1.00
H71    H     0.96146   0.23211   0.28781   0.00000  Uiso   1.00
H72    H     0.22196   0.03135   0.71055   0.00000  Uiso   1.00
H73    H     0.18476   0.37858   0.75653   0.00000  Uiso   1.00
H74    H     0.80388   0.26350   0.95857   0.00000  Uiso   1.00
H75    H     0.35319   0.84020   0.84999   0.00000  Uiso   1.00
H76    H     0.27474   0.57239   0.94695   0.00000  Uiso   1.00
H77    H     0.34188   0.33169   0.58687   0.00000  Uiso   1.00
H78    H     0.18647   0.35292   0.28978   0.00000  Uiso   1.00
H79    H     0.44698   0.15215   0.71252   0.00000  Uiso   1.00
H80    H     0.40978   0.49938   0.75850   0.00000  Uiso   1.00
H81    H     0.98651   0.36155   0.96017   0.00000  Uiso   1.00
H82    H     0.53582   0.93824   0.85160   0.00000  Uiso   1.00
H83    H     0.45737   0.67044   0.94854   0.00000  Uiso   1.00
O84    O     0.78912   0.32439   0.76390   0.00000  Uiso   1.00
O85    O     0.50980   0.76904   0.93343   0.00000  Uiso   1.00
O86    O     0.40688   0.72966   0.06062   0.00000  Uiso   1.00
N87    N     0.86818   0.28368   0.99972   0.00000  Uiso   1.00
N88    N     0.38175   0.88791   0.83312   0.00000  Uiso   1.00
N89    N     0.30843   0.57244   0.92380   0.00000  Uiso   1.00
N90    N     0.96645   0.33644   0.00058   0.00000  Uiso   1.00
N91    N     0.48002   0.94067   0.83398   0.00000  Uiso   1.00
N92    N     0.40670   0.62520   0.92466   0.00000  Uiso   1.00
C93    C     0.17743   0.25658   0.08542   0.00000  Uiso   1.00
C94    C     0.11622   0.23258   0.92421   0.00000  Uiso   1.00
C95    C     0.01001   0.24179   0.78819   0.00000  Uiso   1.00
C96    C     0.96874   0.21609   0.65257   0.00000  Uiso   1.00
C97    C     0.86415   0.18399   0.40217   0.00000  Uiso   1.00
C98    C     0.25775   0.34167   0.15388   0.00000  Uiso   1.00
C99    C     0.27055   0.44260   0.21098   0.00000  Uiso   1.00
C100   C     0.34843   0.50872   0.26871   0.00000  Uiso   1.00
C101   C     0.46362   0.64595   0.37499   0.00000  Uiso   1.00
C102   C     0.23753   0.15300   0.17885   0.00000  Uiso   1.00
C103   C     0.23335   0.09532   0.25698   0.00000  Uiso   1.00
C104   C     0.29422   0.00261   0.33576   0.00000  Uiso   1.00
C105   C     0.37801   0.84691   0.48080   0.00000  Uiso   1.00
C106   C     0.29300   0.19454   0.08644   0.00000  Uiso   1.00
C107   C     0.17900   0.19888   0.92477   0.00000  Uiso   1.00
C108   C     0.13787   0.17315   0.78932   0.00000  Uiso   1.00
C109   C     0.03162   0.18233   0.65312   0.00000  Uiso   1.00
C110   C     0.32052   0.30797   0.15444   0.00000  Uiso   1.00
C111   C     0.39841   0.37395   0.21211   0.00000  Uiso   1.00
C112   C     0.41132   0.47496   0.26927   0.00000  Uiso   1.00
C113   C     0.30030   0.11930   0.17940   0.00000  Uiso   1.00
C114   C     0.36121   0.02667   0.25809   0.00000  Uiso   1.00
C115   C     0.35711   0.96885   0.33632   0.00000  Uiso   1.00
H116   H     0.12856   0.28283   0.08499   0.00000  Uiso   1.00
H117   H     0.96146   0.26789   0.78781   0.00000  Uiso   1.00
H118   H     0.22196   0.46865   0.21055   0.00000  Uiso   1.00
H119   H     0.18476   0.12142   0.25653   0.00000  Uiso   1.00
H120   H     0.80388   0.23650   0.45857   0.00000  Uiso   1.00
H121   H     0.35319   0.65980   0.34999   0.00000  Uiso   1.00
H122   H     0.27474   0.92761   0.44695   0.00000  Uiso   1.00
H123   H     0.34188   0.16831   0.08687   0.00000  Uiso   1.00
H124   H     0.18647   0.14708   0.78978   0.00000  Uiso   1.00
H125   H     0.44698   0.34785   0.21252   0.00000  Uiso   1.00
H126   H     0.40978   0.00062   0.25850   0.00000  Uiso   1.00
H127   H     0.98651   0.13845   0.46017   0.00000  Uiso   1.00
H128   H     0.53582   0.56176   0.35160   0.00000  Uiso   1.00
H129   H     0.45737   0.82956   0.44854   0.00000  Uiso   1.00
O130   O     0.78912   0.17561   0.26390   0.00000  Uiso   1.00
O131   O     0.50980   0.73096   0.43343   0.00000  Uiso   1.00
O132   O     0.40688   0.77034   0.56062   0.00000  Uiso   1.00
N133   N     0.86818   0.21632   0.49972   0.00000  Uiso   1.00
N134   N     0.38175   0.61209   0.33312   0.00000  Uiso   1.00
N135   N     0.30843   0.92756   0.42380   0.00000  Uiso   1.00
N136   N     0.96645   0.16356   0.50058   0.00000  Uiso   1.00
N137   N     0.48002   0.55933   0.33398   0.00000  Uiso   1.00
N138   N     0.40670   0.87480   0.42466   0.00000  Uiso   1.00
C139   C     0.82257   0.75658   0.41458   0.00000  Uiso   1.00
C140   C     0.88378   0.73258   0.57579   0.00000  Uiso   1.00
C141   C     0.98999   0.74179   0.71181   0.00000  Uiso   1.00
C142   C     0.03126   0.71609   0.84743   0.00000  Uiso   1.00
C143   C     0.13585   0.68399   0.09783   0.00000  Uiso   1.00
C144   C     0.74225   0.84167   0.34612   0.00000  Uiso   1.00
C145   C     0.72945   0.94260   0.28902   0.00000  Uiso   1.00
C146   C     0.65157   0.00872   0.23129   0.00000  Uiso   1.00
C147   C     0.53638   0.14595   0.12501   0.00000  Uiso   1.00
C148   C     0.76247   0.65300   0.32115   0.00000  Uiso   1.00
C149   C     0.76665   0.59532   0.24302   0.00000  Uiso   1.00
C150   C     0.70578   0.50261   0.16424   0.00000  Uiso   1.00
C151   C     0.62199   0.34691   0.01920   0.00000  Uiso   1.00
C152   C     0.70700   0.69454   0.41356   0.00000  Uiso   1.00
C153   C     0.82100   0.69888   0.57523   0.00000  Uiso   1.00
C154   C     0.86213   0.67315   0.71068   0.00000  Uiso   1.00
C155   C     0.96838   0.68233   0.84688   0.00000  Uiso   1.00
C156   C     0.67948   0.80797   0.34556   0.00000  Uiso   1.00
C157   C     0.60159   0.87395   0.28789   0.00000  Uiso   1.00
C158   C     0.58868   0.97496   0.23073   0.00000  Uiso   1.00
C159   C     0.69970   0.61930   0.32060   0.00000  Uiso   1.00
C160   C     0.63879   0.52667   0.24191   0.00000  Uiso   1.00
C161   C     0.64289   0.46885   0.16368   0.00000  Uiso   1.00
H162   H     0.87144   0.78283   0.41501   0.00000  Uiso   1.00
H163   H     0.03854   0.76789   0.71219   0.00000  Uiso   1.00
H164   H     0.77804   0.96865   0.28945   0.00000  Uiso   1.00
H165   H     0.81524   0.62142   0.24347   0.00000  Uiso   1.00
H166   H     0.19612   0.73650   0.04143   0.00000  Uiso   1.00
H167   H     0.64681   0.15980   0.15001   0.00000  Uiso   1.00
H168   H     0.72526   0.42761   0.05305   0.00000  Uiso   1.00
H169   H     0.65812   0.66831   0.41313   0.00000  Uiso   1.00
H170   H     0.81353   0.64708   0.71022   0.00000  Uiso   1.00
H171   H     0.55302   0.84785   0.28748   0.00000  Uiso   1.00
H172   H     0.59022   0.50062   0.24150   0.00000  Uiso   1.00
H173   H     0.01349   0.63845   0.03983   0.00000  Uiso   1.00
H174   H     0.46418   0.06176   0.14840   0.00000  Uiso   1.00
H175   H     0.54263   0.32956   0.05146   0.00000  Uiso   1.00
O176   O     0.21088   0.67561   0.23610   0.00000  Uiso   1.00
O177   O     0.49020   0.23096   0.06657   0.00000  Uiso   1.00
O178   O     0.59312   0.27034   0.93938   0.00000  Uiso   1.00
N179   N     0.13182   0.71632   0.00028   0.00000  Uiso   1.00
N180   N     0.61825   0.11209   0.16688   0.00000  Uiso   1.00
N181   N     0.69157   0.42756   0.07620   0.00000  Uiso   1.00
N182   N     0.03355   0.66356   0.99942   0.00000  Uiso   1.00
N183   N     0.51998   0.05933   0.16602   0.00000  Uiso   1.00
N184   N     0.59330   0.37480   0.07534   0.00000  Uiso   1.00
