data_job_04176
_audit_creation_date              2018-12-19
_audit_creation_method            'Materials Studio'
_symmetry_space_group_name_H-M    'P1'
_symmetry_Int_Tables_number       1
_symmetry_cell_setting            triclinic
loop_
_symmetry_equiv_pos_as_xyz
  x,y,z
_cell_length_a                    24.3124
_cell_length_b                    8.7341
_cell_length_c                    15.5089
_cell_angle_alpha                 90.0000
_cell_angle_beta                  97.5675
_cell_angle_gamma                 90.0000
loop_
_atom_site_label
_atom_site_type_symbol
_atom_site_fract_x
_atom_site_fract_y
_atom_site_fract_z
_atom_site_U_iso_or_equiv
_atom_site_adp_type
_atom_site_occupancy
C1     C     0.77390   0.63765   0.11701   0.00000  Uiso   1.00
C2     C     0.81562   0.76864   0.12077   0.00000  Uiso   1.00
C3     C     0.86083   0.77625   0.07485   0.00000  Uiso   1.00
C4     C     0.89406   0.90572   0.08723   0.00000  Uiso   1.00
C5     C     0.96062   0.09119   0.08455   0.00000  Uiso   1.00
C6     C     0.77443   0.58300   0.21050   0.00000  Uiso   1.00
C7     C     0.78499   0.43452   0.24001   0.00000  Uiso   1.00
C8     C     0.78353   0.40774   0.32792   0.00000  Uiso   1.00
C9     C     0.78610   0.30498   0.46452   0.00000  Uiso   1.00
C10    C     0.71702   0.70962   0.09080   0.00000  Uiso   1.00
C11    C     0.67930   0.66758   0.01968   0.00000  Uiso   1.00
C12    C     0.62950   0.74737   0.00682   0.00000  Uiso   1.00
C13    C     0.54292   0.84121   0.95757   0.00000  Uiso   1.00
C14    C     0.75253   0.85407   0.22067   0.00000  Uiso   1.00
C15    C     0.80401   0.88618   0.17708   0.00000  Uiso   1.00
C16    C     0.83718   0.01569   0.18953   0.00000  Uiso   1.00
C17    C     0.88243   0.02349   0.14363   0.00000  Uiso   1.00
C18    C     0.76282   0.70054   0.26680   0.00000  Uiso   1.00
C19    C     0.76134   0.67397   0.35469   0.00000  Uiso   1.00
C20    C     0.77190   0.52550   0.38433   0.00000  Uiso   1.00
C21    C     0.70540   0.82717   0.14710   0.00000  Uiso   1.00
C22    C     0.65565   0.90703   0.13436   0.00000  Uiso   1.00
C23    C     0.61786   0.86513   0.06323   0.00000  Uiso   1.00
H24    H     0.78294   0.54613   0.07318   0.00000  Uiso   1.00
H25    H     0.86981   0.68524   0.03129   0.00000  Uiso   1.00
H26    H     0.79397   0.34358   0.19642   0.00000  Uiso   1.00
H27    H     0.68830   0.57661   0.97612   0.00000  Uiso   1.00
H28    H     0.96100   0.89129   0.00970   0.00000  Uiso   1.00
H29    H     0.80108   0.17086   0.35788   0.00000  Uiso   1.00
H30    H     0.57824   0.66224   0.89334   0.00000  Uiso   1.00
H31    H     0.74349   0.94559   0.26451   0.00000  Uiso   1.00
H32    H     0.82819   0.10664   0.23311   0.00000  Uiso   1.00
H33    H     0.75235   0.76496   0.39824   0.00000  Uiso   1.00
H34    H     0.64668   0.99799   0.17795   0.00000  Uiso   1.00
H35    H     0.92722   0.23331   0.17351   0.00000  Uiso   1.00
H36    H     0.76730   0.51287   0.52169   0.00000  Uiso   1.00
H37    H     0.54446   0.00426   0.05715   0.00000  Uiso   1.00
O38    O     0.00055   0.16101   0.06752   0.00000  Uiso   1.00
O39    O     0.79073   0.21582   0.52432   0.00000  Uiso   1.00
O40    O     0.49838   0.86051   0.91485   0.00000  Uiso   1.00
N41    N     0.94142   0.94970   0.05255   0.00000  Uiso   1.00
N42    N     0.79191   0.27614   0.37808   0.00000  Uiso   1.00
N43    N     0.58357   0.73551   0.94378   0.00000  Uiso   1.00
N44    N     0.92324   0.13374   0.14069   0.00000  Uiso   1.00
N45    N     0.77374   0.46018   0.46622   0.00000  Uiso   1.00
N46    N     0.56540   0.91955   0.03193   0.00000  Uiso   1.00
C47    C     0.22610   0.13765   0.38299   0.00000  Uiso   1.00
C48    C     0.18438   0.26864   0.37923   0.00000  Uiso   1.00
C49    C     0.13917   0.27625   0.42515   0.00000  Uiso   1.00
C50    C     0.10594   0.40572   0.41277   0.00000  Uiso   1.00
C51    C     0.03938   0.59119   0.41545   0.00000  Uiso   1.00
C52    C     0.22557   0.08300   0.28950   0.00000  Uiso   1.00
C53    C     0.21501   0.93452   0.25999   0.00000  Uiso   1.00
C54    C     0.21647   0.90774   0.17208   0.00000  Uiso   1.00
C55    C     0.21390   0.80498   0.03548   0.00000  Uiso   1.00
C56    C     0.28298   0.20962   0.40920   0.00000  Uiso   1.00
C57    C     0.32070   0.16758   0.48032   0.00000  Uiso   1.00
C58    C     0.37050   0.24737   0.49318   0.00000  Uiso   1.00
C59    C     0.45708   0.34121   0.54243   0.00000  Uiso   1.00
C60    C     0.24747   0.35407   0.27933   0.00000  Uiso   1.00
C61    C     0.19599   0.38618   0.32292   0.00000  Uiso   1.00
C62    C     0.16282   0.51569   0.31047   0.00000  Uiso   1.00
C63    C     0.11757   0.52349   0.35637   0.00000  Uiso   1.00
C64    C     0.23718   0.20054   0.23320   0.00000  Uiso   1.00
C65    C     0.23866   0.17397   0.14531   0.00000  Uiso   1.00
C66    C     0.22810   0.02550   0.11567   0.00000  Uiso   1.00
C67    C     0.29460   0.32717   0.35290   0.00000  Uiso   1.00
C68    C     0.34435   0.40703   0.36564   0.00000  Uiso   1.00
C69    C     0.38214   0.36513   0.43677   0.00000  Uiso   1.00
H70    H     0.21706   0.04613   0.42682   0.00000  Uiso   1.00
H71    H     0.13019   0.18524   0.46871   0.00000  Uiso   1.00
H72    H     0.20603   0.84358   0.30358   0.00000  Uiso   1.00
H73    H     0.31170   0.07661   0.52388   0.00000  Uiso   1.00
H74    H     0.03900   0.39129   0.49030   0.00000  Uiso   1.00
H75    H     0.19892   0.67086   0.14212   0.00000  Uiso   1.00
H76    H     0.42176   0.16224   0.60666   0.00000  Uiso   1.00
H77    H     0.25651   0.44559   0.23549   0.00000  Uiso   1.00
H78    H     0.17181   0.60664   0.26689   0.00000  Uiso   1.00
H79    H     0.24765   0.26496   0.10176   0.00000  Uiso   1.00
H80    H     0.35332   0.49799   0.32205   0.00000  Uiso   1.00
H81    H     0.07278   0.73331   0.32649   0.00000  Uiso   1.00
H82    H     0.23270   0.01287   0.97831   0.00000  Uiso   1.00
H83    H     0.45554   0.50426   0.44285   0.00000  Uiso   1.00
O84    O     0.99945   0.66101   0.43248   0.00000  Uiso   1.00
O85    O     0.20927   0.71582   0.97568   0.00000  Uiso   1.00
O86    O     0.50162   0.36051   0.58515   0.00000  Uiso   1.00
N87    N     0.05858   0.44970   0.44745   0.00000  Uiso   1.00
N88    N     0.20809   0.77614   0.12192   0.00000  Uiso   1.00
N89    N     0.41643   0.23551   0.55622   0.00000  Uiso   1.00
N90    N     0.07676   0.63374   0.35931   0.00000  Uiso   1.00
N91    N     0.22626   0.96018   0.03378   0.00000  Uiso   1.00
N92    N     0.43460   0.41955   0.46807   0.00000  Uiso   1.00
C93    C     0.22610   0.36235   0.88299   0.00000  Uiso   1.00
C94    C     0.18438   0.23136   0.87923   0.00000  Uiso   1.00
C95    C     0.13917   0.22375   0.92515   0.00000  Uiso   1.00
C96    C     0.10594   0.09428   0.91277   0.00000  Uiso   1.00
C97    C     0.03938   0.90881   0.91545   0.00000  Uiso   1.00
C98    C     0.22557   0.41700   0.78950   0.00000  Uiso   1.00
C99    C     0.21501   0.56548   0.75999   0.00000  Uiso   1.00
C100   C     0.21647   0.59226   0.67208   0.00000  Uiso   1.00
C101   C     0.21390   0.69502   0.53548   0.00000  Uiso   1.00
C102   C     0.28298   0.29038   0.90920   0.00000  Uiso   1.00
C103   C     0.32070   0.33242   0.98032   0.00000  Uiso   1.00
C104   C     0.37050   0.25263   0.99318   0.00000  Uiso   1.00
C105   C     0.45708   0.15879   0.04243   0.00000  Uiso   1.00
C106   C     0.24747   0.14593   0.77933   0.00000  Uiso   1.00
C107   C     0.19599   0.11382   0.82292   0.00000  Uiso   1.00
C108   C     0.16282   0.98431   0.81047   0.00000  Uiso   1.00
C109   C     0.11757   0.97651   0.85637   0.00000  Uiso   1.00
C110   C     0.23718   0.29946   0.73320   0.00000  Uiso   1.00
C111   C     0.23866   0.32603   0.64531   0.00000  Uiso   1.00
C112   C     0.22810   0.47450   0.61567   0.00000  Uiso   1.00
C113   C     0.29460   0.17283   0.85290   0.00000  Uiso   1.00
C114   C     0.34435   0.09297   0.86564   0.00000  Uiso   1.00
C115   C     0.38214   0.13487   0.93677   0.00000  Uiso   1.00
H116   H     0.21706   0.45387   0.92682   0.00000  Uiso   1.00
H117   H     0.13019   0.31476   0.96871   0.00000  Uiso   1.00
H118   H     0.20603   0.65642   0.80358   0.00000  Uiso   1.00
H119   H     0.31170   0.42339   0.02388   0.00000  Uiso   1.00
H120   H     0.03900   0.10871   0.99030   0.00000  Uiso   1.00
H121   H     0.19892   0.82914   0.64212   0.00000  Uiso   1.00
H122   H     0.42176   0.33776   0.10666   0.00000  Uiso   1.00
H123   H     0.25651   0.05441   0.73549   0.00000  Uiso   1.00
H124   H     0.17181   0.89336   0.76689   0.00000  Uiso   1.00
H125   H     0.24765   0.23504   0.60176   0.00000  Uiso   1.00
H126   H     0.35332   0.00201   0.82205   0.00000  Uiso   1.00
H127   H     0.07278   0.76669   0.82649   0.00000  Uiso   1.00
H128   H     0.23270   0.48713   0.47831   0.00000  Uiso   1.00
H129   H     0.45554   0.99574   0.94285   0.00000  Uiso   1.00
O130   O     0.99945   0.83899   0.93248   0.00000  Uiso   1.00
O131   O     0.20927   0.78418   0.47568   0.00000  Uiso   1.00
O132   O     0.50162   0.13949   0.08515   0.00000  Uiso   1.00
N133   N     0.05858   0.05030   0.94745   0.00000  Uiso   1.00
N134   N     0.20809   0.72386   0.62192   0.00000  Uiso   1.00
N135   N     0.41643   0.26449   0.05622   0.00000  Uiso   1.00
N136   N     0.07676   0.86626   0.85931   0.00000  Uiso   1.00
N137   N     0.22626   0.53982   0.53378   0.00000  Uiso   1.00
N138   N     0.43460   0.08045   0.96807   0.00000  Uiso   1.00
C139   C     0.77390   0.86235   0.61701   0.00000  Uiso   1.00
C140   C     0.81562   0.73136   0.62077   0.00000  Uiso   1.00
C141   C     0.86083   0.72375   0.57485   0.00000  Uiso   1.00
C142   C     0.89406   0.59428   0.58723   0.00000  Uiso   1.00
C143   C     0.96062   0.40881   0.58455   0.00000  Uiso   1.00
C144   C     0.77443   0.91700   0.71050   0.00000  Uiso   1.00
C145   C     0.78499   0.06548   0.74001   0.00000  Uiso   1.00
C146   C     0.78353   0.09226   0.82792   0.00000  Uiso   1.00
C147   C     0.78610   0.19502   0.96452   0.00000  Uiso   1.00
C148   C     0.71702   0.79038   0.59080   0.00000  Uiso   1.00
C149   C     0.67930   0.83242   0.51968   0.00000  Uiso   1.00
C150   C     0.62950   0.75263   0.50682   0.00000  Uiso   1.00
C151   C     0.54292   0.65879   0.45757   0.00000  Uiso   1.00
C152   C     0.75253   0.64593   0.72067   0.00000  Uiso   1.00
C153   C     0.80401   0.61382   0.67708   0.00000  Uiso   1.00
C154   C     0.83718   0.48431   0.68953   0.00000  Uiso   1.00
C155   C     0.88243   0.47651   0.64363   0.00000  Uiso   1.00
C156   C     0.76282   0.79946   0.76680   0.00000  Uiso   1.00
C157   C     0.76134   0.82603   0.85469   0.00000  Uiso   1.00
C158   C     0.77190   0.97450   0.88433   0.00000  Uiso   1.00
C159   C     0.70540   0.67283   0.64710   0.00000  Uiso   1.00
C160   C     0.65565   0.59297   0.63436   0.00000  Uiso   1.00
C161   C     0.61786   0.63487   0.56323   0.00000  Uiso   1.00
H162   H     0.78294   0.95387   0.57318   0.00000  Uiso   1.00
H163   H     0.86981   0.81476   0.53129   0.00000  Uiso   1.00
H164   H     0.79397   0.15642   0.69642   0.00000  Uiso   1.00
H165   H     0.68830   0.92339   0.47612   0.00000  Uiso   1.00
H166   H     0.96100   0.60871   0.50970   0.00000  Uiso   1.00
H167   H     0.80108   0.32914   0.85788   0.00000  Uiso   1.00
H168   H     0.57824   0.83776   0.39334   0.00000  Uiso   1.00
H169   H     0.74349   0.55441   0.76451   0.00000  Uiso   1.00
H170   H     0.82819   0.39336   0.73311   0.00000  Uiso   1.00
H171   H     0.75235   0.73504   0.89824   0.00000  Uiso   1.00
H172   H     0.64668   0.50201   0.67795   0.00000  Uiso   1.00
H173   H     0.92722   0.26669   0.67351   0.00000  Uiso   1.00
H174   H     0.76730   0.98713   0.02169   0.00000  Uiso   1.00
H175   H     0.54446   0.49574   0.55715   0.00000  Uiso   1.00
O176   O     0.00055   0.33899   0.56752   0.00000  Uiso   1.00
O177   O     0.79073   0.28418   0.02432   0.00000  Uiso   1.00
O178   O     0.49838   0.63949   0.41485   0.00000  Uiso   1.00
N179   N     0.94142   0.55030   0.55255   0.00000  Uiso   1.00
N180   N     0.79191   0.22386   0.87808   0.00000  Uiso   1.00
N181   N     0.58357   0.76449   0.44378   0.00000  Uiso   1.00
N182   N     0.92324   0.36626   0.64069   0.00000  Uiso   1.00
N183   N     0.77374   0.03982   0.96622   0.00000  Uiso   1.00
N184   N     0.56540   0.58045   0.53193   0.00000  Uiso   1.00
