data_job_06601
_audit_creation_date              2018-12-19
_audit_creation_method            'Materials Studio'
_symmetry_space_group_name_H-M    'P1'
_symmetry_Int_Tables_number       1
_symmetry_cell_setting            triclinic
loop_
_symmetry_equiv_pos_as_xyz
  x,y,z
_cell_length_a                    19.4010
_cell_length_b                    21.4582
_cell_length_c                    20.5984
_cell_angle_alpha                 66.4872
_cell_angle_beta                  76.6434
_cell_angle_gamma                 71.8964
loop_
_atom_site_label
_atom_site_type_symbol
_atom_site_fract_x
_atom_site_fract_y
_atom_site_fract_z
_atom_site_U_iso_or_equiv
_atom_site_adp_type
_atom_site_occupancy
C1     C     0.24775   0.50502   0.20745   0.00000  Uiso   1.00
C2     C     0.29630   0.49246   0.26226   0.00000  Uiso   1.00
C3     C     0.36093   0.44103   0.27620   0.00000  Uiso   1.00
C4     C     0.39733   0.43812   0.32837   0.00000  Uiso   1.00
C5     C     0.47686   0.41148   0.40789   0.00000  Uiso   1.00
C6     C     0.17214   0.50042   0.24843   0.00000  Uiso   1.00
C7     C     0.13237   0.45569   0.25074   0.00000  Uiso   1.00
C8     C     0.06425   0.45949   0.29127   0.00000  Uiso   1.00
C9     C     0.95099   0.44524   0.34928   0.00000  Uiso   1.00
C10    C     0.24036   0.58129   0.15818   0.00000  Uiso   1.00
C11    C     0.25792   0.60455   0.08460   0.00000  Uiso   1.00
C12    C     0.24723   0.67643   0.04914   0.00000  Uiso   1.00
C13    C     0.23988   0.78774   0.96702   0.00000  Uiso   1.00
C14    C     0.19749   0.59131   0.27532   0.00000  Uiso   1.00
C15    C     0.26900   0.53933   0.29913   0.00000  Uiso   1.00
C16    C     0.30532   0.53650   0.35129   0.00000  Uiso   1.00
C17    C     0.36999   0.48508   0.36530   0.00000  Uiso   1.00
C18    C     0.14484   0.54729   0.28530   0.00000  Uiso   1.00
C19    C     0.07676   0.55116   0.32583   0.00000  Uiso   1.00
C20    C     0.03690   0.50644   0.32820   0.00000  Uiso   1.00
C21    C     0.21306   0.62816   0.19505   0.00000  Uiso   1.00
C22    C     0.20233   0.70002   0.15970   0.00000  Uiso   1.00
C23    C     0.21988   0.72339   0.08607   0.00000  Uiso   1.00
H24    H     0.26900   0.46853   0.17875   0.00000  Uiso   1.00
H25    H     0.38203   0.40477   0.24766   0.00000  Uiso   1.00
H26    H     0.15350   0.41943   0.22220   0.00000  Uiso   1.00
H27    H     0.27905   0.56827   0.05609   0.00000  Uiso   1.00
H28    H     0.49529   0.35473   0.34033   0.00000  Uiso   1.00
H29    H     0.01343   0.38567   0.28662   0.00000  Uiso   1.00
H30    H     0.27816   0.69952   0.93635   0.00000  Uiso   1.00
H31    H     0.17623   0.62780   0.30403   0.00000  Uiso   1.00
H32    H     0.28418   0.57278   0.37981   0.00000  Uiso   1.00
H33    H     0.05565   0.58744   0.35435   0.00000  Uiso   1.00
H34    H     0.18120   0.73627   0.18824   0.00000  Uiso   1.00
H35    H     0.41588   0.49109   0.44760   0.00000  Uiso   1.00
H36    H     0.93400   0.52203   0.39388   0.00000  Uiso   1.00
H37    H     0.19874   0.83588   0.04361   0.00000  Uiso   1.00
O38    O     0.52826   0.38383   0.44157   0.00000  Uiso   1.00
O39    O     0.89606   0.42442   0.37109   0.00000  Uiso   1.00
O40    O     0.24338   0.83618   0.91155   0.00000  Uiso   1.00
N41    N     0.46180   0.39438   0.35517   0.00000  Uiso   1.00
N42    N     0.01128   0.42330   0.30496   0.00000  Uiso   1.00
N43    N     0.25877   0.71672   0.97748   0.00000  Uiso   1.00
N44    N     0.41906   0.46776   0.41288   0.00000  Uiso   1.00
N45    N     0.96855   0.49667   0.36268   0.00000  Uiso   1.00
N46    N     0.21603   0.79010   0.03520   0.00000  Uiso   1.00
C47    C     0.05951   0.29400   0.50684   0.00000  Uiso   1.00
C48    C     0.11029   0.32518   0.52465   0.00000  Uiso   1.00
C49    C     0.11926   0.39294   0.48987   0.00000  Uiso   1.00
C50    C     0.16834   0.41139   0.51419   0.00000  Uiso   1.00
C51    C     0.24134   0.46704   0.53314   0.00000  Uiso   1.00
C52    C     0.10756   0.22853   0.49230   0.00000  Uiso   1.00
C53    C     0.11423   0.21502   0.43032   0.00000  Uiso   1.00
C54    C     0.16102   0.15211   0.42741   0.00000  Uiso   1.00
C55    C     0.22974   0.05768   0.39616   0.00000  Uiso   1.00
C56    C     0.00948   0.26819   0.57553   0.00000  Uiso   1.00
C57    C     0.93368   0.28800   0.58354   0.00000  Uiso   1.00
C58    C     0.89789   0.25847   0.65071   0.00000  Uiso   1.00
C59    C     0.81432   0.22562   0.74869   0.00000  Uiso   1.00
C60    C     0.13073   0.20629   0.61186   0.00000  Uiso   1.00
C61    C     0.14898   0.27754   0.58170   0.00000  Uiso   1.00
C62    C     0.19806   0.29590   0.60607   0.00000  Uiso   1.00
C63    C     0.20710   0.36367   0.57134   0.00000  Uiso   1.00
C64    C     0.14625   0.18089   0.54934   0.00000  Uiso   1.00
C65    C     0.19303   0.11798   0.54652   0.00000  Uiso   1.00
C66    C     0.19977   0.10439   0.48456   0.00000  Uiso   1.00
C67    C     0.04817   0.22055   0.63258   0.00000  Uiso   1.00
C68    C     0.01248   0.19097   0.69974   0.00000  Uiso   1.00
C69    C     0.93664   0.21074   0.70785   0.00000  Uiso   1.00
H70    H     0.02939   0.33109   0.46243   0.00000  Uiso   1.00
H71    H     0.08932   0.42979   0.44572   0.00000  Uiso   1.00
H72    H     0.08428   0.25189   0.38619   0.00000  Uiso   1.00
H73    H     0.90376   0.32487   0.53939   0.00000  Uiso   1.00
H74    H     0.17283   0.51820   0.45235   0.00000  Uiso   1.00
H75    H     0.16220   0.14309   0.32682   0.00000  Uiso   1.00
H76    H     0.78154   0.29697   0.64987   0.00000  Uiso   1.00
H77    H     0.16085   0.16920   0.65628   0.00000  Uiso   1.00
H78    H     0.22799   0.25902   0.65022   0.00000  Uiso   1.00
H79    H     0.22295   0.08113   0.59068   0.00000  Uiso   1.00
H80    H     0.04244   0.15411   0.74387   0.00000  Uiso   1.00
H81    H     0.28539   0.37960   0.61832   0.00000  Uiso   1.00
H82    H     0.27475   0.00449   0.49279   0.00000  Uiso   1.00
H83    H     0.89409   0.15838   0.81584   0.00000  Uiso   1.00
O84    O     0.27092   0.51089   0.52783   0.00000  Uiso   1.00
O85    O     0.25696   0.01877   0.36316   0.00000  Uiso   1.00
O86    O     0.75754   0.22066   0.78698   0.00000  Uiso   1.00
N87    N     0.19010   0.47325   0.49225   0.00000  Uiso   1.00
N88    N     0.18017   0.12256   0.37489   0.00000  Uiso   1.00
N89    N     0.82428   0.26641   0.67690   0.00000  Uiso   1.00
N90    N     0.25066   0.39868   0.58156   0.00000  Uiso   1.00
N91    N     0.24073   0.04798   0.46420   0.00000  Uiso   1.00
N92    N     0.88484   0.19184   0.76621   0.00000  Uiso   1.00
C93    C     0.34912   0.20504   0.26273   0.00000  Uiso   1.00
C94    C     0.37505   0.21453   0.32191   0.00000  Uiso   1.00
C95    C     0.33537   0.21287   0.38768   0.00000  Uiso   1.00
C96    C     0.36871   0.22269   0.43449   0.00000  Uiso   1.00
C97    C     0.39823   0.23578   0.52916   0.00000  Uiso   1.00
C98    C     0.35495   0.27026   0.19684   0.00000  Uiso   1.00
C99    C     0.29836   0.31545   0.15744   0.00000  Uiso   1.00
C100   C     0.31479   0.37217   0.09897   0.00000  Uiso   1.00
C101   C     0.31311   0.47176   0.99943   0.00000  Uiso   1.00
C102   C     0.40631   0.14429   0.24627   0.00000  Uiso   1.00
C103   C     0.39292   0.08358   0.24842   0.00000  Uiso   1.00
C104   C     0.45260   0.03424   0.23155   0.00000  Uiso   1.00
C105   C     0.53068   0.93824   0.20876   0.00000  Uiso   1.00
C106   C     0.47891   0.22541   0.22892   0.00000  Uiso   1.00
C107   C     0.44555   0.22560   0.30354   0.00000  Uiso   1.00
C108   C     0.47896   0.23541   0.35027   0.00000  Uiso   1.00
C109   C     0.43934   0.23377   0.41610   0.00000  Uiso   1.00
C110   C     0.42544   0.28133   0.17847   0.00000  Uiso   1.00
C111   C     0.44196   0.33799   0.12004   0.00000  Uiso   1.00
C112   C     0.38541   0.38326   0.08057   0.00000  Uiso   1.00
C113   C     0.47681   0.15536   0.22791   0.00000  Uiso   1.00
C114   C     0.53652   0.10611   0.21102   0.00000  Uiso   1.00
C115   C     0.52322   0.04533   0.21315   0.00000  Uiso   1.00
H116   H     0.29424   0.19643   0.27702   0.00000  Uiso   1.00
H117   H     0.28081   0.20432   0.40187   0.00000  Uiso   1.00
H118   H     0.24381   0.30688   0.17167   0.00000  Uiso   1.00
H119   H     0.33836   0.07503   0.26263   0.00000  Uiso   1.00
H120   H     0.29700   0.21797   0.53217   0.00000  Uiso   1.00
H121   H     0.21900   0.43420   0.04676   0.00000  Uiso   1.00
H122   H     0.41837   0.94532   0.23858   0.00000  Uiso   1.00
H123   H     0.53380   0.23402   0.21462   0.00000  Uiso   1.00
H124   H     0.53352   0.24397   0.33604   0.00000  Uiso   1.00
H125   H     0.49652   0.34653   0.10584   0.00000  Uiso   1.00
H126   H     0.59107   0.11469   0.19681   0.00000  Uiso   1.00
H127   H     0.50210   0.25015   0.47874   0.00000  Uiso   1.00
H128   H     0.42410   0.46639   0.99333   0.00000  Uiso   1.00
H129   H     0.62348   0.97751   0.18516   0.00000  Uiso   1.00
O130   O     0.39503   0.23995   0.58644   0.00000  Uiso   1.00
O131   O     0.29270   0.52363   0.94961   0.00000  Uiso   1.00
O132   O     0.55427   0.88223   0.20128   0.00000  Uiso   1.00
N133   N     0.34531   0.22416   0.50294   0.00000  Uiso   1.00
N134   N     0.27238   0.42634   0.04912   0.00000  Uiso   1.00
N135   N     0.45878   0.96928   0.22844   0.00000  Uiso   1.00
N136   N     0.45568   0.24148   0.47419   0.00000  Uiso   1.00
N137   N     0.38275   0.44366   0.02037   0.00000  Uiso   1.00
N138   N     0.56915   0.98660   0.19969   0.00000  Uiso   1.00
C139   C     0.59726   0.73189   0.99687   0.00000  Uiso   1.00
C140   C     0.65127   0.74713   0.02844   0.00000  Uiso   1.00
C141   C     0.72076   0.75522   0.99642   0.00000  Uiso   1.00
C142   C     0.76172   0.76895   0.03396   0.00000  Uiso   1.00
C143   C     0.84977   0.79182   0.07275   0.00000  Uiso   1.00
C144   C     0.52786   0.79039   0.99511   0.00000  Uiso   1.00
C145   C     0.49358   0.83483   0.93506   0.00000  Uiso   1.00
C146   C     0.43064   0.88497   0.94456   0.00000  Uiso   1.00
C147   C     0.32707   0.97495   0.93162   0.00000  Uiso   1.00
C148   C     0.57780   0.66502   0.05178   0.00000  Uiso   1.00
C149   C     0.58549   0.60406   0.03938   0.00000  Uiso   1.00
C150   C     0.56458   0.54865   0.09659   0.00000  Uiso   1.00
C151   C     0.53855   0.44399   0.17163   0.00000  Uiso   1.00
C152   C     0.54642   0.74189   0.12050   0.00000  Uiso   1.00
C153   C     0.62366   0.75257   0.09559   0.00000  Uiso   1.00
C154   C     0.66452   0.76628   0.13320   0.00000  Uiso   1.00
C155   C     0.73406   0.77439   0.10124   0.00000  Uiso   1.00
C156   C     0.50025   0.79582   0.06225   0.00000  Uiso   1.00
C157   C     0.43734   0.84589   0.07185   0.00000  Uiso   1.00
C158   C     0.40298   0.89041   0.01183   0.00000  Uiso   1.00
C159   C     0.55019   0.67045   0.11893   0.00000  Uiso   1.00
C160   C     0.52926   0.61512   0.17616   0.00000  Uiso   1.00
C161   C     0.53692   0.55409   0.16386   0.00000  Uiso   1.00
H162   H     0.61875   0.72767   0.94459   0.00000  Uiso   1.00
H163   H     0.74210   0.75102   0.94444   0.00000  Uiso   1.00
H164   H     0.51496   0.83061   0.88311   0.00000  Uiso   1.00
H165   H     0.60686   0.59988   0.98741   0.00000  Uiso   1.00
H166   H     0.86668   0.77933   0.97389   0.00000  Uiso   1.00
H167   H     0.38772   0.94714   0.84456   0.00000  Uiso   1.00
H168   H     0.58151   0.46060   0.06450   0.00000  Uiso   1.00
H169   H     0.52493   0.74612   0.17278   0.00000  Uiso   1.00
H170   H     0.64314   0.77048   0.18516   0.00000  Uiso   1.00
H171   H     0.41599   0.85008   0.12382   0.00000  Uiso   1.00
H172   H     0.50789   0.61934   0.22812   0.00000  Uiso   1.00
H173   H     0.78636   0.79513   0.16926   0.00000  Uiso   1.00
H174   H     0.30739   0.96294   0.03993   0.00000  Uiso   1.00
H175   H     0.50118   0.47639   0.25987   0.00000  Uiso   1.00
O176   O     0.90597   0.80295   0.07559   0.00000  Uiso   1.00
O177   O     0.27758   0.02310   0.90592   0.00000  Uiso   1.00
O178   O     0.53183   0.38476   0.19447   0.00000  Uiso   1.00
N179   N     0.83156   0.77969   0.01818   0.00000  Uiso   1.00
N180   N     0.38376   0.93659   0.89726   0.00000  Uiso   1.00
N181   N     0.56492   0.48172   0.10288   0.00000  Uiso   1.00
N182   N     0.78834   0.78819   0.12330   0.00000  Uiso   1.00
N183   N     0.34054   0.94509   0.00239   0.00000  Uiso   1.00
N184   N     0.52170   0.49022   0.20801   0.00000  Uiso   1.00
C185   C     0.55563   0.03827   0.81247   0.00000  Uiso   1.00
C186   C     0.59635   0.03188   0.87078   0.00000  Uiso   1.00
C187   C     0.59837   0.98034   0.93820   0.00000  Uiso   1.00
C188   C     0.63870   0.98361   0.98384   0.00000  Uiso   1.00
C189   C     0.69634   0.96561   0.07758   0.00000  Uiso   1.00
C190   C     0.61264   0.03823   0.74762   0.00000  Uiso   1.00
C191   C     0.62834   0.99203   0.71148   0.00000  Uiso   1.00
C192   C     0.68238   0.00064   0.65343   0.00000  Uiso   1.00
C193   C     0.76526   0.99253   0.55593   0.00000  Uiso   1.00
C194   C     0.50453   0.11149   0.79239   0.00000  Uiso   1.00
C195   C     0.42933   0.12689   0.79388   0.00000  Uiso   1.00
C196   C     0.39235   0.19719   0.77351   0.00000  Uiso   1.00
C197   C     0.30738   0.30283   0.74553   0.00000  Uiso   1.00
C198   C     0.62366   0.13572   0.77364   0.00000  Uiso   1.00
C199   C     0.63330   0.08481   0.84969   0.00000  Uiso   1.00
C200   C     0.67364   0.08816   0.89524   0.00000  Uiso   1.00
C201   C     0.67572   0.03663   0.96272   0.00000  Uiso   1.00
C202   C     0.64959   0.09116   0.72653   0.00000  Uiso   1.00
C203   C     0.70361   0.09985   0.66852   0.00000  Uiso   1.00
C204   C     0.71940   0.05367   0.63230   0.00000  Uiso   1.00
C205   C     0.54147   0.16442   0.77130   0.00000  Uiso   1.00
C206   C     0.50460   0.23471   0.75093   0.00000  Uiso   1.00
C207   C     0.42937   0.25022   0.75238   0.00000  Uiso   1.00
H208   H     0.52686   0.99706   0.82888   0.00000  Uiso   1.00
H209   H     0.56977   0.93938   0.95450   0.00000  Uiso   1.00
H210   H     0.59973   0.95107   0.72781   0.00000  Uiso   1.00
H211   H     0.40076   0.08592   0.81020   0.00000  Uiso   1.00
H212   H     0.63367   0.89876   0.08446   0.00000  Uiso   1.00
H213   H     0.69682   0.92343   0.60645   0.00000  Uiso   1.00
H214   H     0.27724   0.20777   0.78019   0.00000  Uiso   1.00
H215   H     0.65243   0.17694   0.75722   0.00000  Uiso   1.00
H216   H     0.70223   0.12913   0.87891   0.00000  Uiso   1.00
H217   H     0.73219   0.14082   0.65221   0.00000  Uiso   1.00
H218   H     0.53321   0.27566   0.73461   0.00000  Uiso   1.00
H219   H     0.74117   0.05276   0.02310   0.00000  Uiso   1.00
H220   H     0.80433   0.07743   0.54509   0.00000  Uiso   1.00
H221   H     0.38475   0.36177   0.71884   0.00000  Uiso   1.00
O222   O     0.71793   0.94105   0.13511   0.00000  Uiso   1.00
O223   O     0.80078   0.97343   0.50798   0.00000  Uiso   1.00
O224   O     0.25030   0.34647   0.73593   0.00000  Uiso   1.00
N225   N     0.65212   0.94158   0.05332   0.00000  Uiso   1.00
N226   N     0.71118   0.96463   0.60642   0.00000  Uiso   1.00
N227   N     0.31891   0.23047   0.76884   0.00000  Uiso   1.00
N228   N     0.70997   0.02444   0.02031   0.00000  Uiso   1.00
N229   N     0.76902   0.04750   0.57341   0.00000  Uiso   1.00
N230   N     0.37675   0.31334   0.73582   0.00000  Uiso   1.00
C231   C     0.86067   0.85030   0.70364   0.00000  Uiso   1.00
C232   C     0.87624   0.86632   0.76385   0.00000  Uiso   1.00
C233   C     0.84635   0.92845   0.77714   0.00000  Uiso   1.00
C234   C     0.86750   0.93281   0.83484   0.00000  Uiso   1.00
C235   C     0.88415   0.96616   0.92184   0.00000  Uiso   1.00
C236   C     0.83324   0.78359   0.73928   0.00000  Uiso   1.00
C237   C     0.76721   0.77617   0.73190   0.00000  Uiso   1.00
C238   C     0.75217   0.71089   0.76891   0.00000  Uiso   1.00
C239   C     0.70209   0.61579   0.81772   0.00000  Uiso   1.00
C240   C     0.93470   0.83058   0.66182   0.00000  Uiso   1.00
C241   C     0.95396   0.86264   0.58931   0.00000  Uiso   1.00
C242   C     0.02434   0.83690   0.56110   0.00000  Uiso   1.00
C243   C     0.13178   0.81475   0.48964   0.00000  Uiso   1.00
C244   C     0.95139   0.74756   0.78248   0.00000  Uiso   1.00
C245   C     0.92551   0.81052   0.80668   0.00000  Uiso   1.00
C246   C     0.94672   0.81478   0.86437   0.00000  Uiso   1.00
C247   C     0.91687   0.87691   0.87774   0.00000  Uiso   1.00
C248   C     0.88251   0.72779   0.78210   0.00000  Uiso   1.00
C249   C     0.86757   0.66250   0.81913   0.00000  Uiso   1.00
C250   C     0.80153   0.65498   0.81181   0.00000  Uiso   1.00
C251   C     0.98397   0.77477   0.70465   0.00000  Uiso   1.00
C252   C     0.05433   0.74898   0.67654   0.00000  Uiso   1.00
C253   C     0.07370   0.78100   0.60400   0.00000  Uiso   1.00
H254   H     0.82231   0.89374   0.67030   0.00000  Uiso   1.00
H255   H     0.80821   0.97162   0.74399   0.00000  Uiso   1.00
H256   H     0.72909   0.81936   0.69875   0.00000  Uiso   1.00
H257   H     0.91581   0.90582   0.55619   0.00000  Uiso   1.00
H258   H     0.81430   0.03334   0.84459   0.00000  Uiso   1.00
H259   H     0.64747   0.71229   0.74918   0.00000  Uiso   1.00
H260   H     0.04122   0.89461   0.44855   0.00000  Uiso   1.00
H261   H     0.98975   0.70411   0.81582   0.00000  Uiso   1.00
H262   H     0.98485   0.77159   0.89750   0.00000  Uiso   1.00
H263   H     0.90572   0.61933   0.85226   0.00000  Uiso   1.00
H264   H     0.09245   0.70579   0.70969   0.00000  Uiso   1.00
H265   H     0.95766   0.87099   0.96918   0.00000  Uiso   1.00
H266   H     0.79083   0.54994   0.87377   0.00000  Uiso   1.00
H267   H     0.18458   0.73226   0.57314   0.00000  Uiso   1.00
O268   O     0.87971   0.99997   0.95800   0.00000  Uiso   1.00
O269   O     0.66084   0.57876   0.83282   0.00000  Uiso   1.00
O270   O     0.17743   0.81796   0.43840   0.00000  Uiso   1.00
N271   N     0.84872   0.98588   0.86270   0.00000  Uiso   1.00
N272   N     0.69274   0.68572   0.77350   0.00000  Uiso   1.00
N273   N     0.06086   0.85616   0.49244   0.00000  Uiso   1.00
N274   N     0.92587   0.89852   0.92974   0.00000  Uiso   1.00
N275   N     0.76988   0.59836   0.84054   0.00000  Uiso   1.00
N276   N     0.13800   0.76880   0.55948   0.00000  Uiso   1.00
C277   C     0.58715   0.50995   0.73430   0.00000  Uiso   1.00
C278   C     0.51889   0.52607   0.70000   0.00000  Uiso   1.00
C279   C     0.46031   0.58421   0.69440   0.00000  Uiso   1.00
C280   C     0.40306   0.58943   0.66116   0.00000  Uiso   1.00
C281   C     0.29687   0.62226   0.61192   0.00000  Uiso   1.00
C282   C     0.65172   0.50186   0.67731   0.00000  Uiso   1.00
C283   C     0.70484   0.53965   0.65263   0.00000  Uiso   1.00
C284   C     0.75942   0.52448   0.60030   0.00000  Uiso   1.00
C285   C     0.85950   0.51970   0.51587   0.00000  Uiso   1.00
C286   C     0.59256   0.43741   0.79195   0.00000  Uiso   1.00
C287   C     0.59596   0.42099   0.86367   0.00000  Uiso   1.00
C288   C     0.60075   0.35156   0.90786   0.00000  Uiso   1.00
C289   C     0.60897   0.24670   0.00144   0.00000  Uiso   1.00
C290   C     0.58965   0.41582   0.68524   0.00000  Uiso   1.00
C291   C     0.52024   0.47495   0.67335   0.00000  Uiso   1.00
C292   C     0.46307   0.48008   0.64012   0.00000  Uiso   1.00
C293   C     0.40442   0.53822   0.63446   0.00000  Uiso   1.00
C294   C     0.65308   0.45074   0.65066   0.00000  Uiso   1.00
C295   C     0.70760   0.43551   0.59835   0.00000  Uiso   1.00
C296   C     0.76078   0.47327   0.57360   0.00000  Uiso   1.00
C297   C     0.59392   0.38629   0.76531   0.00000  Uiso   1.00
C298   C     0.59871   0.31686   0.80939   0.00000  Uiso   1.00
C299   C     0.60211   0.30035   0.88116   0.00000  Uiso   1.00
H300   H     0.58610   0.54975   0.75504   0.00000  Uiso   1.00
H301   H     0.45929   0.62377   0.71502   0.00000  Uiso   1.00
H302   H     0.70378   0.57920   0.67327   0.00000  Uiso   1.00
H303   H     0.59491   0.46057   0.88427   0.00000  Uiso   1.00
H304   H     0.31929   0.68330   0.65887   0.00000  Uiso   1.00
H305   H     0.83484   0.58931   0.57086   0.00000  Uiso   1.00
H306   H     0.60527   0.33916   0.01580   0.00000  Uiso   1.00
H307   H     0.59071   0.37602   0.66449   0.00000  Uiso   1.00
H308   H     0.46414   0.44051   0.61950   0.00000  Uiso   1.00
H309   H     0.70863   0.39595   0.57775   0.00000  Uiso   1.00
H310   H     0.59976   0.27732   0.78875   0.00000  Uiso   1.00
H311   H     0.32323   0.53456   0.58134   0.00000  Uiso   1.00
H312   H     0.83878   0.44058   0.49333   0.00000  Uiso   1.00
H313   H     0.60921   0.19042   0.93827   0.00000  Uiso   1.00
O314   O     0.23793   0.65450   0.59212   0.00000  Uiso   1.00
O315   O     0.91431   0.53119   0.47666   0.00000  Uiso   1.00
O316   O     0.61311   0.20299   0.06042   0.00000  Uiso   1.00
N317   N     0.33758   0.63944   0.64681   0.00000  Uiso   1.00
N318   N     0.81958   0.55158   0.56451   0.00000  Uiso   1.00
N319   N     0.60497   0.31770   0.98050   0.00000  Uiso   1.00
N320   N     0.33970   0.55940   0.60509   0.00000  Uiso   1.00
N321   N     0.82170   0.47154   0.52280   0.00000  Uiso   1.00
N322   N     0.60709   0.23766   0.93878   0.00000  Uiso   1.00
C323   C     0.68892   0.75444   0.47905   0.00000  Uiso   1.00
C324   C     0.63751   0.72548   0.45918   0.00000  Uiso   1.00
C325   C     0.61368   0.66531   0.50137   0.00000  Uiso   1.00
C326   C     0.56676   0.64765   0.47361   0.00000  Uiso   1.00
C327   C     0.49029   0.59645   0.45305   0.00000  Uiso   1.00
C328   C     0.64834   0.82944   0.47316   0.00000  Uiso   1.00
C329   C     0.63362   0.85669   0.52710   0.00000  Uiso   1.00
C330   C     0.59582   0.92655   0.51110   0.00000  Uiso   1.00
C331   C     0.53621   0.03676   0.51222   0.00000  Uiso   1.00
C332   C     0.75284   0.76024   0.41960   0.00000  Uiso   1.00
C333   C     0.82599   0.72931   0.42852   0.00000  Uiso   1.00
C334   C     0.87616   0.74091   0.36743   0.00000  Uiso   1.00
C335   C     0.97879   0.74367   0.28540   0.00000  Uiso   1.00
C336   C     0.64796   0.83006   0.35470   0.00000  Uiso   1.00
C337   C     0.61526   0.76656   0.39164   0.00000  Uiso   1.00
C338   C     0.56836   0.74898   0.36380   0.00000  Uiso   1.00
C339   C     0.54447   0.68879   0.40595   0.00000  Uiso   1.00
C340   C     0.62609   0.87052   0.40562   0.00000  Uiso   1.00
C341   C     0.58830   0.94035   0.38953   0.00000  Uiso   1.00
C342   C     0.57353   0.96769   0.44344   0.00000  Uiso   1.00
C343   C     0.73059   0.80131   0.35206   0.00000  Uiso   1.00
C344   C     0.78066   0.81297   0.29095   0.00000  Uiso   1.00
C345   C     0.85387   0.78206   0.29977   0.00000  Uiso   1.00
H346   H     0.70624   0.72247   0.53163   0.00000  Uiso   1.00
H347   H     0.63091   0.63355   0.55364   0.00000  Uiso   1.00
H348   H     0.65085   0.82489   0.57936   0.00000  Uiso   1.00
H349   H     0.84318   0.69753   0.48079   0.00000  Uiso   1.00
H350   H     0.53756   0.55308   0.54827   0.00000  Uiso   1.00
H351   H     0.57963   0.95655   0.60249   0.00000  Uiso   1.00
H352   H     0.98519   0.68798   0.39465   0.00000  Uiso   1.00
H353   H     0.63064   0.86204   0.30212   0.00000  Uiso   1.00
H354   H     0.55116   0.78077   0.31153   0.00000  Uiso   1.00
H355   H     0.57110   0.97212   0.33726   0.00000  Uiso   1.00
H356   H     0.76343   0.84475   0.23869   0.00000  Uiso   1.00
H357   H     0.47282   0.67258   0.35177   0.00000  Uiso   1.00
H358   H     0.51490   0.07605   0.40599   0.00000  Uiso   1.00
H359   H     0.92046   0.80748   0.19814   0.00000  Uiso   1.00
O360   O     0.45425   0.55686   0.46036   0.00000  Uiso   1.00
O361   O     0.50946   0.08620   0.53150   0.00000  Uiso   1.00
O362   O     0.04155   0.73384   0.25881   0.00000  Uiso   1.00
N363   N     0.53324   0.59235   0.50073   0.00000  Uiso   1.00
N364   N     0.57257   0.96957   0.55143   0.00000  Uiso   1.00
N365   N     0.95174   0.71849   0.35711   0.00000  Uiso   1.00
N366   N     0.49841   0.65665   0.39499   0.00000  Uiso   1.00
N367   N     0.53774   0.03387   0.44569   0.00000  Uiso   1.00
N368   N     0.91691   0.78279   0.25137   0.00000  Uiso   1.00
C369   C     0.42423   0.85611   0.66485   0.00000  Uiso   1.00
C370   C     0.39786   0.85680   0.60028   0.00000  Uiso   1.00
C371   C     0.43716   0.86664   0.53298   0.00000  Uiso   1.00
C372   C     0.40344   0.86547   0.48106   0.00000  Uiso   1.00
C373   C     0.37323   0.86812   0.37853   0.00000  Uiso   1.00
C374   C     0.41867   0.78603   0.72358   0.00000  Uiso   1.00
C375   C     0.47548   0.73639   0.75996   0.00000  Uiso   1.00
C376   C     0.45928   0.67565   0.81185   0.00000  Uiso   1.00
C377   C     0.46137   0.56845   0.90079   0.00000  Uiso   1.00
C378   C     0.36722   0.91207   0.68952   0.00000  Uiso   1.00
C379   C     0.38076   0.96839   0.69728   0.00000  Uiso   1.00
C380   C     0.32123   0.01376   0.72050   0.00000  Uiso   1.00
C381   C     0.24343   0.10226   0.75655   0.00000  Uiso   1.00
C382   C     0.29444   0.83652   0.69231   0.00000  Uiso   1.00
C383   C     0.32736   0.84615   0.61520   0.00000  Uiso   1.00
C384   C     0.29356   0.84497   0.56336   0.00000  Uiso   1.00
C385   C     0.33281   0.85481   0.49600   0.00000  Uiso   1.00
C386   C     0.34818   0.77539   0.73850   0.00000  Uiso   1.00
C387   C     0.33188   0.71471   0.79035   0.00000  Uiso   1.00
C388   C     0.38865   0.66498   0.82679   0.00000  Uiso   1.00
C389   C     0.29672   0.90143   0.70443   0.00000  Uiso   1.00
C390   C     0.23716   0.94672   0.72765   0.00000  Uiso   1.00
C391   C     0.25061   0.00310   0.73544   0.00000  Uiso   1.00
H392   H     0.47911   0.86439   0.65324   0.00000  Uiso   1.00
H393   H     0.49172   0.87487   0.52146   0.00000  Uiso   1.00
H394   H     0.53003   0.74464   0.74841   0.00000  Uiso   1.00
H395   H     0.43532   0.97661   0.68573   0.00000  Uiso   1.00
H396   H     0.47462   0.88177   0.38194   0.00000  Uiso   1.00
H397   H     0.55539   0.60718   0.86050   0.00000  Uiso   1.00
H398   H     0.35568   0.09633   0.72832   0.00000  Uiso   1.00
H399   H     0.23955   0.82823   0.70393   0.00000  Uiso   1.00
H400   H     0.23901   0.83673   0.57492   0.00000  Uiso   1.00
H401   H     0.27732   0.70650   0.80188   0.00000  Uiso   1.00
H402   H     0.18261   0.93847   0.73919   0.00000  Uiso   1.00
H403   H     0.26951   0.85081   0.42533   0.00000  Uiso   1.00
H404   H     0.35028   0.57622   0.90389   0.00000  Uiso   1.00
H405   H     0.15057   0.06537   0.77171   0.00000  Uiso   1.00
O406   O     0.37604   0.87251   0.31786   0.00000  Uiso   1.00
O407   O     0.48201   0.51226   0.94572   0.00000  Uiso   1.00
O408   O     0.21999   0.15402   0.77230   0.00000  Uiso   1.00
N409   N     0.42642   0.87333   0.40985   0.00000  Uiso   1.00
N410   N     0.50193   0.61660   0.85727   0.00000  Uiso   1.00
N411   N     0.31523   0.07391   0.73371   0.00000  Uiso   1.00
N412   N     0.31605   0.85668   0.43320   0.00000  Uiso   1.00
N413   N     0.39156   0.59994   0.88062   0.00000  Uiso   1.00
N414   N     0.20486   0.05725   0.75706   0.00000  Uiso   1.00
C415   C     0.01767   0.43149   0.84706   0.00000  Uiso   1.00
C416   C     0.94339   0.41438   0.87620   0.00000  Uiso   1.00
C417   C     0.89153   0.43947   0.92464   0.00000  Uiso   1.00
C418   C     0.82701   0.41765   0.94469   0.00000  Uiso   1.00
C419   C     0.71353   0.39794   0.99414   0.00000  Uiso   1.00
C420   C     0.07416   0.36125   0.86429   0.00000  Uiso   1.00
C421   C     0.13227   0.34166   0.90272   0.00000  Uiso   1.00
C422   C     0.17784   0.27512   0.91273   0.00000  Uiso   1.00
C423   C     0.26743   0.17294   0.94365   0.00000  Uiso   1.00
C424   C     0.02014   0.46172   0.76607   0.00000  Uiso   1.00
C425   C     0.03283   0.52661   0.72190   0.00000  Uiso   1.00
C426   C     0.03294   0.54465   0.64922   0.00000  Uiso   1.00
C427   C     0.03864   0.59847   0.52763   0.00000  Uiso   1.00
C428   C     0.99530   0.34814   0.79652   0.00000  Uiso   1.00
C429   C     0.93124   0.36911   0.84875   0.00000  Uiso   1.00
C430   C     0.86678   0.34725   0.86873   0.00000  Uiso   1.00
C431   C     0.81483   0.37230   0.91719   0.00000  Uiso   1.00
C432   C     0.06202   0.31597   0.83684   0.00000  Uiso   1.00
C433   C     0.10752   0.24945   0.84680   0.00000  Uiso   1.00
C434   C     0.16567   0.22977   0.88523   0.00000  Uiso   1.00
C435   C     0.00799   0.41645   0.73862   0.00000  Uiso   1.00
C436   C     0.00808   0.43439   0.66599   0.00000  Uiso   1.00
C437   C     0.02077   0.49930   0.62172   0.00000  Uiso   1.00
H438   H     0.02713   0.46673   0.86844   0.00000  Uiso   1.00
H439   H     0.90095   0.47450   0.94588   0.00000  Uiso   1.00
H440   H     0.14166   0.37671   0.92395   0.00000  Uiso   1.00
H441   H     0.04223   0.56163   0.74316   0.00000  Uiso   1.00
H442   H     0.75571   0.46312   0.01965   0.00000  Uiso   1.00
H443   H     0.26326   0.25694   0.97339   0.00000  Uiso   1.00
H444   H     0.05362   0.64688   0.59217   0.00000  Uiso   1.00
H445   H     0.98585   0.31289   0.77515   0.00000  Uiso   1.00
H446   H     0.85739   0.31221   0.84748   0.00000  Uiso   1.00
H447   H     0.09810   0.21443   0.82555   0.00000  Uiso   1.00
H448   H     0.99868   0.39934   0.64477   0.00000  Uiso   1.00
H449   H     0.72036   0.33140   0.93979   0.00000  Uiso   1.00
H450   H     0.22792   0.12523   0.89352   0.00000  Uiso   1.00
H451   H     0.01826   0.51516   0.51231   0.00000  Uiso   1.00
O452   O     0.65429   0.39957   0.02900   0.00000  Uiso   1.00
O453   O     0.32019   0.12909   0.96829   0.00000  Uiso   1.00
O454   O     0.04513   0.64067   0.46815   0.00000  Uiso   1.00
N455   N     0.76501   0.43222   0.99092   0.00000  Uiso   1.00
N456   N     0.23954   0.23946   0.94768   0.00000  Uiso   1.00
N457   N     0.04355   0.60400   0.59127   0.00000  Uiso   1.00
N458   N     0.74599   0.36135   0.94794   0.00000  Uiso   1.00
N459   N     0.22052   0.16858   0.90470   0.00000  Uiso   1.00
N460   N     0.02453   0.53313   0.54830   0.00000  Uiso   1.00
C461   C     0.12476   0.01448   0.20698   0.00000  Uiso   1.00
C462   C     0.08378   0.02624   0.14658   0.00000  Uiso   1.00
C463   C     0.08895   0.07606   0.07848   0.00000  Uiso   1.00
C464   C     0.04701   0.07848   0.03088   0.00000  Uiso   1.00
C465   C     0.99027   0.10372   0.93409   0.00000  Uiso   1.00
C466   C     0.06648   0.02179   0.26918   0.00000  Uiso   1.00
C467   C     0.05712   0.06786   0.30417   0.00000  Uiso   1.00
C468   C     0.00062   0.06652   0.35979   0.00000  Uiso   1.00
C469   C     0.91706   0.08482   0.45337   0.00000  Uiso   1.00
C470   C     0.16667   0.93765   0.23024   0.00000  Uiso   1.00
C471   C     0.24154   0.91298   0.23250   0.00000  Uiso   1.00
C472   C     0.26939   0.84081   0.25535   0.00000  Uiso   1.00
C473   C     0.34138   0.72848   0.28847   0.00000  Uiso   1.00
C474   C     0.04109   0.93018   0.24356   0.00000  Uiso   1.00
C475   C     0.03833   0.98044   0.16645   0.00000  Uiso   1.00
C476   C     0.99638   0.98278   0.11894   0.00000  Uiso   1.00
C477   C     0.00149   0.03260   0.05078   0.00000  Uiso   1.00
C478   C     0.02104   0.97600   0.28905   0.00000  Uiso   1.00
C479   C     0.96455   0.97459   0.34463   0.00000  Uiso   1.00
C480   C     0.95509   0.02065   0.37969   0.00000  Uiso   1.00
C481   C     0.12122   0.89186   0.25011   0.00000  Uiso   1.00
C482   C     0.14897   0.81971   0.27296   0.00000  Uiso   1.00
C483   C     0.22387   0.79494   0.27525   0.00000  Uiso   1.00
H484   H     0.16014   0.05013   0.19152   0.00000  Uiso   1.00
H485   H     0.12412   0.11149   0.06313   0.00000  Uiso   1.00
H486   H     0.09230   0.10329   0.28879   0.00000  Uiso   1.00
H487   H     0.27669   0.94844   0.21713   0.00000  Uiso   1.00
H488   H     0.06413   0.15934   0.92955   0.00000  Uiso   1.00
H489   H     0.99704   0.14203   0.40538   0.00000  Uiso   1.00
H490   H     0.38587   0.81549   0.25428   0.00000  Uiso   1.00
H491   H     0.00571   0.89452   0.25902   0.00000  Uiso   1.00
H492   H     0.96122   0.94734   0.13433   0.00000  Uiso   1.00
H493   H     0.92939   0.93914   0.35999   0.00000  Uiso   1.00
H494   H     0.11379   0.78429   0.28833   0.00000  Uiso   1.00
H495   H     0.93191   0.02611   0.98734   0.00000  Uiso   1.00
H496   H     0.86482   0.00880   0.46318   0.00000  Uiso   1.00
H497   H     0.25365   0.68226   0.31207   0.00000  Uiso   1.00
O498   O     0.97152   0.13030   0.87521   0.00000  Uiso   1.00
O499   O     0.88351   0.10757   0.49949   0.00000  Uiso   1.00
O500   O     0.39365   0.67917   0.30124   0.00000  Uiso   1.00
N501   N     0.03913   0.12073   0.96026   0.00000  Uiso   1.00
N502   N     0.97640   0.10455   0.40513   0.00000  Uiso   1.00
N503   N     0.33992   0.79926   0.26387   0.00000  Uiso   1.00
N504   N     0.96798   0.04904   0.99136   0.00000  Uiso   1.00
N505   N     0.90525   0.03286   0.43623   0.00000  Uiso   1.00
N506   N     0.26877   0.72758   0.29497   0.00000  Uiso   1.00
C507   C     0.87068   0.30378   0.22841   0.00000  Uiso   1.00
C508   C     0.83705   0.26783   0.19745   0.00000  Uiso   1.00
C509   C     0.87257   0.20832   0.18047   0.00000  Uiso   1.00
C510   C     0.83230   0.18355   0.15269   0.00000  Uiso   1.00
C511   C     0.79122   0.12264   0.10615   0.00000  Uiso   1.00
C512   C     0.86072   0.37960   0.17724   0.00000  Uiso   1.00
C513   C     0.91615   0.41406   0.14329   0.00000  Uiso   1.00
C514   C     0.89580   0.48337   0.09850   0.00000  Uiso   1.00
C515   C     0.89147   0.59599   0.02064   0.00000  Uiso   1.00
C516   C     0.82197   0.30631   0.29742   0.00000  Uiso   1.00
C517   C     0.84482   0.27916   0.36451   0.00000  Uiso   1.00
C518   C     0.79186   0.28678   0.42091   0.00000  Uiso   1.00
C519   C     0.72736   0.28560   0.52964   0.00000  Uiso   1.00
C520   C     0.73600   0.36562   0.20926   0.00000  Uiso   1.00
C521   C     0.76390   0.30143   0.18704   0.00000  Uiso   1.00
C522   C     0.72356   0.27674   0.15928   0.00000  Uiso   1.00
C523   C     0.75902   0.21720   0.14227   0.00000  Uiso   1.00
C524   C     0.78757   0.41319   0.16683   0.00000  Uiso   1.00
C525   C     0.76714   0.48247   0.12209   0.00000  Uiso   1.00
C526   C     0.82252   0.51702   0.08808   0.00000  Uiso   1.00
C527   C     0.74882   0.33989   0.28701   0.00000  Uiso   1.00
C528   C     0.69581   0.34757   0.34332   0.00000  Uiso   1.00
C529   C     0.71857   0.32043   0.41049   0.00000  Uiso   1.00
H530   H     0.92763   0.27764   0.23651   0.00000  Uiso   1.00
H531   H     0.92919   0.18235   0.18853   0.00000  Uiso   1.00
H532   H     0.97275   0.38805   0.15135   0.00000  Uiso   1.00
H533   H     0.90143   0.25317   0.37254   0.00000  Uiso   1.00
H534   H     0.89865   0.09153   0.13071   0.00000  Uiso   1.00
H535   H     0.99051   0.52527   0.05235   0.00000  Uiso   1.00
H536   H     0.84013   0.24084   0.51878   0.00000  Uiso   1.00
H537   H     0.67905   0.39178   0.20115   0.00000  Uiso   1.00
H538   H     0.66695   0.30274   0.15123   0.00000  Uiso   1.00
H539   H     0.71052   0.50845   0.11406   0.00000  Uiso   1.00
H540   H     0.63921   0.37356   0.33525   0.00000  Uiso   1.00
H541   H     0.68582   0.18925   0.10044   0.00000  Uiso   1.00
H542   H     0.77768   0.62299   0.02208   0.00000  Uiso   1.00
H543   H     0.62730   0.33856   0.48850   0.00000  Uiso   1.00
O544   O     0.78878   0.07977   0.08335   0.00000  Uiso   1.00
O545   O     0.90929   0.64883   0.98056   0.00000  Uiso   1.00
O546   O     0.71199   0.27567   0.59249   0.00000  Uiso   1.00
N547   N     0.85022   0.12673   0.13045   0.00000  Uiso   1.00
N548   N     0.93610   0.53225   0.05718   0.00000  Uiso   1.00
N549   N     0.79551   0.26636   0.49325   0.00000  Uiso   1.00
N550   N     0.73569   0.17932   0.11417   0.00000  Uiso   1.00
N551   N     0.82158   0.58484   0.04089   0.00000  Uiso   1.00
N552   N     0.68099   0.31894   0.47696   0.00000  Uiso   1.00
