data_job_06010
_audit_creation_date              2018-12-19
_audit_creation_method            'Materials Studio'
_symmetry_space_group_name_H-M    'P1'
_symmetry_Int_Tables_number       1
_symmetry_cell_setting            triclinic
loop_
_symmetry_equiv_pos_as_xyz
  x,y,z
_cell_length_a                    8.5190
_cell_length_b                    21.9931
_cell_length_c                    22.5496
_cell_angle_alpha                 118.2580
_cell_angle_beta                  80.5969
_cell_angle_gamma                 87.3421
loop_
_atom_site_label
_atom_site_type_symbol
_atom_site_fract_x
_atom_site_fract_y
_atom_site_fract_z
_atom_site_U_iso_or_equiv
_atom_site_adp_type
_atom_site_occupancy
C1     C     0.00922   0.99078   0.32502   0.00000  Uiso   1.00
C2     C     0.02657   0.03169   0.28600   0.00000  Uiso   1.00
C3     C     0.16966   0.03642   0.24993   0.00000  Uiso   1.00
C4     C     0.16017   0.07645   0.21770   0.00000  Uiso   1.00
C5     C     0.20953   0.13484   0.15658   0.00000  Uiso   1.00
C6     C     0.92492   0.04306   0.39875   0.00000  Uiso   1.00
C7     C     0.98254   0.05734   0.45748   0.00000  Uiso   1.00
C8     C     0.88747   0.10692   0.52017   0.00000  Uiso   1.00
C9     C     0.77897   0.18291   0.63410   0.00000  Uiso   1.00
C10    C     0.89026   0.94052   0.29504   0.00000  Uiso   1.00
C11    C     0.91872   0.86859   0.26659   0.00000  Uiso   1.00
C12    C     0.79445   0.83184   0.24198   0.00000  Uiso   1.00
C13    C     0.63214   0.74863   0.19488   0.00000  Uiso   1.00
C14    C     0.73792   0.05344   0.33193   0.00000  Uiso   1.00
C15    C     0.87920   0.06574   0.28976   0.00000  Uiso   1.00
C16    C     0.86950   0.10576   0.25758   0.00000  Uiso   1.00
C17    C     0.01255   0.11055   0.22146   0.00000  Uiso   1.00
C18    C     0.77756   0.07710   0.40251   0.00000  Uiso   1.00
C19    C     0.68238   0.12667   0.46513   0.00000  Uiso   1.00
C20    C     0.73985   0.14102   0.52393   0.00000  Uiso   1.00
C21    C     0.74290   0.97456   0.29880   0.00000  Uiso   1.00
C22    C     0.61856   0.93792   0.27424   0.00000  Uiso   1.00
C23    C     0.64683   0.86594   0.24574   0.00000  Uiso   1.00
H24    H     0.12394   0.96428   0.32210   0.00000  Uiso   1.00
H25    H     0.28368   0.01008   0.24704   0.00000  Uiso   1.00
H26    H     0.09657   0.03098   0.45455   0.00000  Uiso   1.00
H27    H     0.03277   0.84226   0.26369   0.00000  Uiso   1.00
H28    H     0.39579   0.07589   0.16550   0.00000  Uiso   1.00
H29    H     0.00126   0.11995   0.60306   0.00000  Uiso   1.00
H30    H     0.86670   0.72199   0.20059   0.00000  Uiso   1.00
H31    H     0.62319   0.07995   0.33486   0.00000  Uiso   1.00
H32    H     0.75544   0.13210   0.26049   0.00000  Uiso   1.00
H33    H     0.56835   0.15300   0.46802   0.00000  Uiso   1.00
H34    H     0.50454   0.96428   0.27715   0.00000  Uiso   1.00
H35    H     0.96706   0.17493   0.17642   0.00000  Uiso   1.00
H36    H     0.57252   0.21898   0.61399   0.00000  Uiso   1.00
H37    H     0.43797   0.82103   0.21151   0.00000  Uiso   1.00
O38    O     0.27747   0.15765   0.12183   0.00000  Uiso   1.00
O39    O     0.75984   0.21543   0.69590   0.00000  Uiso   1.00
O40    O     0.58332   0.69333   0.16786   0.00000  Uiso   1.00
N41    N     0.27673   0.09203   0.17826   0.00000  Uiso   1.00
N42    N     0.90788   0.13323   0.58736   0.00000  Uiso   1.00
N43    N     0.78207   0.76118   0.21110   0.00000  Uiso   1.00
N44    N     0.04604   0.14532   0.18414   0.00000  Uiso   1.00
N45    N     0.67718   0.18652   0.59324   0.00000  Uiso   1.00
N46    N     0.55137   0.81447   0.21697   0.00000  Uiso   1.00
C47    C     0.32519   0.67669   0.66291   0.00000  Uiso   1.00
C48    C     0.29936   0.71552   0.74125   0.00000  Uiso   1.00
C49    C     0.40641   0.75441   0.77907   0.00000  Uiso   1.00
C50    C     0.36053   0.78591   0.85028   0.00000  Uiso   1.00
C51    C     0.34292   0.84726   0.96703   0.00000  Uiso   1.00
C52    C     0.30795   0.60095   0.64238   0.00000  Uiso   1.00
C53    C     0.42221   0.54351   0.59705   0.00000  Uiso   1.00
C54    C     0.38355   0.47857   0.58503   0.00000  Uiso   1.00
C55    C     0.37922   0.36205   0.54823   0.00000  Uiso   1.00
C56    C     0.18199   0.70456   0.64568   0.00000  Uiso   1.00
C57    C     0.19034   0.73421   0.60313   0.00000  Uiso   1.00
C58    C     0.04563   0.75649   0.59387   0.00000  Uiso   1.00
C59    C     0.84573   0.80083   0.56221   0.00000  Uiso   1.00
C60    C     0.05335   0.66349   0.72212   0.00000  Uiso   1.00
C61    C     0.15170   0.70835   0.77341   0.00000  Uiso   1.00
C62    C     0.10565   0.73981   0.84458   0.00000  Uiso   1.00
C63    C     0.21261   0.77874   0.88250   0.00000  Uiso   1.00
C64    C     0.16030   0.59378   0.67453   0.00000  Uiso   1.00
C65    C     0.12145   0.52891   0.66257   0.00000  Uiso   1.00
C66    C     0.23563   0.47139   0.61725   0.00000  Uiso   1.00
C67    C     0.03433   0.69739   0.67785   0.00000  Uiso   1.00
C68    C     0.88958   0.71962   0.66865   0.00000  Uiso   1.00
C69    C     0.89771   0.74931   0.62609   0.00000  Uiso   1.00
H70    H     0.44015   0.68227   0.63787   0.00000  Uiso   1.00
H71    H     0.52067   0.75994   0.75416   0.00000  Uiso   1.00
H72    H     0.53646   0.54907   0.57217   0.00000  Uiso   1.00
H73    H     0.30462   0.73975   0.57825   0.00000  Uiso   1.00
H74    H     0.54486   0.84286   0.89727   0.00000  Uiso   1.00
H75    H     0.57813   0.39825   0.51352   0.00000  Uiso   1.00
H76    H     0.08926   0.80033   0.52633   0.00000  Uiso   1.00
H77    H     0.93839   0.65791   0.74716   0.00000  Uiso   1.00
H78    H     0.99138   0.73425   0.86946   0.00000  Uiso   1.00
H79    H     0.00718   0.52338   0.68746   0.00000  Uiso   1.00
H80    H     0.77534   0.71406   0.69354   0.00000  Uiso   1.00
H81    H     0.11527   0.82201   0.99085   0.00000  Uiso   1.00
H82    H     0.14854   0.37739   0.60709   0.00000  Uiso   1.00
H83    H     0.65967   0.77947   0.61991   0.00000  Uiso   1.00
O84    O     0.37400   0.88308   0.02254   0.00000  Uiso   1.00
O85    O     0.41764   0.29975   0.51905   0.00000  Uiso   1.00
O86    O     0.77626   0.82728   0.53587   0.00000  Uiso   1.00
N87    N     0.43647   0.82749   0.90251   0.00000  Uiso   1.00
N88    N     0.46759   0.41180   0.54373   0.00000  Uiso   1.00
N89    N     0.01054   0.78770   0.55570   0.00000  Uiso   1.00
N90    N     0.20531   0.81627   0.95287   0.00000  Uiso   1.00
N91    N     0.23643   0.40058   0.59409   0.00000  Uiso   1.00
N92    N     0.77938   0.77648   0.60605   0.00000  Uiso   1.00
C93    C     0.99830   0.34178   0.01244   0.00000  Uiso   1.00
C94    C     0.04567   0.26280   0.97315   0.00000  Uiso   1.00
C95    C     0.18599   0.22699   0.97171   0.00000  Uiso   1.00
C96    C     0.20704   0.15477   0.93270   0.00000  Uiso   1.00
C97    C     0.29816   0.03749   0.87717   0.00000  Uiso   1.00
C98    C     0.96916   0.36262   0.95913   0.00000  Uiso   1.00
C99    C     0.04512   0.41074   0.94593   0.00000  Uiso   1.00
C100   C     0.00174   0.42255   0.89512   0.00000  Uiso   1.00
C101   C     0.97398   0.46027   0.81788   0.00000  Uiso   1.00
C102   C     0.83472   0.35566   0.05930   0.00000  Uiso   1.00
C103   C     0.79764   0.39793   0.13031   0.00000  Uiso   1.00
C104   C     0.64106   0.40390   0.16384   0.00000  Uiso   1.00
C105   C     0.40458   0.43081   0.24212   0.00000  Uiso   1.00
C106   C     0.78618   0.27722   0.94571   0.00000  Uiso   1.00
C107   C     0.93045   0.22774   0.93690   0.00000  Uiso   1.00
C108   C     0.95130   0.15556   0.89788   0.00000  Uiso   1.00
C109   C     0.09162   0.11964   0.89639   0.00000  Uiso   1.00
C110   C     0.85394   0.32756   0.92289   0.00000  Uiso   1.00
C111   C     0.81043   0.33931   0.87210   0.00000  Uiso   1.00
C112   C     0.88632   0.38743   0.85881   0.00000  Uiso   1.00
C113   C     0.71950   0.32059   0.02306   0.00000  Uiso   1.00
C114   C     0.56295   0.32650   0.05649   0.00000  Uiso   1.00
C115   C     0.52564   0.36878   0.12753   0.00000  Uiso   1.00
H116   H     0.08800   0.36908   0.04065   0.00000  Uiso   1.00
H117   H     0.27513   0.25414   0.99976   0.00000  Uiso   1.00
H118   H     0.13427   0.43787   0.97399   0.00000  Uiso   1.00
H119   H     0.88683   0.42506   0.15834   0.00000  Uiso   1.00
H120   H     0.43181   0.11125   0.93842   0.00000  Uiso   1.00
H121   H     0.13476   0.49867   0.88409   0.00000  Uiso   1.00
H122   H     0.61298   0.47167   0.27284   0.00000  Uiso   1.00
H123   H     0.69647   0.24992   0.91749   0.00000  Uiso   1.00
H124   H     0.86211   0.12844   0.86984   0.00000  Uiso   1.00
H125   H     0.72126   0.31217   0.84407   0.00000  Uiso   1.00
H126   H     0.47382   0.29936   0.02842   0.00000  Uiso   1.00
H127   H     0.09660   0.00923   0.83297   0.00000  Uiso   1.00
H128   H     0.79954   0.39665   0.77864   0.00000  Uiso   1.00
H129   H     0.27777   0.36964   0.16739   0.00000  Uiso   1.00
O130   O     0.38026   0.98248   0.85655   0.00000  Uiso   1.00
O131   O     0.99051   0.49076   0.78528   0.00000  Uiso   1.00
O132   O     0.30597   0.45533   0.29531   0.00000  Uiso   1.00
N133   N     0.33017   0.10391   0.92015   0.00000  Uiso   1.00
N134   N     0.05246   0.46611   0.86935   0.00000  Uiso   1.00
N135   N     0.56464   0.44088   0.23280   0.00000  Uiso   1.00
N136   N     0.14979   0.04901   0.86341   0.00000  Uiso   1.00
N137   N     0.87208   0.41122   0.81261   0.00000  Uiso   1.00
N138   N     0.38426   0.38598   0.17606   0.00000  Uiso   1.00
C139   C     0.99078   0.00922   0.67498   0.00000  Uiso   1.00
C140   C     0.97343   0.96831   0.71400   0.00000  Uiso   1.00
C141   C     0.83034   0.96358   0.75007   0.00000  Uiso   1.00
C142   C     0.83983   0.92355   0.78230   0.00000  Uiso   1.00
C143   C     0.79047   0.86516   0.84342   0.00000  Uiso   1.00
C144   C     0.07508   0.95694   0.60125   0.00000  Uiso   1.00
C145   C     0.01746   0.94267   0.54252   0.00000  Uiso   1.00
C146   C     0.11253   0.89308   0.47983   0.00000  Uiso   1.00
C147   C     0.22103   0.81709   0.36590   0.00000  Uiso   1.00
C148   C     0.10974   0.05948   0.70496   0.00000  Uiso   1.00
C149   C     0.08128   0.13142   0.73341   0.00000  Uiso   1.00
C150   C     0.20555   0.16816   0.75802   0.00000  Uiso   1.00
C151   C     0.36786   0.25137   0.80512   0.00000  Uiso   1.00
C152   C     0.26208   0.94656   0.66807   0.00000  Uiso   1.00
C153   C     0.12080   0.93426   0.71024   0.00000  Uiso   1.00
C154   C     0.13050   0.89424   0.74242   0.00000  Uiso   1.00
C155   C     0.98745   0.88945   0.77854   0.00000  Uiso   1.00
C156   C     0.22244   0.92290   0.59749   0.00000  Uiso   1.00
C157   C     0.31762   0.87333   0.53487   0.00000  Uiso   1.00
C158   C     0.26015   0.85898   0.47607   0.00000  Uiso   1.00
C159   C     0.25710   0.02544   0.70120   0.00000  Uiso   1.00
C160   C     0.38144   0.06208   0.72576   0.00000  Uiso   1.00
C161   C     0.35317   0.13406   0.75426   0.00000  Uiso   1.00
H162   H     0.87606   0.03572   0.67790   0.00000  Uiso   1.00
H163   H     0.71632   0.98992   0.75296   0.00000  Uiso   1.00
H164   H     0.90343   0.96902   0.54545   0.00000  Uiso   1.00
H165   H     0.96723   0.15774   0.73631   0.00000  Uiso   1.00
H166   H     0.60421   0.92411   0.83450   0.00000  Uiso   1.00
H167   H     0.99874   0.88005   0.39694   0.00000  Uiso   1.00
H168   H     0.13330   0.27801   0.79941   0.00000  Uiso   1.00
H169   H     0.37681   0.92005   0.66514   0.00000  Uiso   1.00
H170   H     0.24456   0.86790   0.73951   0.00000  Uiso   1.00
H171   H     0.43165   0.84700   0.53198   0.00000  Uiso   1.00
H172   H     0.49546   0.03572   0.72285   0.00000  Uiso   1.00
H173   H     0.03294   0.82507   0.82358   0.00000  Uiso   1.00
H174   H     0.42748   0.78102   0.38601   0.00000  Uiso   1.00
H175   H     0.56203   0.17897   0.78849   0.00000  Uiso   1.00
O176   O     0.72253   0.84235   0.87817   0.00000  Uiso   1.00
O177   O     0.24016   0.78457   0.30410   0.00000  Uiso   1.00
O178   O     0.41668   0.30667   0.83214   0.00000  Uiso   1.00
N179   N     0.72327   0.90797   0.82174   0.00000  Uiso   1.00
N180   N     0.09212   0.86677   0.41264   0.00000  Uiso   1.00
N181   N     0.21793   0.23882   0.78890   0.00000  Uiso   1.00
N182   N     0.95396   0.85468   0.81586   0.00000  Uiso   1.00
N183   N     0.32282   0.81348   0.40676   0.00000  Uiso   1.00
N184   N     0.44863   0.18553   0.78303   0.00000  Uiso   1.00
C185   C     0.67481   0.32331   0.33709   0.00000  Uiso   1.00
C186   C     0.70064   0.28448   0.25875   0.00000  Uiso   1.00
C187   C     0.59359   0.24559   0.22093   0.00000  Uiso   1.00
C188   C     0.63947   0.21409   0.14972   0.00000  Uiso   1.00
C189   C     0.65708   0.15274   0.03298   0.00000  Uiso   1.00
C190   C     0.69205   0.39905   0.35763   0.00000  Uiso   1.00
C191   C     0.57779   0.45649   0.40295   0.00000  Uiso   1.00
C192   C     0.61645   0.52143   0.41497   0.00000  Uiso   1.00
C193   C     0.62078   0.63795   0.45177   0.00000  Uiso   1.00
C194   C     0.81801   0.29544   0.35432   0.00000  Uiso   1.00
C195   C     0.80966   0.26579   0.39687   0.00000  Uiso   1.00
C196   C     0.95437   0.24351   0.40613   0.00000  Uiso   1.00
C197   C     0.15427   0.19917   0.43779   0.00000  Uiso   1.00
C198   C     0.94665   0.33651   0.27788   0.00000  Uiso   1.00
C199   C     0.84830   0.29165   0.22659   0.00000  Uiso   1.00
C200   C     0.89435   0.26019   0.15542   0.00000  Uiso   1.00
C201   C     0.78739   0.22126   0.11750   0.00000  Uiso   1.00
C202   C     0.83970   0.40622   0.32547   0.00000  Uiso   1.00
C203   C     0.87855   0.47109   0.33743   0.00000  Uiso   1.00
C204   C     0.76437   0.52861   0.38275   0.00000  Uiso   1.00
C205   C     0.96567   0.30261   0.32215   0.00000  Uiso   1.00
C206   C     0.11042   0.28038   0.33135   0.00000  Uiso   1.00
C207   C     0.10229   0.25069   0.37391   0.00000  Uiso   1.00
H208   H     0.55985   0.31773   0.36213   0.00000  Uiso   1.00
H209   H     0.47933   0.24006   0.24584   0.00000  Uiso   1.00
H210   H     0.46354   0.45093   0.42783   0.00000  Uiso   1.00
H211   H     0.69538   0.26025   0.42175   0.00000  Uiso   1.00
H212   H     0.45514   0.15714   0.10273   0.00000  Uiso   1.00
H213   H     0.42187   0.60175   0.48648   0.00000  Uiso   1.00
H214   H     0.91074   0.19967   0.47367   0.00000  Uiso   1.00
H215   H     0.06161   0.34209   0.25284   0.00000  Uiso   1.00
H216   H     0.00862   0.26575   0.13054   0.00000  Uiso   1.00
H217   H     0.99282   0.47662   0.31254   0.00000  Uiso   1.00
H218   H     0.22466   0.28594   0.30646   0.00000  Uiso   1.00
H219   H     0.88473   0.17799   0.00915   0.00000  Uiso   1.00
H220   H     0.85146   0.62261   0.39291   0.00000  Uiso   1.00
H221   H     0.34033   0.22053   0.38009   0.00000  Uiso   1.00
O222   O     0.62600   0.11692   0.97746   0.00000  Uiso   1.00
O223   O     0.58236   0.70025   0.48095   0.00000  Uiso   1.00
O224   O     0.22374   0.17272   0.46413   0.00000  Uiso   1.00
N225   N     0.56353   0.17251   0.09749   0.00000  Uiso   1.00
N226   N     0.53241   0.58820   0.45627   0.00000  Uiso   1.00
N227   N     0.98946   0.21230   0.44430   0.00000  Uiso   1.00
N228   N     0.79469   0.18373   0.04713   0.00000  Uiso   1.00
N229   N     0.76357   0.59942   0.40591   0.00000  Uiso   1.00
N230   N     0.22062   0.22352   0.39395   0.00000  Uiso   1.00
C231   C     0.00170   0.65822   0.98756   0.00000  Uiso   1.00
C232   C     0.95433   0.73720   0.02685   0.00000  Uiso   1.00
C233   C     0.81401   0.77301   0.02829   0.00000  Uiso   1.00
C234   C     0.79296   0.84523   0.06730   0.00000  Uiso   1.00
C235   C     0.70184   0.96251   0.12283   0.00000  Uiso   1.00
C236   C     0.03084   0.63738   0.04087   0.00000  Uiso   1.00
C237   C     0.95488   0.58926   0.05407   0.00000  Uiso   1.00
C238   C     0.99826   0.57745   0.10488   0.00000  Uiso   1.00
C239   C     0.02602   0.53973   0.18212   0.00000  Uiso   1.00
C240   C     0.16528   0.64434   0.94070   0.00000  Uiso   1.00
C241   C     0.20236   0.60207   0.86969   0.00000  Uiso   1.00
C242   C     0.35894   0.59610   0.83616   0.00000  Uiso   1.00
C243   C     0.59542   0.56919   0.75788   0.00000  Uiso   1.00
C244   C     0.21382   0.72278   0.05429   0.00000  Uiso   1.00
C245   C     0.06955   0.77226   0.06310   0.00000  Uiso   1.00
C246   C     0.04870   0.84444   0.10212   0.00000  Uiso   1.00
C247   C     0.90838   0.88036   0.10361   0.00000  Uiso   1.00
C248   C     0.14606   0.67244   0.07711   0.00000  Uiso   1.00
C249   C     0.18957   0.66069   0.12790   0.00000  Uiso   1.00
C250   C     0.11368   0.61257   0.14119   0.00000  Uiso   1.00
C251   C     0.28050   0.67941   0.97694   0.00000  Uiso   1.00
C252   C     0.43705   0.67350   0.94352   0.00000  Uiso   1.00
C253   C     0.47436   0.63123   0.87247   0.00000  Uiso   1.00
H254   H     0.91200   0.63092   0.95935   0.00000  Uiso   1.00
H255   H     0.72487   0.74586   0.00024   0.00000  Uiso   1.00
H256   H     0.86573   0.56213   0.02601   0.00000  Uiso   1.00
H257   H     0.11317   0.57494   0.84166   0.00000  Uiso   1.00
H258   H     0.56819   0.88875   0.06158   0.00000  Uiso   1.00
H259   H     0.86524   0.50133   0.11591   0.00000  Uiso   1.00
H260   H     0.38702   0.52833   0.72716   0.00000  Uiso   1.00
H261   H     0.30353   0.75008   0.08251   0.00000  Uiso   1.00
H262   H     0.13789   0.87156   0.13016   0.00000  Uiso   1.00
H263   H     0.27874   0.68783   0.15593   0.00000  Uiso   1.00
H264   H     0.52618   0.70064   0.97158   0.00000  Uiso   1.00
H265   H     0.90340   0.99077   0.16703   0.00000  Uiso   1.00
H266   H     0.20046   0.60335   0.22136   0.00000  Uiso   1.00
H267   H     0.72223   0.63036   0.83261   0.00000  Uiso   1.00
O268   O     0.61974   0.01752   0.14345   0.00000  Uiso   1.00
O269   O     0.00949   0.50924   0.21472   0.00000  Uiso   1.00
O270   O     0.69403   0.54467   0.70469   0.00000  Uiso   1.00
N271   N     0.66983   0.89609   0.07985   0.00000  Uiso   1.00
N272   N     0.94754   0.53389   0.13065   0.00000  Uiso   1.00
N273   N     0.43536   0.55912   0.76720   0.00000  Uiso   1.00
N274   N     0.85021   0.95099   0.13659   0.00000  Uiso   1.00
N275   N     0.12792   0.58878   0.18739   0.00000  Uiso   1.00
N276   N     0.61574   0.61402   0.82394   0.00000  Uiso   1.00
