data_job_01389
_audit_creation_date              2018-12-19
_audit_creation_method            'Materials Studio'
_symmetry_space_group_name_H-M    'P1'
_symmetry_Int_Tables_number       1
_symmetry_cell_setting            triclinic
loop_
_symmetry_equiv_pos_as_xyz
  x,y,z
_cell_length_a                    12.6904
_cell_length_b                    12.6904
_cell_length_c                    30.8773
_cell_angle_alpha                 90.0000
_cell_angle_beta                  90.0000
_cell_angle_gamma                 120.0000
loop_
_atom_site_label
_atom_site_type_symbol
_atom_site_fract_x
_atom_site_fract_y
_atom_site_fract_z
_atom_site_U_iso_or_equiv
_atom_site_adp_type
_atom_site_occupancy
C1     C     0.12974   0.32284   0.11416   0.00000  Uiso   1.00
C2     C     0.21840   0.44754   0.09539   0.00000  Uiso   1.00
C3     C     0.18667   0.52341   0.07369   0.00000  Uiso   1.00
C4     C     0.28123   0.63381   0.05899   0.00000  Uiso   1.00
C5     C     0.40036   0.82236   0.02880   0.00000  Uiso   1.00
C6     C     0.16284   0.23396   0.09360   0.00000  Uiso   1.00
C7     C     0.08440   0.13025   0.07040   0.00000  Uiso   1.00
C8     C     0.13220   0.06086   0.05420   0.00000  Uiso   1.00
C9     C     0.16506   0.91777   0.02126   0.00000  Uiso   1.00
C10    C     0.16172   0.32891   0.16204   0.00000  Uiso   1.00
C11    C     0.08232   0.30501   0.19639   0.00000  Uiso   1.00
C12    C     0.12917   0.31553   0.23781   0.00000  Uiso   1.00
C13    C     0.16028   0.31988   0.31113   0.00000  Uiso   1.00
C14    C     0.35409   0.38398   0.12665   0.00000  Uiso   1.00
C15    C     0.34025   0.48074   0.10218   0.00000  Uiso   1.00
C16    C     0.43489   0.59106   0.08751   0.00000  Uiso   1.00
C17    C     0.40331   0.66709   0.06579   0.00000  Uiso   1.00
C18    C     0.28470   0.26717   0.10039   0.00000  Uiso   1.00
C19    C     0.33262   0.19791   0.08422   0.00000  Uiso   1.00
C20    C     0.25428   0.09413   0.06100   0.00000  Uiso   1.00
C21    C     0.28358   0.36213   0.16883   0.00000  Uiso   1.00
C22    C     0.33055   0.37267   0.21021   0.00000  Uiso   1.00
C23    C     0.25125   0.34880   0.24461   0.00000  Uiso   1.00
H24    H     0.03487   0.29697   0.10887   0.00000  Uiso   1.00
H25    H     0.09235   0.49767   0.06844   0.00000  Uiso   1.00
H26    H     0.99010   0.10457   0.06516   0.00000  Uiso   1.00
H27    H     0.98803   0.27931   0.19112   0.00000  Uiso   1.00
H28    H     0.20983   0.73480   0.02659   0.00000  Uiso   1.00
H29    H     0.99422   0.90591   0.01968   0.00000  Uiso   1.00
H30    H     0.98984   0.27438   0.28530   0.00000  Uiso   1.00
H31    H     0.44896   0.40984   0.13194   0.00000  Uiso   1.00
H32    H     0.52918   0.61674   0.09277   0.00000  Uiso   1.00
H33    H     0.42692   0.22363   0.08948   0.00000  Uiso   1.00
H34    H     0.42485   0.39838   0.21545   0.00000  Uiso   1.00
H35    H     0.56438   0.83145   0.04634   0.00000  Uiso   1.00
H36    H     0.34876   0.00254   0.03942   0.00000  Uiso   1.00
H37    H     0.34439   0.37102   0.30505   0.00000  Uiso   1.00
O38    O     0.43240   0.91717   0.01027   0.00000  Uiso   1.00
O39    O     0.14952   0.82968   0.00121   0.00000  Uiso   1.00
O40    O     0.14378   0.31312   0.34969   0.00000  Uiso   1.00
N41    N     0.28227   0.72917   0.03662   0.00000  Uiso   1.00
N42    N     0.08068   0.95421   0.03015   0.00000  Uiso   1.00
N43    N     0.07659   0.29867   0.27849   0.00000  Uiso   1.00
N44    N     0.47304   0.78117   0.04725   0.00000  Uiso   1.00
N45    N     0.27146   0.00621   0.04078   0.00000  Uiso   1.00
N46    N     0.26736   0.35067   0.28911   0.00000  Uiso   1.00
C47    C     0.67716   0.80690   0.78083   0.00000  Uiso   1.00
C48    C     0.55246   0.77086   0.76206   0.00000  Uiso   1.00
C49    C     0.47659   0.66326   0.74036   0.00000  Uiso   1.00
C50    C     0.36619   0.64742   0.72566   0.00000  Uiso   1.00
C51    C     0.17764   0.57800   0.69547   0.00000  Uiso   1.00
C52    C     0.76604   0.92889   0.76027   0.00000  Uiso   1.00
C53    C     0.86975   0.95415   0.73707   0.00000  Uiso   1.00
C54    C     0.93914   0.07134   0.72087   0.00000  Uiso   1.00
C55    C     0.08223   0.24728   0.68793   0.00000  Uiso   1.00
C56    C     0.67109   0.83281   0.82871   0.00000  Uiso   1.00
C57    C     0.69499   0.77731   0.86305   0.00000  Uiso   1.00
C58    C     0.68447   0.81364   0.90448   0.00000  Uiso   1.00
C59    C     0.68012   0.84040   0.97779   0.00000  Uiso   1.00
C60    C     0.61602   0.97010   0.79332   0.00000  Uiso   1.00
C61    C     0.51926   0.85951   0.76885   0.00000  Uiso   1.00
C62    C     0.40894   0.84383   0.75418   0.00000  Uiso   1.00
C63    C     0.33291   0.73622   0.73246   0.00000  Uiso   1.00
C64    C     0.73283   0.01753   0.76705   0.00000  Uiso   1.00
C65    C     0.80209   0.13472   0.75089   0.00000  Uiso   1.00
C66    C     0.90587   0.16015   0.72767   0.00000  Uiso   1.00
C67    C     0.63787   0.92145   0.83550   0.00000  Uiso   1.00
C68    C     0.62733   0.95787   0.87688   0.00000  Uiso   1.00
C69    C     0.65120   0.90244   0.91128   0.00000  Uiso   1.00
H70    H     0.70303   0.73790   0.77554   0.00000  Uiso   1.00
H71    H     0.50233   0.59469   0.73511   0.00000  Uiso   1.00
H72    H     0.89543   0.88554   0.73182   0.00000  Uiso   1.00
H73    H     0.72069   0.70872   0.85779   0.00000  Uiso   1.00
H74    H     0.26520   0.47503   0.69326   0.00000  Uiso   1.00
H75    H     0.09409   0.08831   0.68635   0.00000  Uiso   1.00
H76    H     0.72562   0.71546   0.95197   0.00000  Uiso   1.00
H77    H     0.59016   0.03912   0.79861   0.00000  Uiso   1.00
H78    H     0.38326   0.91244   0.75944   0.00000  Uiso   1.00
H79    H     0.77637   0.20329   0.75615   0.00000  Uiso   1.00
H80    H     0.60162   0.02647   0.88212   0.00000  Uiso   1.00
H81    H     0.16855   0.73293   0.71300   0.00000  Uiso   1.00
H82    H     0.99746   0.34622   0.70609   0.00000  Uiso   1.00
H83    H     0.62898   0.97336   0.97171   0.00000  Uiso   1.00
O84    O     0.08283   0.51523   0.67694   0.00000  Uiso   1.00
O85    O     0.17032   0.31983   0.66787   0.00000  Uiso   1.00
O86    O     0.68688   0.83066   0.01636   0.00000  Uiso   1.00
N87    N     0.27083   0.55310   0.70329   0.00000  Uiso   1.00
N88    N     0.04579   0.12648   0.69682   0.00000  Uiso   1.00
N89    N     0.70133   0.77792   0.94515   0.00000  Uiso   1.00
N90    N     0.21883   0.69188   0.71391   0.00000  Uiso   1.00
N91    N     0.99379   0.26525   0.70744   0.00000  Uiso   1.00
N92    N     0.64933   0.91669   0.95578   0.00000  Uiso   1.00
C93    C     0.19310   0.87026   0.44749   0.00000  Uiso   1.00
C94    C     0.22914   0.78160   0.42873   0.00000  Uiso   1.00
C95    C     0.33674   0.81333   0.40702   0.00000  Uiso   1.00
C96    C     0.35258   0.71877   0.39233   0.00000  Uiso   1.00
C97    C     0.42200   0.59964   0.36214   0.00000  Uiso   1.00
C98    C     0.07111   0.83716   0.42694   0.00000  Uiso   1.00
C99    C     0.04585   0.91560   0.40373   0.00000  Uiso   1.00
C100   C     0.92866   0.86780   0.38754   0.00000  Uiso   1.00
C101   C     0.75272   0.83494   0.35459   0.00000  Uiso   1.00
C102   C     0.16719   0.83828   0.49537   0.00000  Uiso   1.00
C103   C     0.22269   0.91768   0.52972   0.00000  Uiso   1.00
C104   C     0.18636   0.87083   0.57114   0.00000  Uiso   1.00
C105   C     0.15960   0.83972   0.64446   0.00000  Uiso   1.00
C106   C     0.02990   0.64591   0.45999   0.00000  Uiso   1.00
C107   C     0.14049   0.65975   0.43551   0.00000  Uiso   1.00
C108   C     0.15617   0.56511   0.42085   0.00000  Uiso   1.00
C109   C     0.26378   0.59669   0.39913   0.00000  Uiso   1.00
C110   C     0.98247   0.71530   0.43372   0.00000  Uiso   1.00
C111   C     0.86528   0.66738   0.41756   0.00000  Uiso   1.00
C112   C     0.83985   0.74572   0.39433   0.00000  Uiso   1.00
C113   C     0.07855   0.71642   0.50216   0.00000  Uiso   1.00
C114   C     0.04213   0.66945   0.54354   0.00000  Uiso   1.00
C115   C     0.09756   0.74875   0.57794   0.00000  Uiso   1.00
H116   H     0.26210   0.96513   0.44221   0.00000  Uiso   1.00
H117   H     0.40531   0.90765   0.40177   0.00000  Uiso   1.00
H118   H     0.11446   0.00990   0.39849   0.00000  Uiso   1.00
H119   H     0.29128   0.01197   0.52445   0.00000  Uiso   1.00
H120   H     0.52497   0.79017   0.35993   0.00000  Uiso   1.00
H121   H     0.91169   0.00578   0.35301   0.00000  Uiso   1.00
H122   H     0.28454   0.01016   0.61863   0.00000  Uiso   1.00
H123   H     0.96088   0.55104   0.46527   0.00000  Uiso   1.00
H124   H     0.08756   0.47082   0.42610   0.00000  Uiso   1.00
H125   H     0.79671   0.57308   0.42282   0.00000  Uiso   1.00
H126   H     0.97353   0.57515   0.54878   0.00000  Uiso   1.00
H127   H     0.26707   0.43562   0.37967   0.00000  Uiso   1.00
H128   H     0.65378   0.65124   0.37276   0.00000  Uiso   1.00
H129   H     0.02664   0.65561   0.63838   0.00000  Uiso   1.00
O130   O     0.48477   0.56760   0.34360   0.00000  Uiso   1.00
O131   O     0.68017   0.85048   0.33454   0.00000  Uiso   1.00
O132   O     0.16934   0.85622   0.68303   0.00000  Uiso   1.00
N133   N     0.44690   0.71773   0.36996   0.00000  Uiso   1.00
N134   N     0.87352   0.91932   0.36349   0.00000  Uiso   1.00
N135   N     0.22208   0.92341   0.61182   0.00000  Uiso   1.00
N136   N     0.30812   0.52696   0.38058   0.00000  Uiso   1.00
N137   N     0.73475   0.72854   0.37411   0.00000  Uiso   1.00
N138   N     0.08331   0.73264   0.62244   0.00000  Uiso   1.00
C139   C     0.32284   0.12974   0.88584   0.00000  Uiso   1.00
C140   C     0.44754   0.21840   0.90461   0.00000  Uiso   1.00
C141   C     0.52341   0.18667   0.92631   0.00000  Uiso   1.00
C142   C     0.63381   0.28123   0.94101   0.00000  Uiso   1.00
C143   C     0.82236   0.40036   0.97120   0.00000  Uiso   1.00
C144   C     0.23396   0.16284   0.90640   0.00000  Uiso   1.00
C145   C     0.13025   0.08440   0.92960   0.00000  Uiso   1.00
C146   C     0.06086   0.13220   0.94580   0.00000  Uiso   1.00
C147   C     0.91777   0.16506   0.97874   0.00000  Uiso   1.00
C148   C     0.32891   0.16172   0.83796   0.00000  Uiso   1.00
C149   C     0.30501   0.08232   0.80361   0.00000  Uiso   1.00
C150   C     0.31553   0.12917   0.76219   0.00000  Uiso   1.00
C151   C     0.31988   0.16028   0.68887   0.00000  Uiso   1.00
C152   C     0.38398   0.35409   0.87335   0.00000  Uiso   1.00
C153   C     0.48074   0.34025   0.89782   0.00000  Uiso   1.00
C154   C     0.59106   0.43489   0.91249   0.00000  Uiso   1.00
C155   C     0.66709   0.40331   0.93421   0.00000  Uiso   1.00
C156   C     0.26717   0.28470   0.89961   0.00000  Uiso   1.00
C157   C     0.19791   0.33262   0.91578   0.00000  Uiso   1.00
C158   C     0.09413   0.25428   0.93900   0.00000  Uiso   1.00
C159   C     0.36213   0.28358   0.83117   0.00000  Uiso   1.00
C160   C     0.37267   0.33055   0.78979   0.00000  Uiso   1.00
C161   C     0.34880   0.25125   0.75539   0.00000  Uiso   1.00
H162   H     0.29697   0.03487   0.89113   0.00000  Uiso   1.00
H163   H     0.49767   0.09235   0.93156   0.00000  Uiso   1.00
H164   H     0.10457   0.99010   0.93484   0.00000  Uiso   1.00
H165   H     0.27931   0.98803   0.80888   0.00000  Uiso   1.00
H166   H     0.73480   0.20983   0.97341   0.00000  Uiso   1.00
H167   H     0.90591   0.99422   0.98032   0.00000  Uiso   1.00
H168   H     0.27438   0.98984   0.71470   0.00000  Uiso   1.00
H169   H     0.40984   0.44896   0.86806   0.00000  Uiso   1.00
H170   H     0.61674   0.52918   0.90723   0.00000  Uiso   1.00
H171   H     0.22363   0.42692   0.91052   0.00000  Uiso   1.00
H172   H     0.39838   0.42485   0.78455   0.00000  Uiso   1.00
H173   H     0.83145   0.56438   0.95366   0.00000  Uiso   1.00
H174   H     0.00254   0.34876   0.96058   0.00000  Uiso   1.00
H175   H     0.37102   0.34439   0.69495   0.00000  Uiso   1.00
O176   O     0.91717   0.43240   0.98973   0.00000  Uiso   1.00
O177   O     0.82968   0.14952   0.99879   0.00000  Uiso   1.00
O178   O     0.31312   0.14378   0.65031   0.00000  Uiso   1.00
N179   N     0.72917   0.28227   0.96338   0.00000  Uiso   1.00
N180   N     0.95421   0.08068   0.96985   0.00000  Uiso   1.00
N181   N     0.29867   0.07659   0.72151   0.00000  Uiso   1.00
N182   N     0.78117   0.47304   0.95275   0.00000  Uiso   1.00
N183   N     0.00621   0.27146   0.95922   0.00000  Uiso   1.00
N184   N     0.35067   0.26736   0.71089   0.00000  Uiso   1.00
C185   C     0.80690   0.67716   0.21917   0.00000  Uiso   1.00
C186   C     0.77086   0.55246   0.23794   0.00000  Uiso   1.00
C187   C     0.66326   0.47659   0.25964   0.00000  Uiso   1.00
C188   C     0.64742   0.36619   0.27434   0.00000  Uiso   1.00
C189   C     0.57800   0.17764   0.30453   0.00000  Uiso   1.00
C190   C     0.92889   0.76604   0.23973   0.00000  Uiso   1.00
C191   C     0.95415   0.86975   0.26293   0.00000  Uiso   1.00
C192   C     0.07134   0.93914   0.27913   0.00000  Uiso   1.00
C193   C     0.24728   0.08223   0.31207   0.00000  Uiso   1.00
C194   C     0.83281   0.67109   0.17129   0.00000  Uiso   1.00
C195   C     0.77731   0.69499   0.13695   0.00000  Uiso   1.00
C196   C     0.81364   0.68447   0.09552   0.00000  Uiso   1.00
C197   C     0.84040   0.68012   0.02221   0.00000  Uiso   1.00
C198   C     0.97010   0.61602   0.20668   0.00000  Uiso   1.00
C199   C     0.85951   0.51926   0.23115   0.00000  Uiso   1.00
C200   C     0.84383   0.40894   0.24582   0.00000  Uiso   1.00
C201   C     0.73622   0.33291   0.26754   0.00000  Uiso   1.00
C202   C     0.01753   0.73283   0.23295   0.00000  Uiso   1.00
C203   C     0.13472   0.80209   0.24911   0.00000  Uiso   1.00
C204   C     0.16015   0.90587   0.27233   0.00000  Uiso   1.00
C205   C     0.92145   0.63787   0.16450   0.00000  Uiso   1.00
C206   C     0.95787   0.62733   0.12312   0.00000  Uiso   1.00
C207   C     0.90244   0.65120   0.08872   0.00000  Uiso   1.00
H208   H     0.73790   0.70303   0.22446   0.00000  Uiso   1.00
H209   H     0.59469   0.50233   0.26489   0.00000  Uiso   1.00
H210   H     0.88554   0.89543   0.26818   0.00000  Uiso   1.00
H211   H     0.70872   0.72069   0.14221   0.00000  Uiso   1.00
H212   H     0.47503   0.26520   0.30674   0.00000  Uiso   1.00
H213   H     0.08831   0.09409   0.31365   0.00000  Uiso   1.00
H214   H     0.71546   0.72562   0.04803   0.00000  Uiso   1.00
H215   H     0.03912   0.59016   0.20139   0.00000  Uiso   1.00
H216   H     0.91244   0.38326   0.24056   0.00000  Uiso   1.00
H217   H     0.20329   0.77637   0.24385   0.00000  Uiso   1.00
H218   H     0.02647   0.60162   0.11788   0.00000  Uiso   1.00
H219   H     0.73293   0.16855   0.28700   0.00000  Uiso   1.00
H220   H     0.34622   0.99746   0.29391   0.00000  Uiso   1.00
H221   H     0.97336   0.62898   0.02829   0.00000  Uiso   1.00
O222   O     0.51523   0.08283   0.32306   0.00000  Uiso   1.00
O223   O     0.31983   0.17032   0.33213   0.00000  Uiso   1.00
O224   O     0.83066   0.68688   0.98364   0.00000  Uiso   1.00
N225   N     0.55310   0.27083   0.29671   0.00000  Uiso   1.00
N226   N     0.12648   0.04579   0.30318   0.00000  Uiso   1.00
N227   N     0.77792   0.70133   0.05485   0.00000  Uiso   1.00
N228   N     0.69188   0.21883   0.28609   0.00000  Uiso   1.00
N229   N     0.26525   0.99379   0.29256   0.00000  Uiso   1.00
N230   N     0.91669   0.64933   0.04422   0.00000  Uiso   1.00
C231   C     0.87026   0.19310   0.55251   0.00000  Uiso   1.00
C232   C     0.78160   0.22914   0.57127   0.00000  Uiso   1.00
C233   C     0.81333   0.33674   0.59298   0.00000  Uiso   1.00
C234   C     0.71877   0.35258   0.60767   0.00000  Uiso   1.00
C235   C     0.59964   0.42200   0.63786   0.00000  Uiso   1.00
C236   C     0.83716   0.07111   0.57306   0.00000  Uiso   1.00
C237   C     0.91560   0.04585   0.59627   0.00000  Uiso   1.00
C238   C     0.86780   0.92866   0.61246   0.00000  Uiso   1.00
C239   C     0.83494   0.75272   0.64541   0.00000  Uiso   1.00
C240   C     0.83828   0.16719   0.50463   0.00000  Uiso   1.00
C241   C     0.91768   0.22269   0.47028   0.00000  Uiso   1.00
C242   C     0.87083   0.18636   0.42886   0.00000  Uiso   1.00
C243   C     0.83972   0.15960   0.35554   0.00000  Uiso   1.00
C244   C     0.64591   0.02990   0.54001   0.00000  Uiso   1.00
C245   C     0.65975   0.14049   0.56449   0.00000  Uiso   1.00
C246   C     0.56511   0.15617   0.57915   0.00000  Uiso   1.00
C247   C     0.59669   0.26378   0.60087   0.00000  Uiso   1.00
C248   C     0.71530   0.98247   0.56628   0.00000  Uiso   1.00
C249   C     0.66738   0.86528   0.58244   0.00000  Uiso   1.00
C250   C     0.74572   0.83985   0.60567   0.00000  Uiso   1.00
C251   C     0.71642   0.07855   0.49784   0.00000  Uiso   1.00
C252   C     0.66945   0.04213   0.45646   0.00000  Uiso   1.00
C253   C     0.74875   0.09756   0.42206   0.00000  Uiso   1.00
H254   H     0.96513   0.26210   0.55779   0.00000  Uiso   1.00
H255   H     0.90765   0.40531   0.59823   0.00000  Uiso   1.00
H256   H     0.00990   0.11446   0.60151   0.00000  Uiso   1.00
H257   H     0.01197   0.29128   0.47555   0.00000  Uiso   1.00
H258   H     0.79017   0.52497   0.64007   0.00000  Uiso   1.00
H259   H     0.00578   0.91169   0.64699   0.00000  Uiso   1.00
H260   H     0.01016   0.28454   0.38137   0.00000  Uiso   1.00
H261   H     0.55104   0.96088   0.53473   0.00000  Uiso   1.00
H262   H     0.47082   0.08756   0.57390   0.00000  Uiso   1.00
H263   H     0.57308   0.79671   0.57718   0.00000  Uiso   1.00
H264   H     0.57515   0.97353   0.45122   0.00000  Uiso   1.00
H265   H     0.43562   0.26707   0.62033   0.00000  Uiso   1.00
H266   H     0.65124   0.65378   0.62724   0.00000  Uiso   1.00
H267   H     0.65561   0.02664   0.36162   0.00000  Uiso   1.00
O268   O     0.56760   0.48477   0.65640   0.00000  Uiso   1.00
O269   O     0.85048   0.68017   0.66546   0.00000  Uiso   1.00
O270   O     0.85622   0.16934   0.31697   0.00000  Uiso   1.00
N271   N     0.71773   0.44690   0.63004   0.00000  Uiso   1.00
N272   N     0.91932   0.87352   0.63651   0.00000  Uiso   1.00
N273   N     0.92341   0.22208   0.38818   0.00000  Uiso   1.00
N274   N     0.52696   0.30812   0.61942   0.00000  Uiso   1.00
N275   N     0.72854   0.73475   0.62589   0.00000  Uiso   1.00
N276   N     0.73264   0.08331   0.37756   0.00000  Uiso   1.00
