data_job_04810
_audit_creation_date              2018-12-19
_audit_creation_method            'Materials Studio'
_symmetry_space_group_name_H-M    'P1'
_symmetry_Int_Tables_number       1
_symmetry_cell_setting            triclinic
loop_
_symmetry_equiv_pos_as_xyz
  x,y,z
_cell_length_a                    21.6351
_cell_length_b                    11.6289
_cell_length_c                    22.1282
_cell_angle_alpha                 90.0000
_cell_angle_beta                  90.0000
_cell_angle_gamma                 90.0000
loop_
_atom_site_label
_atom_site_type_symbol
_atom_site_fract_x
_atom_site_fract_y
_atom_site_fract_z
_atom_site_U_iso_or_equiv
_atom_site_adp_type
_atom_site_occupancy
C1     C     0.06157   0.21324   0.18365   0.00000  Uiso   1.00
C2     C     0.08291   0.11702   0.14173   0.00000  Uiso   1.00
C3     C     0.09544   0.00462   0.15887   0.00000  Uiso   1.00
C4     C     0.11443   0.92953   0.11376   0.00000  Uiso   1.00
C5     C     0.14665   0.77465   0.05781   0.00000  Uiso   1.00
C6     C     0.10848   0.31013   0.17635   0.00000  Uiso   1.00
C7     C     0.14249   0.36009   0.22260   0.00000  Uiso   1.00
C8     C     0.18299   0.44757   0.20663   0.00000  Uiso   1.00
C9     C     0.25487   0.59254   0.20444   0.00000  Uiso   1.00
C10    C     0.00119   0.25816   0.15709   0.00000  Uiso   1.00
C11    C     0.94499   0.26446   0.18714   0.00000  Uiso   1.00
C12    C     0.89516   0.30821   0.15496   0.00000  Uiso   1.00
C13    C     0.80045   0.37250   0.12286   0.00000  Uiso   1.00
C14    C     0.07303   0.27978   0.07307   0.00000  Uiso   1.00
C15    C     0.08914   0.15317   0.08167   0.00000  Uiso   1.00
C16    C     0.10812   0.07823   0.03652   0.00000  Uiso   1.00
C17    C     0.12067   0.96573   0.05359   0.00000  Uiso   1.00
C18    C     0.11470   0.34627   0.11629   0.00000  Uiso   1.00
C19    C     0.15517   0.43370   0.10025   0.00000  Uiso   1.00
C20    C     0.18923   0.48378   0.14646   0.00000  Uiso   1.00
C21    C     0.00741   0.29430   0.09702   0.00000  Uiso   1.00
C22    C     0.95767   0.33807   0.06479   0.00000  Uiso   1.00
C23    C     0.90140   0.34442   0.09479   0.00000  Uiso   1.00
H24    H     0.05673   0.18511   0.23041   0.00000  Uiso   1.00
H25    H     0.09062   0.97668   0.20535   0.00000  Uiso   1.00
H26    H     0.13765   0.33211   0.26907   0.00000  Uiso   1.00
H27    H     0.94019   0.23648   0.23362   0.00000  Uiso   1.00
H28    H     0.13096   0.76156   0.15109   0.00000  Uiso   1.00
H29    H     0.23012   0.51101   0.28545   0.00000  Uiso   1.00
H30    H     0.81372   0.30938   0.21069   0.00000  Uiso   1.00
H31    H     0.07788   0.30792   0.02631   0.00000  Uiso   1.00
H32    H     0.11293   0.10622   0.99005   0.00000  Uiso   1.00
H33    H     0.15997   0.46165   0.05377   0.00000  Uiso   1.00
H34    H     0.96250   0.36603   0.01832   0.00000  Uiso   1.00
H35    H     0.14907   0.86670   0.97634   0.00000  Uiso   1.00
H36    H     0.24823   0.61616   0.11070   0.00000  Uiso   1.00
H37    H     0.83183   0.41452   0.03594   0.00000  Uiso   1.00
O38    O     0.16272   0.67924   0.04355   0.00000  Uiso   1.00
O39    O     0.29280   0.66252   0.21982   0.00000  Uiso   1.00
O40    O     0.74649   0.39797   0.12174   0.00000  Uiso   1.00
N41    N     0.13040   0.81398   0.11494   0.00000  Uiso   1.00
N42    N     0.22312   0.51466   0.24055   0.00000  Uiso   1.00
N43    N     0.83382   0.32618   0.17067   0.00000  Uiso   1.00
N44    N     0.14015   0.87055   0.02090   0.00000  Uiso   1.00
N45    N     0.23286   0.57124   0.14652   0.00000  Uiso   1.00
N46    N     0.84357   0.38275   0.07663   0.00000  Uiso   1.00
C47    C     0.43843   0.28676   0.18365   0.00000  Uiso   1.00
C48    C     0.41709   0.38298   0.14173   0.00000  Uiso   1.00
C49    C     0.40456   0.49538   0.15887   0.00000  Uiso   1.00
C50    C     0.38557   0.57047   0.11376   0.00000  Uiso   1.00
C51    C     0.35335   0.72535   0.05781   0.00000  Uiso   1.00
C52    C     0.39152   0.18987   0.17635   0.00000  Uiso   1.00
C53    C     0.35751   0.13991   0.22260   0.00000  Uiso   1.00
C54    C     0.31701   0.05243   0.20663   0.00000  Uiso   1.00
C55    C     0.24513   0.90746   0.20444   0.00000  Uiso   1.00
C56    C     0.49881   0.24184   0.15709   0.00000  Uiso   1.00
C57    C     0.55501   0.23554   0.18714   0.00000  Uiso   1.00
C58    C     0.60484   0.19179   0.15496   0.00000  Uiso   1.00
C59    C     0.69955   0.12750   0.12286   0.00000  Uiso   1.00
C60    C     0.42697   0.22022   0.07307   0.00000  Uiso   1.00
C61    C     0.41086   0.34683   0.08167   0.00000  Uiso   1.00
C62    C     0.39188   0.42177   0.03652   0.00000  Uiso   1.00
C63    C     0.37933   0.53427   0.05359   0.00000  Uiso   1.00
C64    C     0.38530   0.15373   0.11629   0.00000  Uiso   1.00
C65    C     0.34483   0.06630   0.10025   0.00000  Uiso   1.00
C66    C     0.31077   0.01622   0.14646   0.00000  Uiso   1.00
C67    C     0.49259   0.20570   0.09702   0.00000  Uiso   1.00
C68    C     0.54233   0.16193   0.06479   0.00000  Uiso   1.00
C69    C     0.59860   0.15558   0.09479   0.00000  Uiso   1.00
H70    H     0.44327   0.31489   0.23041   0.00000  Uiso   1.00
H71    H     0.40938   0.52332   0.20535   0.00000  Uiso   1.00
H72    H     0.36235   0.16789   0.26907   0.00000  Uiso   1.00
H73    H     0.55981   0.26352   0.23362   0.00000  Uiso   1.00
H74    H     0.36904   0.73844   0.15109   0.00000  Uiso   1.00
H75    H     0.26988   0.98899   0.28545   0.00000  Uiso   1.00
H76    H     0.68628   0.19062   0.21069   0.00000  Uiso   1.00
H77    H     0.42212   0.19208   0.02631   0.00000  Uiso   1.00
H78    H     0.38707   0.39378   0.99005   0.00000  Uiso   1.00
H79    H     0.34003   0.03835   0.05377   0.00000  Uiso   1.00
H80    H     0.53750   0.13397   0.01832   0.00000  Uiso   1.00
H81    H     0.35093   0.63330   0.97634   0.00000  Uiso   1.00
H82    H     0.25177   0.88384   0.11070   0.00000  Uiso   1.00
H83    H     0.66817   0.08548   0.03594   0.00000  Uiso   1.00
O84    O     0.33728   0.82076   0.04355   0.00000  Uiso   1.00
O85    O     0.20720   0.83748   0.21982   0.00000  Uiso   1.00
O86    O     0.75351   0.10203   0.12174   0.00000  Uiso   1.00
N87    N     0.36960   0.68602   0.11494   0.00000  Uiso   1.00
N88    N     0.27688   0.98534   0.24055   0.00000  Uiso   1.00
N89    N     0.66618   0.17382   0.17067   0.00000  Uiso   1.00
N90    N     0.35985   0.62945   0.02090   0.00000  Uiso   1.00
N91    N     0.26714   0.92876   0.14652   0.00000  Uiso   1.00
N92    N     0.65643   0.11725   0.07663   0.00000  Uiso   1.00
C93    C     0.93843   0.71324   0.31635   0.00000  Uiso   1.00
C94    C     0.91709   0.61702   0.35827   0.00000  Uiso   1.00
C95    C     0.90456   0.50462   0.34113   0.00000  Uiso   1.00
C96    C     0.88557   0.42953   0.38624   0.00000  Uiso   1.00
C97    C     0.85335   0.27465   0.44219   0.00000  Uiso   1.00
C98    C     0.89152   0.81013   0.32365   0.00000  Uiso   1.00
C99    C     0.85751   0.86009   0.27740   0.00000  Uiso   1.00
C100   C     0.81701   0.94757   0.29337   0.00000  Uiso   1.00
C101   C     0.74513   0.09254   0.29556   0.00000  Uiso   1.00
C102   C     0.99881   0.75816   0.34291   0.00000  Uiso   1.00
C103   C     0.05501   0.76446   0.31286   0.00000  Uiso   1.00
C104   C     0.10484   0.80821   0.34504   0.00000  Uiso   1.00
C105   C     0.19955   0.87250   0.37714   0.00000  Uiso   1.00
C106   C     0.92697   0.77978   0.42693   0.00000  Uiso   1.00
C107   C     0.91086   0.65317   0.41833   0.00000  Uiso   1.00
C108   C     0.89188   0.57823   0.46348   0.00000  Uiso   1.00
C109   C     0.87933   0.46573   0.44641   0.00000  Uiso   1.00
C110   C     0.88530   0.84627   0.38371   0.00000  Uiso   1.00
C111   C     0.84483   0.93370   0.39975   0.00000  Uiso   1.00
C112   C     0.81077   0.98378   0.35354   0.00000  Uiso   1.00
C113   C     0.99259   0.79430   0.40298   0.00000  Uiso   1.00
C114   C     0.04233   0.83807   0.43521   0.00000  Uiso   1.00
C115   C     0.09860   0.84442   0.40521   0.00000  Uiso   1.00
H116   H     0.94327   0.68511   0.26959   0.00000  Uiso   1.00
H117   H     0.90938   0.47668   0.29465   0.00000  Uiso   1.00
H118   H     0.86235   0.83211   0.23093   0.00000  Uiso   1.00
H119   H     0.05981   0.73648   0.26638   0.00000  Uiso   1.00
H120   H     0.86904   0.26156   0.34891   0.00000  Uiso   1.00
H121   H     0.76988   0.01101   0.21455   0.00000  Uiso   1.00
H122   H     0.18628   0.80938   0.28931   0.00000  Uiso   1.00
H123   H     0.92212   0.80792   0.47369   0.00000  Uiso   1.00
H124   H     0.88707   0.60622   0.50995   0.00000  Uiso   1.00
H125   H     0.84003   0.96165   0.44623   0.00000  Uiso   1.00
H126   H     0.03750   0.86603   0.48168   0.00000  Uiso   1.00
H127   H     0.85093   0.36670   0.52366   0.00000  Uiso   1.00
H128   H     0.75177   0.11616   0.38930   0.00000  Uiso   1.00
H129   H     0.16817   0.91452   0.46406   0.00000  Uiso   1.00
O130   O     0.83728   0.17924   0.45645   0.00000  Uiso   1.00
O131   O     0.70720   0.16252   0.28018   0.00000  Uiso   1.00
O132   O     0.25351   0.89797   0.37826   0.00000  Uiso   1.00
N133   N     0.86960   0.31398   0.38506   0.00000  Uiso   1.00
N134   N     0.77688   0.01466   0.25945   0.00000  Uiso   1.00
N135   N     0.16618   0.82618   0.32933   0.00000  Uiso   1.00
N136   N     0.85985   0.37055   0.47910   0.00000  Uiso   1.00
N137   N     0.76714   0.07124   0.35348   0.00000  Uiso   1.00
N138   N     0.15643   0.88275   0.42337   0.00000  Uiso   1.00
C139   C     0.56157   0.78676   0.31635   0.00000  Uiso   1.00
C140   C     0.58291   0.88298   0.35827   0.00000  Uiso   1.00
C141   C     0.59544   0.99538   0.34113   0.00000  Uiso   1.00
C142   C     0.61443   0.07047   0.38624   0.00000  Uiso   1.00
C143   C     0.64665   0.22535   0.44219   0.00000  Uiso   1.00
C144   C     0.60848   0.68987   0.32365   0.00000  Uiso   1.00
C145   C     0.64249   0.63991   0.27740   0.00000  Uiso   1.00
C146   C     0.68299   0.55243   0.29337   0.00000  Uiso   1.00
C147   C     0.75487   0.40746   0.29556   0.00000  Uiso   1.00
C148   C     0.50119   0.74184   0.34291   0.00000  Uiso   1.00
C149   C     0.44499   0.73554   0.31286   0.00000  Uiso   1.00
C150   C     0.39516   0.69179   0.34504   0.00000  Uiso   1.00
C151   C     0.30045   0.62750   0.37714   0.00000  Uiso   1.00
C152   C     0.57303   0.72022   0.42693   0.00000  Uiso   1.00
C153   C     0.58914   0.84683   0.41833   0.00000  Uiso   1.00
C154   C     0.60812   0.92177   0.46348   0.00000  Uiso   1.00
C155   C     0.62067   0.03427   0.44641   0.00000  Uiso   1.00
C156   C     0.61470   0.65373   0.38371   0.00000  Uiso   1.00
C157   C     0.65517   0.56630   0.39975   0.00000  Uiso   1.00
C158   C     0.68923   0.51622   0.35354   0.00000  Uiso   1.00
C159   C     0.50741   0.70570   0.40298   0.00000  Uiso   1.00
C160   C     0.45767   0.66193   0.43521   0.00000  Uiso   1.00
C161   C     0.40140   0.65558   0.40521   0.00000  Uiso   1.00
H162   H     0.55673   0.81489   0.26959   0.00000  Uiso   1.00
H163   H     0.59062   0.02332   0.29465   0.00000  Uiso   1.00
H164   H     0.63765   0.66789   0.23093   0.00000  Uiso   1.00
H165   H     0.44019   0.76352   0.26638   0.00000  Uiso   1.00
H166   H     0.63096   0.23844   0.34891   0.00000  Uiso   1.00
H167   H     0.73012   0.48899   0.21455   0.00000  Uiso   1.00
H168   H     0.31372   0.69062   0.28931   0.00000  Uiso   1.00
H169   H     0.57788   0.69208   0.47369   0.00000  Uiso   1.00
H170   H     0.61293   0.89378   0.50995   0.00000  Uiso   1.00
H171   H     0.65997   0.53835   0.44623   0.00000  Uiso   1.00
H172   H     0.46250   0.63397   0.48168   0.00000  Uiso   1.00
H173   H     0.64907   0.13330   0.52366   0.00000  Uiso   1.00
H174   H     0.74823   0.38384   0.38930   0.00000  Uiso   1.00
H175   H     0.33183   0.58548   0.46406   0.00000  Uiso   1.00
O176   O     0.66272   0.32076   0.45645   0.00000  Uiso   1.00
O177   O     0.79280   0.33748   0.28018   0.00000  Uiso   1.00
O178   O     0.24649   0.60203   0.37826   0.00000  Uiso   1.00
N179   N     0.63040   0.18602   0.38506   0.00000  Uiso   1.00
N180   N     0.72312   0.48534   0.25945   0.00000  Uiso   1.00
N181   N     0.33382   0.67382   0.32933   0.00000  Uiso   1.00
N182   N     0.64015   0.12945   0.47910   0.00000  Uiso   1.00
N183   N     0.73286   0.42876   0.35348   0.00000  Uiso   1.00
N184   N     0.34357   0.61725   0.42337   0.00000  Uiso   1.00
C185   C     0.93843   0.78676   0.81635   0.00000  Uiso   1.00
C186   C     0.91709   0.88298   0.85827   0.00000  Uiso   1.00
C187   C     0.90456   0.99538   0.84113   0.00000  Uiso   1.00
C188   C     0.88557   0.07047   0.88624   0.00000  Uiso   1.00
C189   C     0.85335   0.22535   0.94219   0.00000  Uiso   1.00
C190   C     0.89152   0.68987   0.82365   0.00000  Uiso   1.00
C191   C     0.85751   0.63991   0.77740   0.00000  Uiso   1.00
C192   C     0.81701   0.55243   0.79337   0.00000  Uiso   1.00
C193   C     0.74513   0.40746   0.79556   0.00000  Uiso   1.00
C194   C     0.99881   0.74184   0.84291   0.00000  Uiso   1.00
C195   C     0.05501   0.73554   0.81286   0.00000  Uiso   1.00
C196   C     0.10484   0.69179   0.84504   0.00000  Uiso   1.00
C197   C     0.19955   0.62750   0.87714   0.00000  Uiso   1.00
C198   C     0.92697   0.72022   0.92693   0.00000  Uiso   1.00
C199   C     0.91086   0.84683   0.91833   0.00000  Uiso   1.00
C200   C     0.89188   0.92177   0.96348   0.00000  Uiso   1.00
C201   C     0.87933   0.03427   0.94641   0.00000  Uiso   1.00
C202   C     0.88530   0.65373   0.88371   0.00000  Uiso   1.00
C203   C     0.84483   0.56630   0.89975   0.00000  Uiso   1.00
C204   C     0.81077   0.51622   0.85354   0.00000  Uiso   1.00
C205   C     0.99259   0.70570   0.90298   0.00000  Uiso   1.00
C206   C     0.04233   0.66193   0.93521   0.00000  Uiso   1.00
C207   C     0.09860   0.65558   0.90521   0.00000  Uiso   1.00
H208   H     0.94327   0.81489   0.76959   0.00000  Uiso   1.00
H209   H     0.90938   0.02332   0.79465   0.00000  Uiso   1.00
H210   H     0.86235   0.66789   0.73093   0.00000  Uiso   1.00
H211   H     0.05981   0.76352   0.76638   0.00000  Uiso   1.00
H212   H     0.86904   0.23844   0.84891   0.00000  Uiso   1.00
H213   H     0.76988   0.48899   0.71455   0.00000  Uiso   1.00
H214   H     0.18628   0.69062   0.78931   0.00000  Uiso   1.00
H215   H     0.92212   0.69208   0.97369   0.00000  Uiso   1.00
H216   H     0.88707   0.89378   0.00995   0.00000  Uiso   1.00
H217   H     0.84003   0.53835   0.94623   0.00000  Uiso   1.00
H218   H     0.03750   0.63397   0.98168   0.00000  Uiso   1.00
H219   H     0.85093   0.13330   0.02366   0.00000  Uiso   1.00
H220   H     0.75177   0.38384   0.88930   0.00000  Uiso   1.00
H221   H     0.16817   0.58548   0.96406   0.00000  Uiso   1.00
O222   O     0.83728   0.32076   0.95645   0.00000  Uiso   1.00
O223   O     0.70720   0.33748   0.78018   0.00000  Uiso   1.00
O224   O     0.25351   0.60203   0.87826   0.00000  Uiso   1.00
N225   N     0.86960   0.18602   0.88506   0.00000  Uiso   1.00
N226   N     0.77688   0.48534   0.75945   0.00000  Uiso   1.00
N227   N     0.16618   0.67382   0.82933   0.00000  Uiso   1.00
N228   N     0.85985   0.12945   0.97910   0.00000  Uiso   1.00
N229   N     0.76714   0.42876   0.85348   0.00000  Uiso   1.00
N230   N     0.15643   0.61725   0.92337   0.00000  Uiso   1.00
C231   C     0.56157   0.71324   0.81635   0.00000  Uiso   1.00
C232   C     0.58291   0.61702   0.85827   0.00000  Uiso   1.00
C233   C     0.59544   0.50462   0.84113   0.00000  Uiso   1.00
C234   C     0.61443   0.42953   0.88624   0.00000  Uiso   1.00
C235   C     0.64665   0.27465   0.94219   0.00000  Uiso   1.00
C236   C     0.60848   0.81013   0.82365   0.00000  Uiso   1.00
C237   C     0.64249   0.86009   0.77740   0.00000  Uiso   1.00
C238   C     0.68299   0.94757   0.79337   0.00000  Uiso   1.00
C239   C     0.75487   0.09254   0.79556   0.00000  Uiso   1.00
C240   C     0.50119   0.75816   0.84291   0.00000  Uiso   1.00
C241   C     0.44499   0.76446   0.81286   0.00000  Uiso   1.00
C242   C     0.39516   0.80821   0.84504   0.00000  Uiso   1.00
C243   C     0.30045   0.87250   0.87714   0.00000  Uiso   1.00
C244   C     0.57303   0.77978   0.92693   0.00000  Uiso   1.00
C245   C     0.58914   0.65317   0.91833   0.00000  Uiso   1.00
C246   C     0.60812   0.57823   0.96348   0.00000  Uiso   1.00
C247   C     0.62067   0.46573   0.94641   0.00000  Uiso   1.00
C248   C     0.61470   0.84627   0.88371   0.00000  Uiso   1.00
C249   C     0.65517   0.93370   0.89975   0.00000  Uiso   1.00
C250   C     0.68923   0.98378   0.85354   0.00000  Uiso   1.00
C251   C     0.50741   0.79430   0.90298   0.00000  Uiso   1.00
C252   C     0.45767   0.83807   0.93521   0.00000  Uiso   1.00
C253   C     0.40140   0.84442   0.90521   0.00000  Uiso   1.00
H254   H     0.55673   0.68511   0.76959   0.00000  Uiso   1.00
H255   H     0.59062   0.47668   0.79465   0.00000  Uiso   1.00
H256   H     0.63765   0.83211   0.73093   0.00000  Uiso   1.00
H257   H     0.44019   0.73648   0.76638   0.00000  Uiso   1.00
H258   H     0.63096   0.26156   0.84891   0.00000  Uiso   1.00
H259   H     0.73012   0.01101   0.71455   0.00000  Uiso   1.00
H260   H     0.31372   0.80938   0.78931   0.00000  Uiso   1.00
H261   H     0.57788   0.80792   0.97369   0.00000  Uiso   1.00
H262   H     0.61293   0.60622   0.00995   0.00000  Uiso   1.00
H263   H     0.65997   0.96165   0.94623   0.00000  Uiso   1.00
H264   H     0.46250   0.86603   0.98168   0.00000  Uiso   1.00
H265   H     0.64907   0.36670   0.02366   0.00000  Uiso   1.00
H266   H     0.74823   0.11616   0.88930   0.00000  Uiso   1.00
H267   H     0.33183   0.91452   0.96406   0.00000  Uiso   1.00
O268   O     0.66272   0.17924   0.95645   0.00000  Uiso   1.00
O269   O     0.79280   0.16252   0.78018   0.00000  Uiso   1.00
O270   O     0.24649   0.89797   0.87826   0.00000  Uiso   1.00
N271   N     0.63040   0.31398   0.88506   0.00000  Uiso   1.00
N272   N     0.72312   0.01466   0.75945   0.00000  Uiso   1.00
N273   N     0.33382   0.82618   0.82933   0.00000  Uiso   1.00
N274   N     0.64015   0.37055   0.97910   0.00000  Uiso   1.00
N275   N     0.73286   0.07124   0.85348   0.00000  Uiso   1.00
N276   N     0.34357   0.88275   0.92337   0.00000  Uiso   1.00
C277   C     0.06157   0.28676   0.68365   0.00000  Uiso   1.00
C278   C     0.08291   0.38298   0.64173   0.00000  Uiso   1.00
C279   C     0.09544   0.49538   0.65887   0.00000  Uiso   1.00
C280   C     0.11443   0.57047   0.61376   0.00000  Uiso   1.00
C281   C     0.14665   0.72535   0.55781   0.00000  Uiso   1.00
C282   C     0.10848   0.18987   0.67635   0.00000  Uiso   1.00
C283   C     0.14249   0.13991   0.72260   0.00000  Uiso   1.00
C284   C     0.18299   0.05243   0.70663   0.00000  Uiso   1.00
C285   C     0.25487   0.90746   0.70444   0.00000  Uiso   1.00
C286   C     0.00119   0.24184   0.65709   0.00000  Uiso   1.00
C287   C     0.94499   0.23554   0.68714   0.00000  Uiso   1.00
C288   C     0.89516   0.19179   0.65496   0.00000  Uiso   1.00
C289   C     0.80045   0.12750   0.62286   0.00000  Uiso   1.00
C290   C     0.07303   0.22022   0.57307   0.00000  Uiso   1.00
C291   C     0.08914   0.34683   0.58167   0.00000  Uiso   1.00
C292   C     0.10812   0.42177   0.53652   0.00000  Uiso   1.00
C293   C     0.12067   0.53427   0.55359   0.00000  Uiso   1.00
C294   C     0.11470   0.15373   0.61629   0.00000  Uiso   1.00
C295   C     0.15517   0.06630   0.60025   0.00000  Uiso   1.00
C296   C     0.18923   0.01622   0.64646   0.00000  Uiso   1.00
C297   C     0.00741   0.20570   0.59702   0.00000  Uiso   1.00
C298   C     0.95767   0.16193   0.56479   0.00000  Uiso   1.00
C299   C     0.90140   0.15558   0.59479   0.00000  Uiso   1.00
H300   H     0.05673   0.31489   0.73041   0.00000  Uiso   1.00
H301   H     0.09062   0.52332   0.70535   0.00000  Uiso   1.00
H302   H     0.13765   0.16789   0.76907   0.00000  Uiso   1.00
H303   H     0.94019   0.26352   0.73362   0.00000  Uiso   1.00
H304   H     0.13096   0.73844   0.65109   0.00000  Uiso   1.00
H305   H     0.23012   0.98899   0.78545   0.00000  Uiso   1.00
H306   H     0.81372   0.19062   0.71069   0.00000  Uiso   1.00
H307   H     0.07788   0.19208   0.52631   0.00000  Uiso   1.00
H308   H     0.11293   0.39378   0.49005   0.00000  Uiso   1.00
H309   H     0.15997   0.03835   0.55377   0.00000  Uiso   1.00
H310   H     0.96250   0.13397   0.51832   0.00000  Uiso   1.00
H311   H     0.14907   0.63330   0.47634   0.00000  Uiso   1.00
H312   H     0.24823   0.88384   0.61070   0.00000  Uiso   1.00
H313   H     0.83183   0.08548   0.53594   0.00000  Uiso   1.00
O314   O     0.16272   0.82076   0.54355   0.00000  Uiso   1.00
O315   O     0.29280   0.83748   0.71982   0.00000  Uiso   1.00
O316   O     0.74649   0.10203   0.62174   0.00000  Uiso   1.00
N317   N     0.13040   0.68602   0.61494   0.00000  Uiso   1.00
N318   N     0.22312   0.98534   0.74055   0.00000  Uiso   1.00
N319   N     0.83382   0.17382   0.67067   0.00000  Uiso   1.00
N320   N     0.14015   0.62945   0.52090   0.00000  Uiso   1.00
N321   N     0.23286   0.92876   0.64652   0.00000  Uiso   1.00
N322   N     0.84357   0.11725   0.57663   0.00000  Uiso   1.00
C323   C     0.43843   0.21324   0.68365   0.00000  Uiso   1.00
C324   C     0.41709   0.11702   0.64173   0.00000  Uiso   1.00
C325   C     0.40456   0.00462   0.65887   0.00000  Uiso   1.00
C326   C     0.38557   0.92953   0.61376   0.00000  Uiso   1.00
C327   C     0.35335   0.77465   0.55781   0.00000  Uiso   1.00
C328   C     0.39152   0.31013   0.67635   0.00000  Uiso   1.00
C329   C     0.35751   0.36009   0.72260   0.00000  Uiso   1.00
C330   C     0.31701   0.44757   0.70663   0.00000  Uiso   1.00
C331   C     0.24513   0.59254   0.70444   0.00000  Uiso   1.00
C332   C     0.49881   0.25816   0.65709   0.00000  Uiso   1.00
C333   C     0.55501   0.26446   0.68714   0.00000  Uiso   1.00
C334   C     0.60484   0.30821   0.65496   0.00000  Uiso   1.00
C335   C     0.69955   0.37250   0.62286   0.00000  Uiso   1.00
C336   C     0.42697   0.27978   0.57307   0.00000  Uiso   1.00
C337   C     0.41086   0.15317   0.58167   0.00000  Uiso   1.00
C338   C     0.39188   0.07823   0.53652   0.00000  Uiso   1.00
C339   C     0.37933   0.96573   0.55359   0.00000  Uiso   1.00
C340   C     0.38530   0.34627   0.61629   0.00000  Uiso   1.00
C341   C     0.34483   0.43370   0.60025   0.00000  Uiso   1.00
C342   C     0.31077   0.48378   0.64646   0.00000  Uiso   1.00
C343   C     0.49259   0.29430   0.59702   0.00000  Uiso   1.00
C344   C     0.54233   0.33807   0.56479   0.00000  Uiso   1.00
C345   C     0.59860   0.34442   0.59479   0.00000  Uiso   1.00
H346   H     0.44327   0.18511   0.73041   0.00000  Uiso   1.00
H347   H     0.40938   0.97668   0.70535   0.00000  Uiso   1.00
H348   H     0.36235   0.33211   0.76907   0.00000  Uiso   1.00
H349   H     0.55981   0.23648   0.73362   0.00000  Uiso   1.00
H350   H     0.36904   0.76156   0.65109   0.00000  Uiso   1.00
H351   H     0.26988   0.51101   0.78545   0.00000  Uiso   1.00
H352   H     0.68628   0.30938   0.71069   0.00000  Uiso   1.00
H353   H     0.42212   0.30792   0.52631   0.00000  Uiso   1.00
H354   H     0.38707   0.10622   0.49005   0.00000  Uiso   1.00
H355   H     0.34003   0.46165   0.55377   0.00000  Uiso   1.00
H356   H     0.53750   0.36603   0.51832   0.00000  Uiso   1.00
H357   H     0.35093   0.86670   0.47634   0.00000  Uiso   1.00
H358   H     0.25177   0.61616   0.61070   0.00000  Uiso   1.00
H359   H     0.66817   0.41452   0.53594   0.00000  Uiso   1.00
O360   O     0.33728   0.67924   0.54355   0.00000  Uiso   1.00
O361   O     0.20720   0.66252   0.71982   0.00000  Uiso   1.00
O362   O     0.75351   0.39797   0.62174   0.00000  Uiso   1.00
N363   N     0.36960   0.81398   0.61494   0.00000  Uiso   1.00
N364   N     0.27688   0.51466   0.74055   0.00000  Uiso   1.00
N365   N     0.66618   0.32618   0.67067   0.00000  Uiso   1.00
N366   N     0.35985   0.87055   0.52090   0.00000  Uiso   1.00
N367   N     0.26714   0.57124   0.64652   0.00000  Uiso   1.00
N368   N     0.65643   0.38275   0.57663   0.00000  Uiso   1.00
