data_job_01181
_audit_creation_date              2018-12-19
_audit_creation_method            'Materials Studio'
_symmetry_space_group_name_H-M    'P1'
_symmetry_Int_Tables_number       1
_symmetry_cell_setting            triclinic
loop_
_symmetry_equiv_pos_as_xyz
  x,y,z
_cell_length_a                    30.0052
_cell_length_b                    17.8967
_cell_length_c                    21.7759
_cell_angle_alpha                 90.0000
_cell_angle_beta                  35.1684
_cell_angle_gamma                 90.0000
loop_
_atom_site_label
_atom_site_type_symbol
_atom_site_fract_x
_atom_site_fract_y
_atom_site_fract_z
_atom_site_U_iso_or_equiv
_atom_site_adp_type
_atom_site_occupancy
C1     C     0.66962   0.67879   0.90142   0.00000  Uiso   1.00
C2     C     0.69362   0.62160   0.82609   0.00000  Uiso   1.00
C3     C     0.65183   0.55855   0.85654   0.00000  Uiso   1.00
C4     C     0.68365   0.51321   0.77555   0.00000  Uiso   1.00
C5     C     0.71012   0.42179   0.67495   0.00000  Uiso   1.00
C6     C     0.73594   0.68215   0.87282   0.00000  Uiso   1.00
C7     C     0.72974   0.67002   0.94256   0.00000  Uiso   1.00
C8     C     0.79719   0.67566   0.90090   0.00000  Uiso   1.00
C9     C     0.88936   0.67830   0.87286   0.00000  Uiso   1.00
C10    C     0.66896   0.75426   0.86966   0.00000  Uiso   1.00
C11    C     0.60645   0.80276   0.93675   0.00000  Uiso   1.00
C12    C     0.61752   0.86911   0.89243   0.00000  Uiso   1.00
C13    C     0.60569   0.98370   0.85948   0.00000  Uiso   1.00
C14    C     0.80045   0.71039   0.70342   0.00000  Uiso   1.00
C15    C     0.76468   0.63877   0.71855   0.00000  Uiso   1.00
C16    C     0.79657   0.59351   0.63748   0.00000  Uiso   1.00
C17    C     0.75484   0.53041   0.66781   0.00000  Uiso   1.00
C18    C     0.80700   0.69932   0.76528   0.00000  Uiso   1.00
C19    C     0.87448   0.70498   0.72350   0.00000  Uiso   1.00
C20    C     0.86838   0.69286   0.79316   0.00000  Uiso   1.00
C21    C     0.74002   0.77142   0.76211   0.00000  Uiso   1.00
C22    C     0.75119   0.83772   0.71768   0.00000  Uiso   1.00
C23    C     0.68871   0.88631   0.78469   0.00000  Uiso   1.00
H24    H     0.61430   0.66543   0.98514   0.00000  Uiso   1.00
H25    H     0.59684   0.54528   0.93978   0.00000  Uiso   1.00
H26    H     0.67474   0.65675   0.02578   0.00000  Uiso   1.00
H27    H     0.55147   0.78946   0.01996   0.00000  Uiso   1.00
H28    H     0.60883   0.41964   0.84206   0.00000  Uiso   1.00
H29    H     0.77308   0.65469   0.02341   0.00000  Uiso   1.00
H30    H     0.51314   0.93454   0.01115   0.00000  Uiso   1.00
H31    H     0.85577   0.72375   0.61969   0.00000  Uiso   1.00
H32    H     0.85156   0.60681   0.55427   0.00000  Uiso   1.00
H33    H     0.92946   0.71827   0.64028   0.00000  Uiso   1.00
H34    H     0.80619   0.85098   0.63446   0.00000  Uiso   1.00
H35    H     0.81558   0.46958   0.52916   0.00000  Uiso   1.00
H36    H     0.97982   0.70463   0.71052   0.00000  Uiso   1.00
H37    H     0.71988   0.98447   0.69825   0.00000  Uiso   1.00
O38    O     0.70509   0.36661   0.64917   0.00000  Uiso   1.00
O39    O     0.92057   0.67500   0.88711   0.00000  Uiso   1.00
O40    O     0.57953   0.04215   0.87101   0.00000  Uiso   1.00
N41    N     0.65806   0.44745   0.77739   0.00000  Uiso   1.00
N42    N     0.81162   0.66719   0.94695   0.00000  Uiso   1.00
N43    N     0.56861   0.92884   0.93549   0.00000  Uiso   1.00
N44    N     0.76931   0.47432   0.60903   0.00000  Uiso   1.00
N45    N     0.92287   0.69406   0.77858   0.00000  Uiso   1.00
N46    N     0.67985   0.95571   0.76712   0.00000  Uiso   1.00
C47    C     0.16962   0.17879   0.90142   0.00000  Uiso   1.00
C48    C     0.19362   0.12160   0.82609   0.00000  Uiso   1.00
C49    C     0.15183   0.05855   0.85654   0.00000  Uiso   1.00
C50    C     0.18365   0.01321   0.77555   0.00000  Uiso   1.00
C51    C     0.21012   0.92179   0.67495   0.00000  Uiso   1.00
C52    C     0.23594   0.18215   0.87282   0.00000  Uiso   1.00
C53    C     0.22974   0.17002   0.94256   0.00000  Uiso   1.00
C54    C     0.29719   0.17566   0.90090   0.00000  Uiso   1.00
C55    C     0.38936   0.17830   0.87286   0.00000  Uiso   1.00
C56    C     0.16896   0.25426   0.86966   0.00000  Uiso   1.00
C57    C     0.10645   0.30276   0.93675   0.00000  Uiso   1.00
C58    C     0.11752   0.36911   0.89243   0.00000  Uiso   1.00
C59    C     0.10569   0.48370   0.85948   0.00000  Uiso   1.00
C60    C     0.30045   0.21039   0.70342   0.00000  Uiso   1.00
C61    C     0.26468   0.13877   0.71855   0.00000  Uiso   1.00
C62    C     0.29657   0.09351   0.63748   0.00000  Uiso   1.00
C63    C     0.25484   0.03041   0.66781   0.00000  Uiso   1.00
C64    C     0.30700   0.19932   0.76528   0.00000  Uiso   1.00
C65    C     0.37448   0.20498   0.72350   0.00000  Uiso   1.00
C66    C     0.36838   0.19286   0.79316   0.00000  Uiso   1.00
C67    C     0.24002   0.27142   0.76211   0.00000  Uiso   1.00
C68    C     0.25119   0.33772   0.71768   0.00000  Uiso   1.00
C69    C     0.18871   0.38631   0.78469   0.00000  Uiso   1.00
H70    H     0.11430   0.16543   0.98514   0.00000  Uiso   1.00
H71    H     0.09684   0.04528   0.93978   0.00000  Uiso   1.00
H72    H     0.17474   0.15675   0.02578   0.00000  Uiso   1.00
H73    H     0.05147   0.28946   0.01996   0.00000  Uiso   1.00
H74    H     0.10883   0.91964   0.84206   0.00000  Uiso   1.00
H75    H     0.27308   0.15469   0.02341   0.00000  Uiso   1.00
H76    H     0.01314   0.43454   0.01115   0.00000  Uiso   1.00
H77    H     0.35577   0.22375   0.61969   0.00000  Uiso   1.00
H78    H     0.35156   0.10681   0.55427   0.00000  Uiso   1.00
H79    H     0.42946   0.21827   0.64028   0.00000  Uiso   1.00
H80    H     0.30619   0.35098   0.63446   0.00000  Uiso   1.00
H81    H     0.31558   0.96958   0.52916   0.00000  Uiso   1.00
H82    H     0.47982   0.20463   0.71052   0.00000  Uiso   1.00
H83    H     0.21988   0.48447   0.69825   0.00000  Uiso   1.00
O84    O     0.20509   0.86661   0.64917   0.00000  Uiso   1.00
O85    O     0.42057   0.17500   0.88711   0.00000  Uiso   1.00
O86    O     0.07953   0.54215   0.87101   0.00000  Uiso   1.00
N87    N     0.15806   0.94745   0.77739   0.00000  Uiso   1.00
N88    N     0.31162   0.16719   0.94695   0.00000  Uiso   1.00
N89    N     0.06861   0.42884   0.93549   0.00000  Uiso   1.00
N90    N     0.26931   0.97432   0.60903   0.00000  Uiso   1.00
N91    N     0.42287   0.19406   0.77858   0.00000  Uiso   1.00
N92    N     0.17985   0.45571   0.76712   0.00000  Uiso   1.00
C93    C     0.33038   0.67879   0.59858   0.00000  Uiso   1.00
C94    C     0.30638   0.62160   0.67391   0.00000  Uiso   1.00
C95    C     0.34817   0.55855   0.64346   0.00000  Uiso   1.00
C96    C     0.31635   0.51321   0.72445   0.00000  Uiso   1.00
C97    C     0.28988   0.42179   0.82505   0.00000  Uiso   1.00
C98    C     0.26406   0.68215   0.62718   0.00000  Uiso   1.00
C99    C     0.27026   0.67002   0.55744   0.00000  Uiso   1.00
C100   C     0.20281   0.67566   0.59910   0.00000  Uiso   1.00
C101   C     0.11064   0.67830   0.62714   0.00000  Uiso   1.00
C102   C     0.33104   0.75426   0.63034   0.00000  Uiso   1.00
C103   C     0.39355   0.80276   0.56325   0.00000  Uiso   1.00
C104   C     0.38248   0.86911   0.60757   0.00000  Uiso   1.00
C105   C     0.39431   0.98370   0.64052   0.00000  Uiso   1.00
C106   C     0.19955   0.71039   0.79658   0.00000  Uiso   1.00
C107   C     0.23532   0.63877   0.78145   0.00000  Uiso   1.00
C108   C     0.20343   0.59351   0.86252   0.00000  Uiso   1.00
C109   C     0.24516   0.53041   0.83219   0.00000  Uiso   1.00
C110   C     0.19300   0.69932   0.73472   0.00000  Uiso   1.00
C111   C     0.12552   0.70498   0.77650   0.00000  Uiso   1.00
C112   C     0.13162   0.69286   0.70684   0.00000  Uiso   1.00
C113   C     0.25998   0.77142   0.73789   0.00000  Uiso   1.00
C114   C     0.24881   0.83772   0.78232   0.00000  Uiso   1.00
C115   C     0.31129   0.88631   0.71531   0.00000  Uiso   1.00
H116   H     0.38570   0.66543   0.51486   0.00000  Uiso   1.00
H117   H     0.40316   0.54528   0.56022   0.00000  Uiso   1.00
H118   H     0.32526   0.65675   0.47422   0.00000  Uiso   1.00
H119   H     0.44853   0.78946   0.48004   0.00000  Uiso   1.00
H120   H     0.39117   0.41964   0.65794   0.00000  Uiso   1.00
H121   H     0.22692   0.65469   0.47659   0.00000  Uiso   1.00
H122   H     0.48686   0.93454   0.48885   0.00000  Uiso   1.00
H123   H     0.14423   0.72375   0.88031   0.00000  Uiso   1.00
H124   H     0.14844   0.60681   0.94573   0.00000  Uiso   1.00
H125   H     0.07054   0.71827   0.85972   0.00000  Uiso   1.00
H126   H     0.19381   0.85098   0.86554   0.00000  Uiso   1.00
H127   H     0.18442   0.46958   0.97084   0.00000  Uiso   1.00
H128   H     0.02018   0.70463   0.78948   0.00000  Uiso   1.00
H129   H     0.28012   0.98447   0.80175   0.00000  Uiso   1.00
O130   O     0.29491   0.36661   0.85083   0.00000  Uiso   1.00
O131   O     0.07943   0.67500   0.61289   0.00000  Uiso   1.00
O132   O     0.42047   0.04215   0.62899   0.00000  Uiso   1.00
N133   N     0.34194   0.44745   0.72261   0.00000  Uiso   1.00
N134   N     0.18838   0.66719   0.55305   0.00000  Uiso   1.00
N135   N     0.43139   0.92884   0.56451   0.00000  Uiso   1.00
N136   N     0.23069   0.47432   0.89097   0.00000  Uiso   1.00
N137   N     0.07713   0.69406   0.72142   0.00000  Uiso   1.00
N138   N     0.32015   0.95571   0.73288   0.00000  Uiso   1.00
C139   C     0.83038   0.17879   0.59858   0.00000  Uiso   1.00
C140   C     0.80638   0.12160   0.67391   0.00000  Uiso   1.00
C141   C     0.84817   0.05855   0.64346   0.00000  Uiso   1.00
C142   C     0.81635   0.01321   0.72445   0.00000  Uiso   1.00
C143   C     0.78988   0.92179   0.82505   0.00000  Uiso   1.00
C144   C     0.76406   0.18215   0.62718   0.00000  Uiso   1.00
C145   C     0.77026   0.17002   0.55744   0.00000  Uiso   1.00
C146   C     0.70281   0.17566   0.59910   0.00000  Uiso   1.00
C147   C     0.61064   0.17830   0.62714   0.00000  Uiso   1.00
C148   C     0.83104   0.25426   0.63034   0.00000  Uiso   1.00
C149   C     0.89355   0.30276   0.56325   0.00000  Uiso   1.00
C150   C     0.88248   0.36911   0.60757   0.00000  Uiso   1.00
C151   C     0.89431   0.48370   0.64052   0.00000  Uiso   1.00
C152   C     0.69955   0.21039   0.79658   0.00000  Uiso   1.00
C153   C     0.73532   0.13877   0.78145   0.00000  Uiso   1.00
C154   C     0.70343   0.09351   0.86252   0.00000  Uiso   1.00
C155   C     0.74516   0.03041   0.83219   0.00000  Uiso   1.00
C156   C     0.69300   0.19932   0.73472   0.00000  Uiso   1.00
C157   C     0.62552   0.20498   0.77650   0.00000  Uiso   1.00
C158   C     0.63162   0.19286   0.70684   0.00000  Uiso   1.00
C159   C     0.75998   0.27142   0.73789   0.00000  Uiso   1.00
C160   C     0.74881   0.33772   0.78232   0.00000  Uiso   1.00
C161   C     0.81129   0.38631   0.71531   0.00000  Uiso   1.00
H162   H     0.88570   0.16543   0.51486   0.00000  Uiso   1.00
H163   H     0.90316   0.04528   0.56022   0.00000  Uiso   1.00
H164   H     0.82526   0.15675   0.47422   0.00000  Uiso   1.00
H165   H     0.94853   0.28946   0.48004   0.00000  Uiso   1.00
H166   H     0.89117   0.91964   0.65794   0.00000  Uiso   1.00
H167   H     0.72692   0.15469   0.47659   0.00000  Uiso   1.00
H168   H     0.98686   0.43454   0.48885   0.00000  Uiso   1.00
H169   H     0.64423   0.22375   0.88031   0.00000  Uiso   1.00
H170   H     0.64844   0.10681   0.94573   0.00000  Uiso   1.00
H171   H     0.57054   0.21827   0.85972   0.00000  Uiso   1.00
H172   H     0.69381   0.35098   0.86554   0.00000  Uiso   1.00
H173   H     0.68442   0.96958   0.97084   0.00000  Uiso   1.00
H174   H     0.52018   0.20463   0.78948   0.00000  Uiso   1.00
H175   H     0.78012   0.48447   0.80175   0.00000  Uiso   1.00
O176   O     0.79491   0.86661   0.85083   0.00000  Uiso   1.00
O177   O     0.57943   0.17500   0.61289   0.00000  Uiso   1.00
O178   O     0.92047   0.54215   0.62899   0.00000  Uiso   1.00
N179   N     0.84194   0.94745   0.72261   0.00000  Uiso   1.00
N180   N     0.68838   0.16719   0.55305   0.00000  Uiso   1.00
N181   N     0.93139   0.42884   0.56451   0.00000  Uiso   1.00
N182   N     0.73069   0.97432   0.89097   0.00000  Uiso   1.00
N183   N     0.57713   0.19406   0.72142   0.00000  Uiso   1.00
N184   N     0.82015   0.45571   0.73288   0.00000  Uiso   1.00
C185   C     0.33038   0.32121   0.09858   0.00000  Uiso   1.00
C186   C     0.30638   0.37840   0.17391   0.00000  Uiso   1.00
C187   C     0.34817   0.44145   0.14346   0.00000  Uiso   1.00
C188   C     0.31635   0.48679   0.22445   0.00000  Uiso   1.00
C189   C     0.28988   0.57821   0.32505   0.00000  Uiso   1.00
C190   C     0.26406   0.31785   0.12718   0.00000  Uiso   1.00
C191   C     0.27026   0.32998   0.05744   0.00000  Uiso   1.00
C192   C     0.20281   0.32434   0.09910   0.00000  Uiso   1.00
C193   C     0.11064   0.32170   0.12714   0.00000  Uiso   1.00
C194   C     0.33104   0.24574   0.13034   0.00000  Uiso   1.00
C195   C     0.39355   0.19724   0.06325   0.00000  Uiso   1.00
C196   C     0.38248   0.13089   0.10757   0.00000  Uiso   1.00
C197   C     0.39431   0.01630   0.14052   0.00000  Uiso   1.00
C198   C     0.19955   0.28961   0.29658   0.00000  Uiso   1.00
C199   C     0.23532   0.36123   0.28145   0.00000  Uiso   1.00
C200   C     0.20343   0.40649   0.36252   0.00000  Uiso   1.00
C201   C     0.24516   0.46959   0.33219   0.00000  Uiso   1.00
C202   C     0.19300   0.30068   0.23472   0.00000  Uiso   1.00
C203   C     0.12552   0.29502   0.27650   0.00000  Uiso   1.00
C204   C     0.13162   0.30714   0.20684   0.00000  Uiso   1.00
C205   C     0.25998   0.22858   0.23789   0.00000  Uiso   1.00
C206   C     0.24881   0.16228   0.28232   0.00000  Uiso   1.00
C207   C     0.31129   0.11369   0.21531   0.00000  Uiso   1.00
H208   H     0.38570   0.33457   0.01486   0.00000  Uiso   1.00
H209   H     0.40316   0.45472   0.06022   0.00000  Uiso   1.00
H210   H     0.32526   0.34325   0.97422   0.00000  Uiso   1.00
H211   H     0.44853   0.21054   0.98004   0.00000  Uiso   1.00
H212   H     0.39117   0.58036   0.15794   0.00000  Uiso   1.00
H213   H     0.22692   0.34531   0.97659   0.00000  Uiso   1.00
H214   H     0.48686   0.06546   0.98885   0.00000  Uiso   1.00
H215   H     0.14423   0.27625   0.38031   0.00000  Uiso   1.00
H216   H     0.14844   0.39319   0.44573   0.00000  Uiso   1.00
H217   H     0.07054   0.28173   0.35972   0.00000  Uiso   1.00
H218   H     0.19381   0.14902   0.36554   0.00000  Uiso   1.00
H219   H     0.18442   0.53042   0.47084   0.00000  Uiso   1.00
H220   H     0.02018   0.29537   0.28948   0.00000  Uiso   1.00
H221   H     0.28012   0.01553   0.30175   0.00000  Uiso   1.00
O222   O     0.29491   0.63339   0.35083   0.00000  Uiso   1.00
O223   O     0.07943   0.32500   0.11289   0.00000  Uiso   1.00
O224   O     0.42047   0.95785   0.12899   0.00000  Uiso   1.00
N225   N     0.34194   0.55255   0.22261   0.00000  Uiso   1.00
N226   N     0.18838   0.33281   0.05305   0.00000  Uiso   1.00
N227   N     0.43139   0.07116   0.06451   0.00000  Uiso   1.00
N228   N     0.23069   0.52568   0.39097   0.00000  Uiso   1.00
N229   N     0.07713   0.30594   0.22142   0.00000  Uiso   1.00
N230   N     0.32015   0.04429   0.23288   0.00000  Uiso   1.00
C231   C     0.83038   0.82121   0.09858   0.00000  Uiso   1.00
C232   C     0.80638   0.87840   0.17391   0.00000  Uiso   1.00
C233   C     0.84817   0.94145   0.14346   0.00000  Uiso   1.00
C234   C     0.81635   0.98679   0.22445   0.00000  Uiso   1.00
C235   C     0.78988   0.07821   0.32505   0.00000  Uiso   1.00
C236   C     0.76406   0.81785   0.12718   0.00000  Uiso   1.00
C237   C     0.77026   0.82998   0.05744   0.00000  Uiso   1.00
C238   C     0.70281   0.82434   0.09910   0.00000  Uiso   1.00
C239   C     0.61064   0.82170   0.12714   0.00000  Uiso   1.00
C240   C     0.83104   0.74574   0.13034   0.00000  Uiso   1.00
C241   C     0.89355   0.69724   0.06325   0.00000  Uiso   1.00
C242   C     0.88248   0.63089   0.10757   0.00000  Uiso   1.00
C243   C     0.89431   0.51630   0.14052   0.00000  Uiso   1.00
C244   C     0.69955   0.78961   0.29658   0.00000  Uiso   1.00
C245   C     0.73532   0.86123   0.28145   0.00000  Uiso   1.00
C246   C     0.70343   0.90649   0.36252   0.00000  Uiso   1.00
C247   C     0.74516   0.96959   0.33219   0.00000  Uiso   1.00
C248   C     0.69300   0.80068   0.23472   0.00000  Uiso   1.00
C249   C     0.62552   0.79502   0.27650   0.00000  Uiso   1.00
C250   C     0.63162   0.80714   0.20684   0.00000  Uiso   1.00
C251   C     0.75998   0.72858   0.23789   0.00000  Uiso   1.00
C252   C     0.74881   0.66228   0.28232   0.00000  Uiso   1.00
C253   C     0.81129   0.61369   0.21531   0.00000  Uiso   1.00
H254   H     0.88570   0.83457   0.01486   0.00000  Uiso   1.00
H255   H     0.90316   0.95472   0.06022   0.00000  Uiso   1.00
H256   H     0.82526   0.84325   0.97422   0.00000  Uiso   1.00
H257   H     0.94853   0.71054   0.98004   0.00000  Uiso   1.00
H258   H     0.89117   0.08036   0.15794   0.00000  Uiso   1.00
H259   H     0.72692   0.84531   0.97659   0.00000  Uiso   1.00
H260   H     0.98686   0.56546   0.98885   0.00000  Uiso   1.00
H261   H     0.64423   0.77625   0.38031   0.00000  Uiso   1.00
H262   H     0.64844   0.89319   0.44573   0.00000  Uiso   1.00
H263   H     0.57054   0.78173   0.35972   0.00000  Uiso   1.00
H264   H     0.69381   0.64902   0.36554   0.00000  Uiso   1.00
H265   H     0.68442   0.03042   0.47084   0.00000  Uiso   1.00
H266   H     0.52018   0.79537   0.28948   0.00000  Uiso   1.00
H267   H     0.78012   0.51553   0.30175   0.00000  Uiso   1.00
O268   O     0.79491   0.13339   0.35083   0.00000  Uiso   1.00
O269   O     0.57943   0.82500   0.11289   0.00000  Uiso   1.00
O270   O     0.92047   0.45785   0.12899   0.00000  Uiso   1.00
N271   N     0.84194   0.05255   0.22261   0.00000  Uiso   1.00
N272   N     0.68838   0.83281   0.05305   0.00000  Uiso   1.00
N273   N     0.93139   0.57116   0.06451   0.00000  Uiso   1.00
N274   N     0.73069   0.02568   0.39097   0.00000  Uiso   1.00
N275   N     0.57713   0.80594   0.22142   0.00000  Uiso   1.00
N276   N     0.82015   0.54429   0.23288   0.00000  Uiso   1.00
C277   C     0.66962   0.32121   0.40142   0.00000  Uiso   1.00
C278   C     0.69362   0.37840   0.32609   0.00000  Uiso   1.00
C279   C     0.65183   0.44145   0.35654   0.00000  Uiso   1.00
C280   C     0.68365   0.48679   0.27555   0.00000  Uiso   1.00
C281   C     0.71012   0.57821   0.17495   0.00000  Uiso   1.00
C282   C     0.73594   0.31785   0.37282   0.00000  Uiso   1.00
C283   C     0.72974   0.32998   0.44256   0.00000  Uiso   1.00
C284   C     0.79719   0.32434   0.40090   0.00000  Uiso   1.00
C285   C     0.88936   0.32170   0.37286   0.00000  Uiso   1.00
C286   C     0.66896   0.24574   0.36966   0.00000  Uiso   1.00
C287   C     0.60645   0.19724   0.43675   0.00000  Uiso   1.00
C288   C     0.61752   0.13089   0.39243   0.00000  Uiso   1.00
C289   C     0.60569   0.01630   0.35948   0.00000  Uiso   1.00
C290   C     0.80045   0.28961   0.20342   0.00000  Uiso   1.00
C291   C     0.76468   0.36123   0.21855   0.00000  Uiso   1.00
C292   C     0.79657   0.40649   0.13748   0.00000  Uiso   1.00
C293   C     0.75484   0.46959   0.16781   0.00000  Uiso   1.00
C294   C     0.80700   0.30068   0.26528   0.00000  Uiso   1.00
C295   C     0.87448   0.29502   0.22350   0.00000  Uiso   1.00
C296   C     0.86838   0.30714   0.29316   0.00000  Uiso   1.00
C297   C     0.74002   0.22858   0.26211   0.00000  Uiso   1.00
C298   C     0.75119   0.16228   0.21768   0.00000  Uiso   1.00
C299   C     0.68871   0.11369   0.28469   0.00000  Uiso   1.00
H300   H     0.61430   0.33457   0.48514   0.00000  Uiso   1.00
H301   H     0.59684   0.45472   0.43978   0.00000  Uiso   1.00
H302   H     0.67474   0.34325   0.52578   0.00000  Uiso   1.00
H303   H     0.55147   0.21054   0.51996   0.00000  Uiso   1.00
H304   H     0.60883   0.58036   0.34206   0.00000  Uiso   1.00
H305   H     0.77308   0.34531   0.52341   0.00000  Uiso   1.00
H306   H     0.51314   0.06546   0.51115   0.00000  Uiso   1.00
H307   H     0.85577   0.27625   0.11969   0.00000  Uiso   1.00
H308   H     0.85156   0.39319   0.05427   0.00000  Uiso   1.00
H309   H     0.92946   0.28173   0.14028   0.00000  Uiso   1.00
H310   H     0.80619   0.14902   0.13446   0.00000  Uiso   1.00
H311   H     0.81558   0.53042   0.02916   0.00000  Uiso   1.00
H312   H     0.97982   0.29537   0.21052   0.00000  Uiso   1.00
H313   H     0.71988   0.01553   0.19825   0.00000  Uiso   1.00
O314   O     0.70509   0.63339   0.14917   0.00000  Uiso   1.00
O315   O     0.92057   0.32500   0.38711   0.00000  Uiso   1.00
O316   O     0.57953   0.95785   0.37101   0.00000  Uiso   1.00
N317   N     0.65806   0.55255   0.27739   0.00000  Uiso   1.00
N318   N     0.81162   0.33281   0.44695   0.00000  Uiso   1.00
N319   N     0.56861   0.07116   0.43549   0.00000  Uiso   1.00
N320   N     0.76931   0.52568   0.10903   0.00000  Uiso   1.00
N321   N     0.92287   0.30594   0.27858   0.00000  Uiso   1.00
N322   N     0.67985   0.04429   0.26712   0.00000  Uiso   1.00
C323   C     0.16962   0.82121   0.40142   0.00000  Uiso   1.00
C324   C     0.19362   0.87840   0.32609   0.00000  Uiso   1.00
C325   C     0.15183   0.94145   0.35654   0.00000  Uiso   1.00
C326   C     0.18365   0.98679   0.27555   0.00000  Uiso   1.00
C327   C     0.21012   0.07821   0.17495   0.00000  Uiso   1.00
C328   C     0.23594   0.81785   0.37282   0.00000  Uiso   1.00
C329   C     0.22974   0.82998   0.44256   0.00000  Uiso   1.00
C330   C     0.29719   0.82434   0.40090   0.00000  Uiso   1.00
C331   C     0.38936   0.82170   0.37286   0.00000  Uiso   1.00
C332   C     0.16896   0.74574   0.36966   0.00000  Uiso   1.00
C333   C     0.10645   0.69724   0.43675   0.00000  Uiso   1.00
C334   C     0.11752   0.63089   0.39243   0.00000  Uiso   1.00
C335   C     0.10569   0.51630   0.35948   0.00000  Uiso   1.00
C336   C     0.30045   0.78961   0.20342   0.00000  Uiso   1.00
C337   C     0.26468   0.86123   0.21855   0.00000  Uiso   1.00
C338   C     0.29657   0.90649   0.13748   0.00000  Uiso   1.00
C339   C     0.25484   0.96959   0.16781   0.00000  Uiso   1.00
C340   C     0.30700   0.80068   0.26528   0.00000  Uiso   1.00
C341   C     0.37448   0.79502   0.22350   0.00000  Uiso   1.00
C342   C     0.36838   0.80714   0.29316   0.00000  Uiso   1.00
C343   C     0.24002   0.72858   0.26211   0.00000  Uiso   1.00
C344   C     0.25119   0.66228   0.21768   0.00000  Uiso   1.00
C345   C     0.18871   0.61369   0.28469   0.00000  Uiso   1.00
H346   H     0.11430   0.83457   0.48514   0.00000  Uiso   1.00
H347   H     0.09684   0.95472   0.43978   0.00000  Uiso   1.00
H348   H     0.17474   0.84325   0.52578   0.00000  Uiso   1.00
H349   H     0.05147   0.71054   0.51996   0.00000  Uiso   1.00
H350   H     0.10883   0.08036   0.34206   0.00000  Uiso   1.00
H351   H     0.27308   0.84531   0.52341   0.00000  Uiso   1.00
H352   H     0.01314   0.56546   0.51115   0.00000  Uiso   1.00
H353   H     0.35577   0.77625   0.11969   0.00000  Uiso   1.00
H354   H     0.35156   0.89319   0.05427   0.00000  Uiso   1.00
H355   H     0.42946   0.78173   0.14028   0.00000  Uiso   1.00
H356   H     0.30619   0.64902   0.13446   0.00000  Uiso   1.00
H357   H     0.31558   0.03042   0.02916   0.00000  Uiso   1.00
H358   H     0.47982   0.79537   0.21052   0.00000  Uiso   1.00
H359   H     0.21988   0.51553   0.19825   0.00000  Uiso   1.00
O360   O     0.20509   0.13339   0.14917   0.00000  Uiso   1.00
O361   O     0.42057   0.82500   0.38711   0.00000  Uiso   1.00
O362   O     0.07953   0.45785   0.37101   0.00000  Uiso   1.00
N363   N     0.15806   0.05255   0.27739   0.00000  Uiso   1.00
N364   N     0.31162   0.83281   0.44695   0.00000  Uiso   1.00
N365   N     0.06861   0.57116   0.43549   0.00000  Uiso   1.00
N366   N     0.26931   0.02568   0.10903   0.00000  Uiso   1.00
N367   N     0.42287   0.80594   0.27858   0.00000  Uiso   1.00
N368   N     0.17985   0.54429   0.26712   0.00000  Uiso   1.00
