data_job_04407
_audit_creation_date              2018-12-19
_audit_creation_method            'Materials Studio'
_symmetry_space_group_name_H-M    'P1'
_symmetry_Int_Tables_number       1
_symmetry_cell_setting            triclinic
loop_
_symmetry_equiv_pos_as_xyz
  x,y,z
_cell_length_a                    12.4693
_cell_length_b                    31.7677
_cell_length_c                    10.7677
_cell_angle_alpha                 90.0000
_cell_angle_beta                  86.5956
_cell_angle_gamma                 90.0000
loop_
_atom_site_label
_atom_site_type_symbol
_atom_site_fract_x
_atom_site_fract_y
_atom_site_fract_z
_atom_site_U_iso_or_equiv
_atom_site_adp_type
_atom_site_occupancy
C1     C     0.44349   0.64858   0.20683   0.00000  Uiso   1.00
C2     C     0.33692   0.65338   0.28256   0.00000  Uiso   1.00
C3     C     0.27698   0.69010   0.29530   0.00000  Uiso   1.00
C4     C     0.18171   0.68802   0.36862   0.00000  Uiso   1.00
C5     C     0.02143   0.70118   0.47737   0.00000  Uiso   1.00
C6     C     0.52345   0.63206   0.29693   0.00000  Uiso   1.00
C7     C     0.62036   0.65085   0.32172   0.00000  Uiso   1.00
C8     C     0.68212   0.63082   0.40713   0.00000  Uiso   1.00
C9     C     0.81148   0.61087   0.53811   0.00000  Uiso   1.00
C10    C     0.42720   0.61301   0.11474   0.00000  Uiso   1.00
C11    C     0.44319   0.61578   0.98635   0.00000  Uiso   1.00
C12    C     0.42393   0.57970   0.91836   0.00000  Uiso   1.00
C13    C     0.40383   0.53018   0.76647   0.00000  Uiso   1.00
C14    C     0.38088   0.57958   0.31440   0.00000  Uiso   1.00
C15    C     0.30291   0.61590   0.34099   0.00000  Uiso   1.00
C16    C     0.20770   0.61376   0.41431   0.00000  Uiso   1.00
C17    C     0.14763   0.65047   0.42715   0.00000  Uiso   1.00
C18    C     0.48945   0.59459   0.35535   0.00000  Uiso   1.00
C19    C     0.55108   0.57452   0.44073   0.00000  Uiso   1.00
C20    C     0.64805   0.59328   0.46566   0.00000  Uiso   1.00
C21    C     0.39318   0.57553   0.17316   0.00000  Uiso   1.00
C22    C     0.37391   0.53945   0.10536   0.00000  Uiso   1.00
C23    C     0.38986   0.54216   0.97689   0.00000  Uiso   1.00
H24    H     0.46998   0.67775   0.16135   0.00000  Uiso   1.00
H25    H     0.30334   0.71909   0.25008   0.00000  Uiso   1.00
H26    H     0.64666   0.67985   0.27649   0.00000  Uiso   1.00
H27    H     0.46951   0.64478   0.94117   0.00000  Uiso   1.00
H28    H     0.10360   0.74841   0.37425   0.00000  Uiso   1.00
H29    H     0.82754   0.66566   0.42990   0.00000  Uiso   1.00
H30    H     0.45400   0.59171   0.72281   0.00000  Uiso   1.00
H31    H     0.35440   0.55041   0.35989   0.00000  Uiso   1.00
H32    H     0.18140   0.58476   0.45951   0.00000  Uiso   1.00
H33    H     0.52474   0.54552   0.48592   0.00000  Uiso   1.00
H34    H     0.34759   0.51045   0.15060   0.00000  Uiso   1.00
H35    H     0.00464   0.63938   0.54424   0.00000  Uiso   1.00
H36    H     0.72859   0.55663   0.59989   0.00000  Uiso   1.00
H37    H     0.35504   0.48268   0.89280   0.00000  Uiso   1.00
O38    O     0.94243   0.71879   0.52123   0.00000  Uiso   1.00
O39    O     0.89222   0.61023   0.59422   0.00000  Uiso   1.00
O40    O     0.40213   0.51321   0.66654   0.00000  Uiso   1.00
N41    N     0.10404   0.71803   0.40057   0.00000  Uiso   1.00
N42    N     0.78088   0.64067   0.45261   0.00000  Uiso   1.00
N43    N     0.43167   0.57153   0.79154   0.00000  Uiso   1.00
N44    N     0.05079   0.65936   0.49204   0.00000  Uiso   1.00
N45    N     0.72763   0.58200   0.54408   0.00000  Uiso   1.00
N46    N     0.37842   0.51286   0.88301   0.00000  Uiso   1.00
C47    C     0.02561   0.33981   0.91557   0.00000  Uiso   1.00
C48    C     0.12912   0.32724   0.97453   0.00000  Uiso   1.00
C49    C     0.19478   0.29362   0.93825   0.00000  Uiso   1.00
C50    C     0.28592   0.28736   0.00400   0.00000  Uiso   1.00
C51    C     0.44288   0.26382   0.08061   0.00000  Uiso   1.00
C52    C     0.93824   0.33994   0.02086   0.00000  Uiso   1.00
C53    C     0.84341   0.31700   0.02351   0.00000  Uiso   1.00
C54    C     0.77386   0.32144   0.12825   0.00000  Uiso   1.00
C55    C     0.63445   0.31764   0.27674   0.00000  Uiso   1.00
C56    C     0.04037   0.38559   0.87557   0.00000  Uiso   1.00
C57    C     0.03138   0.40103   0.75606   0.00000  Uiso   1.00
C58    C     0.04778   0.44390   0.73848   0.00000  Uiso   1.00
C59    C     0.06694   0.51097   0.66139   0.00000  Uiso   1.00
C60    C     0.07070   0.38848   0.09685   0.00000  Uiso   1.00
C61    C     0.15360   0.35368   0.07300   0.00000  Uiso   1.00
C62    C     0.24466   0.34747   0.13881   0.00000  Uiso   1.00
C63    C     0.31045   0.31385   0.10264   0.00000  Uiso   1.00
C64    C     0.96273   0.36638   0.11932   0.00000  Uiso   1.00
C65    C     0.89330   0.37086   0.22407   0.00000  Uiso   1.00
C66    C     0.79839   0.34792   0.22689   0.00000  Uiso   1.00
C67    C     0.06486   0.41203   0.97403   0.00000  Uiso   1.00
C68    C     0.08127   0.45488   0.95663   0.00000  Uiso   1.00
C69    C     0.07231   0.47039   0.83713   0.00000  Uiso   1.00
H70    H     0.00654   0.31922   0.83892   0.00000  Uiso   1.00
H71    H     0.17580   0.27316   0.86206   0.00000  Uiso   1.00
H72    H     0.82448   0.29655   0.94730   0.00000  Uiso   1.00
H73    H     0.01243   0.38056   0.67989   0.00000  Uiso   1.00
H74    H     0.37423   0.23375   0.93116   0.00000  Uiso   1.00
H75    H     0.63344   0.28306   0.11087   0.00000  Uiso   1.00
H76    H     0.02975   0.46022   0.54700   0.00000  Uiso   1.00
H77    H     0.08976   0.40907   0.17351   0.00000  Uiso   1.00
H78    H     0.26359   0.36794   0.21501   0.00000  Uiso   1.00
H79    H     0.91227   0.39132   0.30025   0.00000  Uiso   1.00
H80    H     0.10022   0.47533   0.03285   0.00000  Uiso   1.00
H81    H     0.44548   0.31067   0.21763   0.00000  Uiso   1.00
H82    H     0.70469   0.35999   0.39734   0.00000  Uiso   1.00
H83    H     0.10101   0.53715   0.83347   0.00000  Uiso   1.00
O84    O     0.52268   0.24353   0.09568   0.00000  Uiso   1.00
O85    O     0.55079   0.30823   0.33144   0.00000  Uiso   1.00
O86    O     0.07075   0.54066   0.59166   0.00000  Uiso   1.00
N87    N     0.36715   0.25750   0.99287   0.00000  Uiso   1.00
N88    N     0.67457   0.30360   0.16090   0.00000  Uiso   1.00
N89    N     0.04506   0.46923   0.63373   0.00000  Uiso   1.00
N90    N     0.40550   0.29889   0.14702   0.00000  Uiso   1.00
N91    N     0.71291   0.34499   0.31504   0.00000  Uiso   1.00
N92    N     0.08340   0.51063   0.78788   0.00000  Uiso   1.00
C93    C     0.55651   0.14858   0.29317   0.00000  Uiso   1.00
C94    C     0.66308   0.15338   0.21744   0.00000  Uiso   1.00
C95    C     0.72302   0.19010   0.20470   0.00000  Uiso   1.00
C96    C     0.81829   0.18802   0.13138   0.00000  Uiso   1.00
C97    C     0.97857   0.20118   0.02263   0.00000  Uiso   1.00
C98    C     0.47655   0.13206   0.20307   0.00000  Uiso   1.00
C99    C     0.37964   0.15085   0.17828   0.00000  Uiso   1.00
C100   C     0.31788   0.13082   0.09287   0.00000  Uiso   1.00
C101   C     0.18852   0.11087   0.96189   0.00000  Uiso   1.00
C102   C     0.57280   0.11301   0.38526   0.00000  Uiso   1.00
C103   C     0.55681   0.11578   0.51365   0.00000  Uiso   1.00
C104   C     0.57607   0.07970   0.58164   0.00000  Uiso   1.00
C105   C     0.59617   0.03018   0.73353   0.00000  Uiso   1.00
C106   C     0.61912   0.07958   0.18560   0.00000  Uiso   1.00
C107   C     0.69709   0.11590   0.15901   0.00000  Uiso   1.00
C108   C     0.79230   0.11376   0.08569   0.00000  Uiso   1.00
C109   C     0.85237   0.15047   0.07285   0.00000  Uiso   1.00
C110   C     0.51055   0.09459   0.14465   0.00000  Uiso   1.00
C111   C     0.44892   0.07452   0.05927   0.00000  Uiso   1.00
C112   C     0.35195   0.09328   0.03434   0.00000  Uiso   1.00
C113   C     0.60682   0.07553   0.32684   0.00000  Uiso   1.00
C114   C     0.62609   0.03945   0.39464   0.00000  Uiso   1.00
C115   C     0.61014   0.04216   0.52311   0.00000  Uiso   1.00
H116   H     0.53002   0.17775   0.33865   0.00000  Uiso   1.00
H117   H     0.69666   0.21909   0.24992   0.00000  Uiso   1.00
H118   H     0.35334   0.17985   0.22351   0.00000  Uiso   1.00
H119   H     0.53049   0.14478   0.55883   0.00000  Uiso   1.00
H120   H     0.89640   0.24841   0.12575   0.00000  Uiso   1.00
H121   H     0.17246   0.16566   0.07010   0.00000  Uiso   1.00
H122   H     0.54600   0.09171   0.77719   0.00000  Uiso   1.00
H123   H     0.64560   0.05041   0.14011   0.00000  Uiso   1.00
H124   H     0.81860   0.08476   0.04049   0.00000  Uiso   1.00
H125   H     0.47526   0.04552   0.01408   0.00000  Uiso   1.00
H126   H     0.65241   0.01045   0.34940   0.00000  Uiso   1.00
H127   H     0.99536   0.13938   0.95576   0.00000  Uiso   1.00
H128   H     0.27141   0.05663   0.90011   0.00000  Uiso   1.00
H129   H     0.64496   0.98268   0.60720   0.00000  Uiso   1.00
O130   O     0.05757   0.21879   0.97877   0.00000  Uiso   1.00
O131   O     0.10778   0.11023   0.90578   0.00000  Uiso   1.00
O132   O     0.59787   0.01321   0.83346   0.00000  Uiso   1.00
N133   N     0.89596   0.21803   0.09943   0.00000  Uiso   1.00
N134   N     0.21912   0.14067   0.04739   0.00000  Uiso   1.00
N135   N     0.56833   0.07153   0.70846   0.00000  Uiso   1.00
N136   N     0.94921   0.15936   0.00796   0.00000  Uiso   1.00
N137   N     0.27237   0.08200   0.95592   0.00000  Uiso   1.00
N138   N     0.62158   0.01286   0.61699   0.00000  Uiso   1.00
C139   C     0.97439   0.83981   0.58443   0.00000  Uiso   1.00
C140   C     0.87088   0.82724   0.52547   0.00000  Uiso   1.00
C141   C     0.80522   0.79362   0.56175   0.00000  Uiso   1.00
C142   C     0.71408   0.78736   0.49600   0.00000  Uiso   1.00
C143   C     0.55712   0.76382   0.41939   0.00000  Uiso   1.00
C144   C     0.06176   0.83994   0.47914   0.00000  Uiso   1.00
C145   C     0.15659   0.81700   0.47649   0.00000  Uiso   1.00
C146   C     0.22614   0.82144   0.37175   0.00000  Uiso   1.00
C147   C     0.36555   0.81764   0.22326   0.00000  Uiso   1.00
C148   C     0.95963   0.88559   0.62443   0.00000  Uiso   1.00
C149   C     0.96862   0.90103   0.74394   0.00000  Uiso   1.00
C150   C     0.95222   0.94390   0.76152   0.00000  Uiso   1.00
C151   C     0.93306   0.01097   0.83861   0.00000  Uiso   1.00
C152   C     0.92930   0.88848   0.40315   0.00000  Uiso   1.00
C153   C     0.84640   0.85368   0.42700   0.00000  Uiso   1.00
C154   C     0.75534   0.84747   0.36119   0.00000  Uiso   1.00
C155   C     0.68955   0.81385   0.39736   0.00000  Uiso   1.00
C156   C     0.03727   0.86638   0.38068   0.00000  Uiso   1.00
C157   C     0.10670   0.87086   0.27593   0.00000  Uiso   1.00
C158   C     0.20161   0.84792   0.27311   0.00000  Uiso   1.00
C159   C     0.93514   0.91203   0.52597   0.00000  Uiso   1.00
C160   C     0.91873   0.95488   0.54337   0.00000  Uiso   1.00
C161   C     0.92769   0.97039   0.66287   0.00000  Uiso   1.00
H162   H     0.99346   0.81922   0.66108   0.00000  Uiso   1.00
H163   H     0.82420   0.77316   0.63794   0.00000  Uiso   1.00
H164   H     0.17552   0.79655   0.55270   0.00000  Uiso   1.00
H165   H     0.98757   0.88056   0.82011   0.00000  Uiso   1.00
H166   H     0.62577   0.73375   0.56884   0.00000  Uiso   1.00
H167   H     0.36656   0.78306   0.38913   0.00000  Uiso   1.00
H168   H     0.97025   0.96022   0.95300   0.00000  Uiso   1.00
H169   H     0.91024   0.90907   0.32649   0.00000  Uiso   1.00
H170   H     0.73641   0.86794   0.28499   0.00000  Uiso   1.00
H171   H     0.08773   0.89132   0.19975   0.00000  Uiso   1.00
H172   H     0.89978   0.97533   0.46715   0.00000  Uiso   1.00
H173   H     0.55452   0.81067   0.28237   0.00000  Uiso   1.00
H174   H     0.29531   0.85999   0.10266   0.00000  Uiso   1.00
H175   H     0.89899   0.03715   0.66653   0.00000  Uiso   1.00
O176   O     0.47732   0.74353   0.40432   0.00000  Uiso   1.00
O177   O     0.44921   0.80823   0.16856   0.00000  Uiso   1.00
O178   O     0.92925   0.04066   0.90834   0.00000  Uiso   1.00
N179   N     0.63285   0.75750   0.50713   0.00000  Uiso   1.00
N180   N     0.32543   0.80360   0.33910   0.00000  Uiso   1.00
N181   N     0.95494   0.96923   0.86627   0.00000  Uiso   1.00
N182   N     0.59450   0.79889   0.35298   0.00000  Uiso   1.00
N183   N     0.28709   0.84499   0.18496   0.00000  Uiso   1.00
N184   N     0.91660   0.01063   0.71212   0.00000  Uiso   1.00
C185   C     0.55651   0.35142   0.79317   0.00000  Uiso   1.00
C186   C     0.66308   0.34662   0.71744   0.00000  Uiso   1.00
C187   C     0.72302   0.30990   0.70470   0.00000  Uiso   1.00
C188   C     0.81829   0.31198   0.63138   0.00000  Uiso   1.00
C189   C     0.97857   0.29882   0.52263   0.00000  Uiso   1.00
C190   C     0.47655   0.36794   0.70307   0.00000  Uiso   1.00
C191   C     0.37964   0.34915   0.67828   0.00000  Uiso   1.00
C192   C     0.31788   0.36918   0.59287   0.00000  Uiso   1.00
C193   C     0.18852   0.38913   0.46189   0.00000  Uiso   1.00
C194   C     0.57280   0.38699   0.88526   0.00000  Uiso   1.00
C195   C     0.55681   0.38422   0.01365   0.00000  Uiso   1.00
C196   C     0.57607   0.42030   0.08164   0.00000  Uiso   1.00
C197   C     0.59617   0.46982   0.23353   0.00000  Uiso   1.00
C198   C     0.61912   0.42042   0.68560   0.00000  Uiso   1.00
C199   C     0.69709   0.38410   0.65901   0.00000  Uiso   1.00
C200   C     0.79230   0.38624   0.58569   0.00000  Uiso   1.00
C201   C     0.85237   0.34953   0.57285   0.00000  Uiso   1.00
C202   C     0.51055   0.40541   0.64465   0.00000  Uiso   1.00
C203   C     0.44892   0.42548   0.55927   0.00000  Uiso   1.00
C204   C     0.35195   0.40672   0.53434   0.00000  Uiso   1.00
C205   C     0.60682   0.42447   0.82684   0.00000  Uiso   1.00
C206   C     0.62609   0.46055   0.89464   0.00000  Uiso   1.00
C207   C     0.61014   0.45784   0.02311   0.00000  Uiso   1.00
H208   H     0.53002   0.32225   0.83865   0.00000  Uiso   1.00
H209   H     0.69666   0.28091   0.74992   0.00000  Uiso   1.00
H210   H     0.35334   0.32015   0.72351   0.00000  Uiso   1.00
H211   H     0.53049   0.35522   0.05883   0.00000  Uiso   1.00
H212   H     0.89640   0.25159   0.62575   0.00000  Uiso   1.00
H213   H     0.17246   0.33434   0.57010   0.00000  Uiso   1.00
H214   H     0.54600   0.40829   0.27719   0.00000  Uiso   1.00
H215   H     0.64560   0.44959   0.64011   0.00000  Uiso   1.00
H216   H     0.81860   0.41524   0.54049   0.00000  Uiso   1.00
H217   H     0.47526   0.45448   0.51408   0.00000  Uiso   1.00
H218   H     0.65241   0.48955   0.84940   0.00000  Uiso   1.00
H219   H     0.99536   0.36062   0.45576   0.00000  Uiso   1.00
H220   H     0.27141   0.44337   0.40011   0.00000  Uiso   1.00
H221   H     0.64496   0.51732   0.10720   0.00000  Uiso   1.00
O222   O     0.05757   0.28121   0.47877   0.00000  Uiso   1.00
O223   O     0.10778   0.38977   0.40578   0.00000  Uiso   1.00
O224   O     0.59787   0.48679   0.33346   0.00000  Uiso   1.00
N225   N     0.89596   0.28197   0.59943   0.00000  Uiso   1.00
N226   N     0.21912   0.35933   0.54739   0.00000  Uiso   1.00
N227   N     0.56833   0.42847   0.20846   0.00000  Uiso   1.00
N228   N     0.94921   0.34064   0.50796   0.00000  Uiso   1.00
N229   N     0.27237   0.41800   0.45592   0.00000  Uiso   1.00
N230   N     0.62158   0.48714   0.11699   0.00000  Uiso   1.00
C231   C     0.97439   0.66019   0.08443   0.00000  Uiso   1.00
C232   C     0.87088   0.67276   0.02547   0.00000  Uiso   1.00
C233   C     0.80522   0.70638   0.06175   0.00000  Uiso   1.00
C234   C     0.71408   0.71264   0.99600   0.00000  Uiso   1.00
C235   C     0.55712   0.73618   0.91939   0.00000  Uiso   1.00
C236   C     0.06176   0.66006   0.97914   0.00000  Uiso   1.00
C237   C     0.15659   0.68300   0.97649   0.00000  Uiso   1.00
C238   C     0.22614   0.67856   0.87175   0.00000  Uiso   1.00
C239   C     0.36555   0.68236   0.72326   0.00000  Uiso   1.00
C240   C     0.95963   0.61441   0.12443   0.00000  Uiso   1.00
C241   C     0.96862   0.59897   0.24394   0.00000  Uiso   1.00
C242   C     0.95222   0.55610   0.26152   0.00000  Uiso   1.00
C243   C     0.93306   0.48903   0.33861   0.00000  Uiso   1.00
C244   C     0.92930   0.61152   0.90315   0.00000  Uiso   1.00
C245   C     0.84640   0.64632   0.92700   0.00000  Uiso   1.00
C246   C     0.75534   0.65253   0.86119   0.00000  Uiso   1.00
C247   C     0.68955   0.68615   0.89736   0.00000  Uiso   1.00
C248   C     0.03727   0.63362   0.88068   0.00000  Uiso   1.00
C249   C     0.10670   0.62914   0.77593   0.00000  Uiso   1.00
C250   C     0.20161   0.65208   0.77311   0.00000  Uiso   1.00
C251   C     0.93514   0.58797   0.02597   0.00000  Uiso   1.00
C252   C     0.91873   0.54512   0.04337   0.00000  Uiso   1.00
C253   C     0.92769   0.52961   0.16287   0.00000  Uiso   1.00
H254   H     0.99346   0.68078   0.16108   0.00000  Uiso   1.00
H255   H     0.82420   0.72684   0.13794   0.00000  Uiso   1.00
H256   H     0.17552   0.70345   0.05270   0.00000  Uiso   1.00
H257   H     0.98757   0.61944   0.32011   0.00000  Uiso   1.00
H258   H     0.62577   0.76625   0.06884   0.00000  Uiso   1.00
H259   H     0.36656   0.71694   0.88913   0.00000  Uiso   1.00
H260   H     0.97025   0.53978   0.45300   0.00000  Uiso   1.00
H261   H     0.91024   0.59093   0.82649   0.00000  Uiso   1.00
H262   H     0.73641   0.63206   0.78499   0.00000  Uiso   1.00
H263   H     0.08773   0.60868   0.69975   0.00000  Uiso   1.00
H264   H     0.89978   0.52467   0.96715   0.00000  Uiso   1.00
H265   H     0.55452   0.68933   0.78237   0.00000  Uiso   1.00
H266   H     0.29531   0.64001   0.60266   0.00000  Uiso   1.00
H267   H     0.89899   0.46285   0.16653   0.00000  Uiso   1.00
O268   O     0.47732   0.75647   0.90432   0.00000  Uiso   1.00
O269   O     0.44921   0.69177   0.66856   0.00000  Uiso   1.00
O270   O     0.92925   0.45934   0.40834   0.00000  Uiso   1.00
N271   N     0.63285   0.74250   0.00713   0.00000  Uiso   1.00
N272   N     0.32543   0.69640   0.83910   0.00000  Uiso   1.00
N273   N     0.95494   0.53077   0.36627   0.00000  Uiso   1.00
N274   N     0.59450   0.70111   0.85298   0.00000  Uiso   1.00
N275   N     0.28709   0.65501   0.68496   0.00000  Uiso   1.00
N276   N     0.91660   0.48937   0.21212   0.00000  Uiso   1.00
C277   C     0.44349   0.85142   0.70683   0.00000  Uiso   1.00
C278   C     0.33692   0.84662   0.78256   0.00000  Uiso   1.00
C279   C     0.27698   0.80990   0.79530   0.00000  Uiso   1.00
C280   C     0.18171   0.81198   0.86862   0.00000  Uiso   1.00
C281   C     0.02143   0.79882   0.97737   0.00000  Uiso   1.00
C282   C     0.52345   0.86794   0.79693   0.00000  Uiso   1.00
C283   C     0.62036   0.84915   0.82172   0.00000  Uiso   1.00
C284   C     0.68212   0.86918   0.90713   0.00000  Uiso   1.00
C285   C     0.81148   0.88913   0.03811   0.00000  Uiso   1.00
C286   C     0.42720   0.88699   0.61474   0.00000  Uiso   1.00
C287   C     0.44319   0.88422   0.48635   0.00000  Uiso   1.00
C288   C     0.42393   0.92030   0.41836   0.00000  Uiso   1.00
C289   C     0.40383   0.96982   0.26647   0.00000  Uiso   1.00
C290   C     0.38088   0.92042   0.81440   0.00000  Uiso   1.00
C291   C     0.30291   0.88410   0.84099   0.00000  Uiso   1.00
C292   C     0.20770   0.88624   0.91431   0.00000  Uiso   1.00
C293   C     0.14763   0.84953   0.92715   0.00000  Uiso   1.00
C294   C     0.48945   0.90541   0.85535   0.00000  Uiso   1.00
C295   C     0.55108   0.92548   0.94073   0.00000  Uiso   1.00
C296   C     0.64805   0.90672   0.96566   0.00000  Uiso   1.00
C297   C     0.39318   0.92447   0.67316   0.00000  Uiso   1.00
C298   C     0.37391   0.96055   0.60536   0.00000  Uiso   1.00
C299   C     0.38986   0.95784   0.47689   0.00000  Uiso   1.00
H300   H     0.46998   0.82225   0.66135   0.00000  Uiso   1.00
H301   H     0.30334   0.78091   0.75008   0.00000  Uiso   1.00
H302   H     0.64666   0.82015   0.77649   0.00000  Uiso   1.00
H303   H     0.46951   0.85522   0.44117   0.00000  Uiso   1.00
H304   H     0.10360   0.75159   0.87425   0.00000  Uiso   1.00
H305   H     0.82754   0.83434   0.92990   0.00000  Uiso   1.00
H306   H     0.45400   0.90829   0.22281   0.00000  Uiso   1.00
H307   H     0.35440   0.94959   0.85989   0.00000  Uiso   1.00
H308   H     0.18140   0.91524   0.95951   0.00000  Uiso   1.00
H309   H     0.52474   0.95448   0.98592   0.00000  Uiso   1.00
H310   H     0.34759   0.98955   0.65060   0.00000  Uiso   1.00
H311   H     0.00464   0.86062   0.04424   0.00000  Uiso   1.00
H312   H     0.72859   0.94337   0.09989   0.00000  Uiso   1.00
H313   H     0.35504   0.01732   0.39280   0.00000  Uiso   1.00
O314   O     0.94243   0.78121   0.02123   0.00000  Uiso   1.00
O315   O     0.89222   0.88977   0.09422   0.00000  Uiso   1.00
O316   O     0.40213   0.98679   0.16654   0.00000  Uiso   1.00
N317   N     0.10404   0.78197   0.90057   0.00000  Uiso   1.00
N318   N     0.78088   0.85933   0.95261   0.00000  Uiso   1.00
N319   N     0.43167   0.92847   0.29154   0.00000  Uiso   1.00
N320   N     0.05079   0.84064   0.99204   0.00000  Uiso   1.00
N321   N     0.72763   0.91800   0.04408   0.00000  Uiso   1.00
N322   N     0.37842   0.98714   0.38301   0.00000  Uiso   1.00
C323   C     0.02561   0.16019   0.41557   0.00000  Uiso   1.00
C324   C     0.12912   0.17276   0.47453   0.00000  Uiso   1.00
C325   C     0.19478   0.20638   0.43825   0.00000  Uiso   1.00
C326   C     0.28592   0.21264   0.50400   0.00000  Uiso   1.00
C327   C     0.44288   0.23618   0.58061   0.00000  Uiso   1.00
C328   C     0.93824   0.16006   0.52086   0.00000  Uiso   1.00
C329   C     0.84341   0.18300   0.52351   0.00000  Uiso   1.00
C330   C     0.77386   0.17856   0.62825   0.00000  Uiso   1.00
C331   C     0.63445   0.18236   0.77674   0.00000  Uiso   1.00
C332   C     0.04037   0.11441   0.37557   0.00000  Uiso   1.00
C333   C     0.03138   0.09897   0.25606   0.00000  Uiso   1.00
C334   C     0.04778   0.05610   0.23848   0.00000  Uiso   1.00
C335   C     0.06694   0.98903   0.16139   0.00000  Uiso   1.00
C336   C     0.07070   0.11152   0.59685   0.00000  Uiso   1.00
C337   C     0.15360   0.14632   0.57300   0.00000  Uiso   1.00
C338   C     0.24466   0.15253   0.63881   0.00000  Uiso   1.00
C339   C     0.31045   0.18615   0.60264   0.00000  Uiso   1.00
C340   C     0.96273   0.13362   0.61932   0.00000  Uiso   1.00
C341   C     0.89330   0.12914   0.72407   0.00000  Uiso   1.00
C342   C     0.79839   0.15208   0.72689   0.00000  Uiso   1.00
C343   C     0.06486   0.08797   0.47403   0.00000  Uiso   1.00
C344   C     0.08127   0.04512   0.45663   0.00000  Uiso   1.00
C345   C     0.07231   0.02961   0.33713   0.00000  Uiso   1.00
H346   H     0.00654   0.18078   0.33892   0.00000  Uiso   1.00
H347   H     0.17580   0.22684   0.36206   0.00000  Uiso   1.00
H348   H     0.82448   0.20345   0.44730   0.00000  Uiso   1.00
H349   H     0.01243   0.11944   0.17989   0.00000  Uiso   1.00
H350   H     0.37423   0.26625   0.43116   0.00000  Uiso   1.00
H351   H     0.63344   0.21694   0.61087   0.00000  Uiso   1.00
H352   H     0.02975   0.03978   0.04700   0.00000  Uiso   1.00
H353   H     0.08976   0.09093   0.67351   0.00000  Uiso   1.00
H354   H     0.26359   0.13206   0.71501   0.00000  Uiso   1.00
H355   H     0.91227   0.10868   0.80025   0.00000  Uiso   1.00
H356   H     0.10022   0.02467   0.53285   0.00000  Uiso   1.00
H357   H     0.44548   0.18933   0.71763   0.00000  Uiso   1.00
H358   H     0.70469   0.14001   0.89734   0.00000  Uiso   1.00
H359   H     0.10101   0.96285   0.33347   0.00000  Uiso   1.00
O360   O     0.52268   0.25647   0.59568   0.00000  Uiso   1.00
O361   O     0.55079   0.19177   0.83144   0.00000  Uiso   1.00
O362   O     0.07075   0.95934   0.09166   0.00000  Uiso   1.00
N363   N     0.36715   0.24250   0.49287   0.00000  Uiso   1.00
N364   N     0.67457   0.19640   0.66090   0.00000  Uiso   1.00
N365   N     0.04506   0.03077   0.13373   0.00000  Uiso   1.00
N366   N     0.40550   0.20111   0.64702   0.00000  Uiso   1.00
N367   N     0.71291   0.15501   0.81504   0.00000  Uiso   1.00
N368   N     0.08340   0.98937   0.28788   0.00000  Uiso   1.00
