data_job_06314
_audit_creation_date              2018-12-19
_audit_creation_method            'Materials Studio'
_symmetry_space_group_name_H-M    'P1'
_symmetry_Int_Tables_number       1
_symmetry_cell_setting            triclinic
loop_
_symmetry_equiv_pos_as_xyz
  x,y,z
_cell_length_a                    15.5808
_cell_length_b                    15.6716
_cell_length_c                    14.9969
_cell_angle_alpha                 101.4930
_cell_angle_beta                  98.9551
_cell_angle_gamma                 93.1825
loop_
_atom_site_label
_atom_site_type_symbol
_atom_site_fract_x
_atom_site_fract_y
_atom_site_fract_z
_atom_site_U_iso_or_equiv
_atom_site_adp_type
_atom_site_occupancy
C1     C     0.49728   0.71291   0.09380   0.00000  Uiso   1.00
C2     C     0.54328   0.76786   0.03906   0.00000  Uiso   1.00
C3     C     0.55846   0.73973   0.94958   0.00000  Uiso   1.00
C4     C     0.60161   0.79991   0.91164   0.00000  Uiso   1.00
C5     C     0.66897   0.87225   0.81908   0.00000  Uiso   1.00
C6     C     0.56103   0.71528   0.18259   0.00000  Uiso   1.00
C7     C     0.59112   0.64294   0.21378   0.00000  Uiso   1.00
C8     C     0.64920   0.65887   0.29668   0.00000  Uiso   1.00
C9     C     0.74407   0.64957   0.42699   0.00000  Uiso   1.00
C10    C     0.42154   0.76313   0.12264   0.00000  Uiso   1.00
C11    C     0.33436   0.73102   0.10345   0.00000  Uiso   1.00
C12    C     0.27500   0.78723   0.13590   0.00000  Uiso   1.00
C13    C     0.15330   0.85223   0.17312   0.00000  Uiso   1.00
C14    C     0.54690   0.86983   0.18556   0.00000  Uiso   1.00
C15    C     0.57023   0.85309   0.08890   0.00000  Uiso   1.00
C16    C     0.61336   0.91333   0.05110   0.00000  Uiso   1.00
C17    C     0.62860   0.88529   0.96157   0.00000  Uiso   1.00
C18    C     0.58798   0.80050   0.23243   0.00000  Uiso   1.00
C19    C     0.64602   0.81654   0.31531   0.00000  Uiso   1.00
C20    C     0.67620   0.74425   0.34662   0.00000  Uiso   1.00
C21    C     0.44849   0.84836   0.17248   0.00000  Uiso   1.00
C22    C     0.38926   0.90463   0.20497   0.00000  Uiso   1.00
C23    C     0.30200   0.87261   0.18583   0.00000  Uiso   1.00
H24    H     0.47630   0.64656   0.05500   0.00000  Uiso   1.00
H25    H     0.53760   0.67376   0.91103   0.00000  Uiso   1.00
H26    H     0.57025   0.57699   0.17521   0.00000  Uiso   1.00
H27    H     0.31353   0.66506   0.06488   0.00000  Uiso   1.00
H28    H     0.61748   0.74150   0.77340   0.00000  Uiso   1.00
H29    H     0.68630   0.53745   0.33044   0.00000  Uiso   1.00
H30    H     0.14494   0.72316   0.09781   0.00000  Uiso   1.00
H31    H     0.56788   0.93618   0.22437   0.00000  Uiso   1.00
H32    H     0.63421   0.97928   0.08968   0.00000  Uiso   1.00
H33    H     0.66686   0.88251   0.35386   0.00000  Uiso   1.00
H34    H     0.41013   0.97058   0.24354   0.00000  Uiso   1.00
H35    H     0.69590   0.98947   0.91840   0.00000  Uiso   1.00
H36    H     0.76471   0.78542   0.47545   0.00000  Uiso   1.00
H37    H     0.22336   0.97113   0.24281   0.00000  Uiso   1.00
O38    O     0.69870   0.88860   0.75426   0.00000  Uiso   1.00
O39    O     0.78896   0.62090   0.48508   0.00000  Uiso   1.00
O40    O     0.07872   0.86454   0.17987   0.00000  Uiso   1.00
N41    N     0.62682   0.79395   0.82600   0.00000  Uiso   1.00
N42    N     0.69117   0.60317   0.34680   0.00000  Uiso   1.00
N43    N     0.18505   0.77679   0.12933   0.00000  Uiso   1.00
N44    N     0.66901   0.92738   0.90403   0.00000  Uiso   1.00
N45    N     0.73336   0.73661   0.42482   0.00000  Uiso   1.00
N46    N     0.22724   0.91022   0.20735   0.00000  Uiso   1.00
C47    C     0.11022   0.49682   0.70582   0.00000  Uiso   1.00
C48    C     0.05378   0.54861   0.76767   0.00000  Uiso   1.00
C49    C     0.96822   0.56548   0.74052   0.00000  Uiso   1.00
C50    C     0.92786   0.61409   0.80742   0.00000  Uiso   1.00
C51    C     0.83359   0.68989   0.88964   0.00000  Uiso   1.00
C52    C     0.19192   0.55730   0.71157   0.00000  Uiso   1.00
C53    C     0.22250   0.58146   0.63725   0.00000  Uiso   1.00
C54    C     0.29843   0.63739   0.65693   0.00000  Uiso   1.00
C55    C     0.41865   0.72663   0.65204   0.00000  Uiso   1.00
C56    C     0.14011   0.42317   0.75272   0.00000  Uiso   1.00
C57    C     0.12715   0.33455   0.71300   0.00000  Uiso   1.00
C58    C     0.15947   0.27754   0.76732   0.00000  Uiso   1.00
C59    C     0.19925   0.15851   0.82634   0.00000  Uiso   1.00
C60    C     0.19069   0.55315   0.87290   0.00000  Uiso   1.00
C61    C     0.09749   0.57921   0.85842   0.00000  Uiso   1.00
C62    C     0.05725   0.62781   0.92538   0.00000  Uiso   1.00
C63    C     0.97164   0.64474   0.89834   0.00000  Uiso   1.00
C64    C     0.23562   0.58790   0.80232   0.00000  Uiso   1.00
C65    C     0.31153   0.64379   0.82211   0.00000  Uiso   1.00
C66    C     0.34221   0.66804   0.74784   0.00000  Uiso   1.00
C67    C     0.18381   0.45376   0.84348   0.00000  Uiso   1.00
C68    C     0.21617   0.39688   0.89787   0.00000  Uiso   1.00
C69    C     0.20326   0.30819   0.85824   0.00000  Uiso   1.00
H70    H     0.07620   0.47300   0.63516   0.00000  Uiso   1.00
H71    H     0.93442   0.54179   0.67028   0.00000  Uiso   1.00
H72    H     0.18867   0.55777   0.56703   0.00000  Uiso   1.00
H73    H     0.09332   0.31089   0.64277   0.00000  Uiso   1.00
H74    H     0.79652   0.63158   0.74923   0.00000  Uiso   1.00
H75    H     0.33263   0.66525   0.53151   0.00000  Uiso   1.00
H76    H     0.13159   0.14466   0.69123   0.00000  Uiso   1.00
H77    H     0.22472   0.57698   0.94356   0.00000  Uiso   1.00
H78    H     0.09109   0.65148   0.99561   0.00000  Uiso   1.00
H79    H     0.34533   0.66746   0.89235   0.00000  Uiso   1.00
H80    H     0.24999   0.42058   0.96809   0.00000  Uiso   1.00
H81    H     0.92368   0.72061   0.01328   0.00000  Uiso   1.00
H82    H     0.45979   0.75427   0.79555   0.00000  Uiso   1.00
H83    H     0.25874   0.23369   0.95528   0.00000  Uiso   1.00
O84    O     0.76952   0.72325   0.90992   0.00000  Uiso   1.00
O85    O     0.47288   0.76740   0.62427   0.00000  Uiso   1.00
O86    O     0.20911   0.08441   0.83382   0.00000  Uiso   1.00
N87    N     0.84478   0.64230   0.80424   0.00000  Uiso   1.00
N88    N     0.34600   0.67378   0.60068   0.00000  Uiso   1.00
N89    N     0.15806   0.18708   0.75000   0.00000  Uiso   1.00
N90    N     0.91320   0.69020   0.94632   0.00000  Uiso   1.00
N91    N     0.41442   0.72169   0.74276   0.00000  Uiso   1.00
N92    N     0.22648   0.23498   0.89208   0.00000  Uiso   1.00
C93    C     0.71416   0.10430   0.48621   0.00000  Uiso   1.00
C94    C     0.77462   0.04877   0.53566   0.00000  Uiso   1.00
C95    C     0.75245   0.96529   0.54765   0.00000  Uiso   1.00
C96    C     0.81703   0.92545   0.59484   0.00000  Uiso   1.00
C97    C     0.89816   0.83283   0.66650   0.00000  Uiso   1.00
C98    C     0.71365   0.18980   0.55554   0.00000  Uiso   1.00
C99    C     0.64021   0.22492   0.58423   0.00000  Uiso   1.00
C100   C     0.65347   0.30380   0.64816   0.00000  Uiso   1.00
C101   C     0.63994   0.43018   0.75063   0.00000  Uiso   1.00
C102   C     0.75983   0.12755   0.41027   0.00000  Uiso   1.00
C103   C     0.72521   0.11034   0.31681   0.00000  Uiso   1.00
C104   C     0.77734   0.13683   0.25842   0.00000  Uiso   1.00
C105   C     0.83551   0.16654   0.13533   0.00000  Uiso   1.00
C106   C     0.86829   0.18197   0.54871   0.00000  Uiso   1.00
C107   C     0.85834   0.09096   0.56961   0.00000  Uiso   1.00
C108   C     0.92298   0.05123   0.61679   0.00000  Uiso   1.00
C109   C     0.90090   0.96771   0.62885   0.00000  Uiso   1.00
C110   C     0.79737   0.23200   0.58949   0.00000  Uiso   1.00
C111   C     0.81074   0.31085   0.65338   0.00000  Uiso   1.00
C112   C     0.73734   0.34607   0.68216   0.00000  Uiso   1.00
C113   C     0.84355   0.16974   0.44421   0.00000  Uiso   1.00
C114   C     0.89575   0.19627   0.38596   0.00000  Uiso   1.00
C115   C     0.86121   0.17910   0.29243   0.00000  Uiso   1.00
H116   H     0.64898   0.07145   0.45979   0.00000  Uiso   1.00
H117   H     0.68765   0.93267   0.52137   0.00000  Uiso   1.00
H118   H     0.57543   0.19226   0.55794   0.00000  Uiso   1.00
H119   H     0.66042   0.07769   0.29056   0.00000  Uiso   1.00
H120   H     0.76743   0.79741   0.60466   0.00000  Uiso   1.00
H121   H     0.53081   0.34478   0.68174   0.00000  Uiso   1.00
H122   H     0.71003   0.10320   0.11791   0.00000  Uiso   1.00
H123   H     0.93348   0.21482   0.57514   0.00000  Uiso   1.00
H124   H     0.98776   0.08390   0.64306   0.00000  Uiso   1.00
H125   H     0.87554   0.34348   0.67963   0.00000  Uiso   1.00
H126   H     0.96053   0.22892   0.41225   0.00000  Uiso   1.00
H127   H     0.01101   0.92016   0.70342   0.00000  Uiso   1.00
H128   H     0.77438   0.46753   0.78051   0.00000  Uiso   1.00
H129   H     0.95361   0.22595   0.21668   0.00000  Uiso   1.00
O130   O     0.91978   0.77009   0.69666   0.00000  Uiso   1.00
O131   O     0.60934   0.48822   0.79778   0.00000  Uiso   1.00
O132   O     0.84448   0.17127   0.05806   0.00000  Uiso   1.00
N133   N     0.81731   0.84426   0.61856   0.00000  Uiso   1.00
N134   N     0.59608   0.35601   0.69065   0.00000  Uiso   1.00
N135   N     0.76363   0.13018   0.16352   0.00000  Uiso   1.00
N136   N     0.94838   0.91031   0.67171   0.00000  Uiso   1.00
N137   N     0.72715   0.42206   0.74379   0.00000  Uiso   1.00
N138   N     0.89470   0.19622   0.21666   0.00000  Uiso   1.00
C139   C     0.50272   0.28709   0.90620   0.00000  Uiso   1.00
C140   C     0.45672   0.23214   0.96094   0.00000  Uiso   1.00
C141   C     0.44154   0.26027   0.05042   0.00000  Uiso   1.00
C142   C     0.39839   0.20009   0.08836   0.00000  Uiso   1.00
C143   C     0.33103   0.12775   0.18092   0.00000  Uiso   1.00
C144   C     0.43897   0.28472   0.81741   0.00000  Uiso   1.00
C145   C     0.40888   0.35706   0.78622   0.00000  Uiso   1.00
C146   C     0.35080   0.34113   0.70332   0.00000  Uiso   1.00
C147   C     0.25593   0.35043   0.57301   0.00000  Uiso   1.00
C148   C     0.57846   0.23687   0.87736   0.00000  Uiso   1.00
C149   C     0.66564   0.26898   0.89655   0.00000  Uiso   1.00
C150   C     0.72500   0.21277   0.86410   0.00000  Uiso   1.00
C151   C     0.84670   0.14777   0.82688   0.00000  Uiso   1.00
C152   C     0.45310   0.13017   0.81444   0.00000  Uiso   1.00
C153   C     0.42977   0.14691   0.91110   0.00000  Uiso   1.00
C154   C     0.38664   0.08667   0.94890   0.00000  Uiso   1.00
C155   C     0.37140   0.11470   0.03843   0.00000  Uiso   1.00
C156   C     0.41202   0.19950   0.76757   0.00000  Uiso   1.00
C157   C     0.35398   0.18346   0.68469   0.00000  Uiso   1.00
C158   C     0.32380   0.25575   0.65338   0.00000  Uiso   1.00
C159   C     0.55151   0.15164   0.82752   0.00000  Uiso   1.00
C160   C     0.61074   0.09537   0.79503   0.00000  Uiso   1.00
C161   C     0.69800   0.12739   0.81417   0.00000  Uiso   1.00
H162   H     0.52370   0.35344   0.94500   0.00000  Uiso   1.00
H163   H     0.46240   0.32624   0.08897   0.00000  Uiso   1.00
H164   H     0.42975   0.42301   0.82479   0.00000  Uiso   1.00
H165   H     0.68647   0.33494   0.93512   0.00000  Uiso   1.00
H166   H     0.38252   0.25850   0.22660   0.00000  Uiso   1.00
H167   H     0.31370   0.46255   0.66956   0.00000  Uiso   1.00
H168   H     0.85506   0.27684   0.90219   0.00000  Uiso   1.00
H169   H     0.43212   0.06382   0.77563   0.00000  Uiso   1.00
H170   H     0.36579   0.02072   0.91032   0.00000  Uiso   1.00
H171   H     0.33314   0.11749   0.64614   0.00000  Uiso   1.00
H172   H     0.58986   0.02942   0.75646   0.00000  Uiso   1.00
H173   H     0.30410   0.01053   0.08160   0.00000  Uiso   1.00
H174   H     0.23529   0.21458   0.52455   0.00000  Uiso   1.00
H175   H     0.77664   0.02887   0.75719   0.00000  Uiso   1.00
O176   O     0.30130   0.11140   0.24574   0.00000  Uiso   1.00
O177   O     0.21104   0.37910   0.51492   0.00000  Uiso   1.00
O178   O     0.92128   0.13546   0.82013   0.00000  Uiso   1.00
N179   N     0.37318   0.20605   0.17400   0.00000  Uiso   1.00
N180   N     0.30883   0.39682   0.65320   0.00000  Uiso   1.00
N181   N     0.81495   0.22321   0.87067   0.00000  Uiso   1.00
N182   N     0.33099   0.07262   0.09597   0.00000  Uiso   1.00
N183   N     0.26664   0.26339   0.57518   0.00000  Uiso   1.00
N184   N     0.77276   0.08978   0.79265   0.00000  Uiso   1.00
C185   C     0.88978   0.50318   0.29418   0.00000  Uiso   1.00
C186   C     0.94622   0.45139   0.23233   0.00000  Uiso   1.00
C187   C     0.03178   0.43452   0.25948   0.00000  Uiso   1.00
C188   C     0.07214   0.38591   0.19258   0.00000  Uiso   1.00
C189   C     0.16641   0.31011   0.11036   0.00000  Uiso   1.00
C190   C     0.80808   0.44270   0.28843   0.00000  Uiso   1.00
C191   C     0.77750   0.41854   0.36275   0.00000  Uiso   1.00
C192   C     0.70157   0.36261   0.34307   0.00000  Uiso   1.00
C193   C     0.58135   0.27337   0.34796   0.00000  Uiso   1.00
C194   C     0.85989   0.57683   0.24728   0.00000  Uiso   1.00
C195   C     0.87285   0.66545   0.28700   0.00000  Uiso   1.00
C196   C     0.84053   0.72246   0.23268   0.00000  Uiso   1.00
C197   C     0.80075   0.84149   0.17366   0.00000  Uiso   1.00
C198   C     0.80931   0.44685   0.12710   0.00000  Uiso   1.00
C199   C     0.90251   0.42079   0.14158   0.00000  Uiso   1.00
C200   C     0.94275   0.37219   0.07462   0.00000  Uiso   1.00
C201   C     0.02836   0.35526   0.10166   0.00000  Uiso   1.00
C202   C     0.76438   0.41210   0.19768   0.00000  Uiso   1.00
C203   C     0.68847   0.35621   0.17789   0.00000  Uiso   1.00
C204   C     0.65779   0.33196   0.25215   0.00000  Uiso   1.00
C205   C     0.81619   0.54624   0.15652   0.00000  Uiso   1.00
C206   C     0.78383   0.60312   0.10213   0.00000  Uiso   1.00
C207   C     0.79674   0.69181   0.14176   0.00000  Uiso   1.00
H208   H     0.92380   0.52700   0.36484   0.00000  Uiso   1.00
H209   H     0.06558   0.45821   0.32972   0.00000  Uiso   1.00
H210   H     0.81133   0.44223   0.43297   0.00000  Uiso   1.00
H211   H     0.90668   0.68911   0.35723   0.00000  Uiso   1.00
H212   H     0.20348   0.36842   0.25077   0.00000  Uiso   1.00
H213   H     0.66737   0.33475   0.46849   0.00000  Uiso   1.00
H214   H     0.86841   0.85534   0.30877   0.00000  Uiso   1.00
H215   H     0.77528   0.42302   0.05644   0.00000  Uiso   1.00
H216   H     0.90891   0.34852   0.00439   0.00000  Uiso   1.00
H217   H     0.65467   0.33254   0.10765   0.00000  Uiso   1.00
H218   H     0.75001   0.57942   0.03191   0.00000  Uiso   1.00
H219   H     0.07632   0.27939   0.98672   0.00000  Uiso   1.00
H220   H     0.54021   0.24573   0.20445   0.00000  Uiso   1.00
H221   H     0.74126   0.76631   0.04472   0.00000  Uiso   1.00
O222   O     0.23048   0.27675   0.09008   0.00000  Uiso   1.00
O223   O     0.52712   0.23260   0.37573   0.00000  Uiso   1.00
O224   O     0.79089   0.91559   0.16618   0.00000  Uiso   1.00
N225   N     0.15522   0.35770   0.19576   0.00000  Uiso   1.00
N226   N     0.65400   0.32622   0.39932   0.00000  Uiso   1.00
N227   N     0.84194   0.81292   0.25000   0.00000  Uiso   1.00
N228   N     0.08680   0.30980   0.05368   0.00000  Uiso   1.00
N229   N     0.58558   0.27831   0.25724   0.00000  Uiso   1.00
N230   N     0.77352   0.76502   0.10792   0.00000  Uiso   1.00
C231   C     0.28584   0.89570   0.51379   0.00000  Uiso   1.00
C232   C     0.22538   0.95123   0.46434   0.00000  Uiso   1.00
C233   C     0.24755   0.03471   0.45235   0.00000  Uiso   1.00
C234   C     0.18297   0.07455   0.40516   0.00000  Uiso   1.00
C235   C     0.10184   0.16717   0.33350   0.00000  Uiso   1.00
C236   C     0.28635   0.81019   0.44446   0.00000  Uiso   1.00
C237   C     0.35979   0.77508   0.41577   0.00000  Uiso   1.00
C238   C     0.34653   0.69620   0.35184   0.00000  Uiso   1.00
C239   C     0.36006   0.56982   0.24937   0.00000  Uiso   1.00
C240   C     0.24017   0.87245   0.58973   0.00000  Uiso   1.00
C241   C     0.27479   0.88966   0.68319   0.00000  Uiso   1.00
C242   C     0.22266   0.86317   0.74158   0.00000  Uiso   1.00
C243   C     0.16449   0.83346   0.86467   0.00000  Uiso   1.00
C244   C     0.13171   0.81803   0.45129   0.00000  Uiso   1.00
C245   C     0.14166   0.90904   0.43039   0.00000  Uiso   1.00
C246   C     0.07702   0.94877   0.38321   0.00000  Uiso   1.00
C247   C     0.09910   0.03229   0.37115   0.00000  Uiso   1.00
C248   C     0.20263   0.76800   0.41051   0.00000  Uiso   1.00
C249   C     0.18926   0.68915   0.34662   0.00000  Uiso   1.00
C250   C     0.26266   0.65393   0.31784   0.00000  Uiso   1.00
C251   C     0.15645   0.83026   0.55579   0.00000  Uiso   1.00
C252   C     0.10425   0.80373   0.61404   0.00000  Uiso   1.00
C253   C     0.13879   0.82090   0.70757   0.00000  Uiso   1.00
H254   H     0.35102   0.92855   0.54021   0.00000  Uiso   1.00
H255   H     0.31235   0.06733   0.47863   0.00000  Uiso   1.00
H256   H     0.42457   0.80774   0.44206   0.00000  Uiso   1.00
H257   H     0.33958   0.92231   0.70944   0.00000  Uiso   1.00
H258   H     0.23257   0.20258   0.39534   0.00000  Uiso   1.00
H259   H     0.46919   0.65522   0.31826   0.00000  Uiso   1.00
H260   H     0.28997   0.89680   0.88209   0.00000  Uiso   1.00
H261   H     0.06652   0.78518   0.42486   0.00000  Uiso   1.00
H262   H     0.01224   0.91610   0.35694   0.00000  Uiso   1.00
H263   H     0.12446   0.65651   0.32037   0.00000  Uiso   1.00
H264   H     0.03947   0.77108   0.58775   0.00000  Uiso   1.00
H265   H     0.98899   0.07984   0.29658   0.00000  Uiso   1.00
H266   H     0.22562   0.53247   0.21949   0.00000  Uiso   1.00
H267   H     0.04639   0.77405   0.78332   0.00000  Uiso   1.00
O268   O     0.08022   0.22991   0.30334   0.00000  Uiso   1.00
O269   O     0.39066   0.51178   0.20222   0.00000  Uiso   1.00
O270   O     0.15552   0.82873   0.94194   0.00000  Uiso   1.00
N271   N     0.18269   0.15574   0.38144   0.00000  Uiso   1.00
N272   N     0.40392   0.64398   0.30935   0.00000  Uiso   1.00
N273   N     0.23637   0.86982   0.83648   0.00000  Uiso   1.00
N274   N     0.05162   0.08969   0.32829   0.00000  Uiso   1.00
N275   N     0.27285   0.57794   0.25621   0.00000  Uiso   1.00
N276   N     0.10530   0.80377   0.78334   0.00000  Uiso   1.00
