data_job_02443
_audit_creation_date              2018-12-19
_audit_creation_method            'Materials Studio'
_symmetry_space_group_name_H-M    'P1'
_symmetry_Int_Tables_number       1
_symmetry_cell_setting            triclinic
loop_
_symmetry_equiv_pos_as_xyz
  x,y,z
_cell_length_a                    13.9353
_cell_length_b                    16.8972
_cell_length_c                    22.7907
_cell_angle_alpha                 90.0000
_cell_angle_beta                  90.0000
_cell_angle_gamma                 90.0000
loop_
_atom_site_label
_atom_site_type_symbol
_atom_site_fract_x
_atom_site_fract_y
_atom_site_fract_z
_atom_site_U_iso_or_equiv
_atom_site_adp_type
_atom_site_occupancy
C1     C     0.64163   0.96413   0.44335   0.00000  Uiso   1.00
C2     C     0.69692   0.91991   0.39582   0.00000  Uiso   1.00
C3     C     0.73867   0.84578   0.40182   0.00000  Uiso   1.00
C4     C     0.78612   0.81549   0.35319   0.00000  Uiso   1.00
C5     C     0.87119   0.74039   0.28742   0.00000  Uiso   1.00
C6     C     0.69167   0.04382   0.45037   0.00000  Uiso   1.00
C7     C     0.72899   0.07389   0.50224   0.00000  Uiso   1.00
C8     C     0.77201   0.14792   0.49954   0.00000  Uiso   1.00
C9     C     0.84886   0.26523   0.51846   0.00000  Uiso   1.00
C10    C     0.54318   0.98211   0.41736   0.00000  Uiso   1.00
C11    C     0.45564   0.96031   0.44149   0.00000  Uiso   1.00
C12    C     0.37364   0.98239   0.41099   0.00000  Uiso   1.00
C13    C     0.21994   0.00389   0.37867   0.00000  Uiso   1.00
C14    C     0.65166   0.04213   0.34631   0.00000  Uiso   1.00
C15    C     0.70237   0.96228   0.34311   0.00000  Uiso   1.00
C16    C     0.74977   0.93209   0.29446   0.00000  Uiso   1.00
C17    C     0.79158   0.85793   0.30039   0.00000  Uiso   1.00
C18    C     0.69712   0.08619   0.39767   0.00000  Uiso   1.00
C19    C     0.74009   0.16020   0.39489   0.00000  Uiso   1.00
C20    C     0.77747   0.19036   0.44674   0.00000  Uiso   1.00
C21    C     0.54863   0.02448   0.36466   0.00000  Uiso   1.00
C22    C     0.46675   0.04661   0.33412   0.00000  Uiso   1.00
C23    C     0.37911   0.02484   0.35819   0.00000  Uiso   1.00
H24    H     0.63739   0.93114   0.48438   0.00000  Uiso   1.00
H25    H     0.73444   0.81301   0.44262   0.00000  Uiso   1.00
H26    H     0.72475   0.04109   0.54302   0.00000  Uiso   1.00
H27    H     0.45145   0.92752   0.48227   0.00000  Uiso   1.00
H28    H     0.84448   0.70074   0.37308   0.00000  Uiso   1.00
H29    H     0.82402   0.18167   0.58479   0.00000  Uiso   1.00
H30    H     0.24771   0.94218   0.45669   0.00000  Uiso   1.00
H31    H     0.65591   0.07512   0.30528   0.00000  Uiso   1.00
H32    H     0.75398   0.96489   0.25368   0.00000  Uiso   1.00
H33    H     0.74429   0.19297   0.35409   0.00000  Uiso   1.00
H34    H     0.47099   0.07940   0.29334   0.00000  Uiso   1.00
H35    H     0.86034   0.82401   0.21973   0.00000  Uiso   1.00
H36    H     0.83988   0.30494   0.43145   0.00000  Uiso   1.00
H37    H     0.26357   0.06545   0.30334   0.00000  Uiso   1.00
O38    O     0.91662   0.68728   0.26570   0.00000  Uiso   1.00
O39    O     0.88976   0.31824   0.54347   0.00000  Uiso   1.00
O40    O     0.13366   0.00404   0.37539   0.00000  Uiso   1.00
N41    N     0.83474   0.74487   0.34406   0.00000  Uiso   1.00
N42    N     0.81562   0.19451   0.54200   0.00000  Uiso   1.00
N43    N     0.27682   0.97063   0.42225   0.00000  Uiso   1.00
N44    N     0.84327   0.81120   0.26155   0.00000  Uiso   1.00
N45    N     0.82416   0.26084   0.45949   0.00000  Uiso   1.00
N46    N     0.28536   0.03696   0.33973   0.00000  Uiso   1.00
C47    C     0.12902   0.03940   0.55940   0.00000  Uiso   1.00
C48    C     0.07166   0.08403   0.60579   0.00000  Uiso   1.00
C49    C     0.03008   0.15805   0.59871   0.00000  Uiso   1.00
C50    C     0.98053   0.18878   0.64640   0.00000  Uiso   1.00
C51    C     0.89259   0.26443   0.71038   0.00000  Uiso   1.00
C52    C     0.07941   0.95958   0.55202   0.00000  Uiso   1.00
C53    C     0.04436   0.92895   0.49974   0.00000  Uiso   1.00
C54    C     0.00134   0.85491   0.50217   0.00000  Uiso   1.00
C55    C     0.92548   0.73732   0.48267   0.00000  Uiso   1.00
C56    C     0.22636   0.02178   0.58704   0.00000  Uiso   1.00
C57    C     0.31486   0.04344   0.56420   0.00000  Uiso   1.00
C58    C     0.39557   0.02176   0.59611   0.00000  Uiso   1.00
C59    C     0.54787   0.00075   0.63098   0.00000  Uiso   1.00
C60    C     0.11497   0.96235   0.65667   0.00000  Uiso   1.00
C61    C     0.06403   0.04218   0.65862   0.00000  Uiso   1.00
C62    C     0.01453   0.07280   0.70633   0.00000  Uiso   1.00
C63    C     0.97289   0.14685   0.69933   0.00000  Uiso   1.00
C64    C     0.07178   0.91773   0.60485   0.00000  Uiso   1.00
C65    C     0.02881   0.84371   0.60736   0.00000  Uiso   1.00
C66    C     0.99369   0.81298   0.55510   0.00000  Uiso   1.00
C67    C     0.21873   0.97994   0.63987   0.00000  Uiso   1.00
C68    C     0.29931   0.95820   0.67182   0.00000  Uiso   1.00
C69    C     0.38792   0.97983   0.64903   0.00000  Uiso   1.00
H70    H     0.13497   0.07198   0.51826   0.00000  Uiso   1.00
H71    H     0.03600   0.19041   0.55782   0.00000  Uiso   1.00
H72    H     0.05028   0.96135   0.45886   0.00000  Uiso   1.00
H73    H     0.32074   0.07583   0.52331   0.00000  Uiso   1.00
H74    H     0.92288   0.30325   0.62496   0.00000  Uiso   1.00
H75    H     0.95302   0.82025   0.41630   0.00000  Uiso   1.00
H76    H     0.52334   0.06165   0.55221   0.00000  Uiso   1.00
H77    H     0.10903   0.92977   0.69780   0.00000  Uiso   1.00
H78    H     0.00864   0.04040   0.74721   0.00000  Uiso   1.00
H79    H     0.02292   0.81134   0.64825   0.00000  Uiso   1.00
H80    H     0.29338   0.92582   0.71270   0.00000  Uiso   1.00
H81    H     0.90067   0.18150   0.77868   0.00000  Uiso   1.00
H82    H     0.93081   0.69849   0.57002   0.00000  Uiso   1.00
H83    H     0.50113   0.93989   0.70593   0.00000  Uiso   1.00
O84    O     0.84617   0.31771   0.73108   0.00000  Uiso   1.00
O85    O     0.88574   0.68402   0.45732   0.00000  Uiso   1.00
O86    O     0.63398   0.00074   0.63563   0.00000  Uiso   1.00
N87    N     0.93145   0.25942   0.65436   0.00000  Uiso   1.00
N88    N     0.95961   0.80785   0.45928   0.00000  Uiso   1.00
N89    N     0.49282   0.03352   0.58633   0.00000  Uiso   1.00
N90    N     0.91949   0.19391   0.73708   0.00000  Uiso   1.00
N91    N     0.94766   0.74233   0.54199   0.00000  Uiso   1.00
N92    N     0.48087   0.96800   0.66905   0.00000  Uiso   1.00
C93    C     0.85837   0.03587   0.94335   0.00000  Uiso   1.00
C94    C     0.80308   0.08009   0.89582   0.00000  Uiso   1.00
C95    C     0.76133   0.15422   0.90182   0.00000  Uiso   1.00
C96    C     0.71388   0.18451   0.85319   0.00000  Uiso   1.00
C97    C     0.62881   0.25961   0.78742   0.00000  Uiso   1.00
C98    C     0.80833   0.95618   0.95037   0.00000  Uiso   1.00
C99    C     0.77101   0.92611   0.00224   0.00000  Uiso   1.00
C100   C     0.72799   0.85208   0.99954   0.00000  Uiso   1.00
C101   C     0.65114   0.73477   0.01846   0.00000  Uiso   1.00
C102   C     0.95682   0.01789   0.91736   0.00000  Uiso   1.00
C103   C     0.04436   0.03969   0.94149   0.00000  Uiso   1.00
C104   C     0.12636   0.01761   0.91099   0.00000  Uiso   1.00
C105   C     0.28006   0.99611   0.87867   0.00000  Uiso   1.00
C106   C     0.84834   0.95787   0.84631   0.00000  Uiso   1.00
C107   C     0.79763   0.03772   0.84311   0.00000  Uiso   1.00
C108   C     0.75023   0.06791   0.79446   0.00000  Uiso   1.00
C109   C     0.70842   0.14207   0.80039   0.00000  Uiso   1.00
C110   C     0.80288   0.91381   0.89767   0.00000  Uiso   1.00
C111   C     0.75991   0.83980   0.89489   0.00000  Uiso   1.00
C112   C     0.72253   0.80964   0.94674   0.00000  Uiso   1.00
C113   C     0.95137   0.97552   0.86466   0.00000  Uiso   1.00
C114   C     0.03325   0.95339   0.83412   0.00000  Uiso   1.00
C115   C     0.12089   0.97516   0.85819   0.00000  Uiso   1.00
H116   H     0.86261   0.06886   0.98438   0.00000  Uiso   1.00
H117   H     0.76556   0.18699   0.94262   0.00000  Uiso   1.00
H118   H     0.77525   0.95891   0.04302   0.00000  Uiso   1.00
H119   H     0.04855   0.07248   0.98227   0.00000  Uiso   1.00
H120   H     0.65552   0.29926   0.87308   0.00000  Uiso   1.00
H121   H     0.67598   0.81833   0.08479   0.00000  Uiso   1.00
H122   H     0.25229   0.05782   0.95669   0.00000  Uiso   1.00
H123   H     0.84409   0.92488   0.80528   0.00000  Uiso   1.00
H124   H     0.74602   0.03511   0.75368   0.00000  Uiso   1.00
H125   H     0.75571   0.80703   0.85409   0.00000  Uiso   1.00
H126   H     0.02901   0.92060   0.79334   0.00000  Uiso   1.00
H127   H     0.63966   0.17599   0.71973   0.00000  Uiso   1.00
H128   H     0.66012   0.69506   0.93145   0.00000  Uiso   1.00
H129   H     0.23643   0.93455   0.80334   0.00000  Uiso   1.00
O130   O     0.58338   0.31272   0.76570   0.00000  Uiso   1.00
O131   O     0.61024   0.68176   0.04347   0.00000  Uiso   1.00
O132   O     0.36634   0.99596   0.87539   0.00000  Uiso   1.00
N133   N     0.66526   0.25513   0.84406   0.00000  Uiso   1.00
N134   N     0.68438   0.80549   0.04200   0.00000  Uiso   1.00
N135   N     0.22318   0.02937   0.92225   0.00000  Uiso   1.00
N136   N     0.65673   0.18880   0.76155   0.00000  Uiso   1.00
N137   N     0.67584   0.73916   0.95949   0.00000  Uiso   1.00
N138   N     0.21464   0.96304   0.83973   0.00000  Uiso   1.00
C139   C     0.37098   0.96060   0.05940   0.00000  Uiso   1.00
C140   C     0.42834   0.91597   0.10579   0.00000  Uiso   1.00
C141   C     0.46992   0.84195   0.09871   0.00000  Uiso   1.00
C142   C     0.51947   0.81122   0.14640   0.00000  Uiso   1.00
C143   C     0.60741   0.73557   0.21038   0.00000  Uiso   1.00
C144   C     0.42059   0.04042   0.05202   0.00000  Uiso   1.00
C145   C     0.45564   0.07105   0.99974   0.00000  Uiso   1.00
C146   C     0.49866   0.14509   0.00217   0.00000  Uiso   1.00
C147   C     0.57452   0.26268   0.98267   0.00000  Uiso   1.00
C148   C     0.27364   0.97822   0.08704   0.00000  Uiso   1.00
C149   C     0.18514   0.95656   0.06420   0.00000  Uiso   1.00
C150   C     0.10443   0.97824   0.09611   0.00000  Uiso   1.00
C151   C     0.95213   0.99925   0.13098   0.00000  Uiso   1.00
C152   C     0.38503   0.03765   0.15667   0.00000  Uiso   1.00
C153   C     0.43597   0.95782   0.15862   0.00000  Uiso   1.00
C154   C     0.48547   0.92720   0.20633   0.00000  Uiso   1.00
C155   C     0.52711   0.85315   0.19933   0.00000  Uiso   1.00
C156   C     0.42822   0.08227   0.10485   0.00000  Uiso   1.00
C157   C     0.47119   0.15629   0.10736   0.00000  Uiso   1.00
C158   C     0.50631   0.18702   0.05510   0.00000  Uiso   1.00
C159   C     0.28127   0.02006   0.13987   0.00000  Uiso   1.00
C160   C     0.20069   0.04180   0.17182   0.00000  Uiso   1.00
C161   C     0.11208   0.02017   0.14903   0.00000  Uiso   1.00
H162   H     0.36503   0.92802   0.01826   0.00000  Uiso   1.00
H163   H     0.46400   0.80959   0.05782   0.00000  Uiso   1.00
H164   H     0.44972   0.03865   0.95886   0.00000  Uiso   1.00
H165   H     0.17926   0.92417   0.02331   0.00000  Uiso   1.00
H166   H     0.57712   0.69675   0.12496   0.00000  Uiso   1.00
H167   H     0.54698   0.17975   0.91630   0.00000  Uiso   1.00
H168   H     0.97666   0.93835   0.05221   0.00000  Uiso   1.00
H169   H     0.39097   0.07023   0.19780   0.00000  Uiso   1.00
H170   H     0.49136   0.95960   0.24721   0.00000  Uiso   1.00
H171   H     0.47708   0.18866   0.14825   0.00000  Uiso   1.00
H172   H     0.20662   0.07418   0.21270   0.00000  Uiso   1.00
H173   H     0.59933   0.81850   0.27868   0.00000  Uiso   1.00
H174   H     0.56919   0.30151   0.07002   0.00000  Uiso   1.00
H175   H     0.99887   0.06011   0.20593   0.00000  Uiso   1.00
O176   O     0.65383   0.68229   0.23108   0.00000  Uiso   1.00
O177   O     0.61426   0.31598   0.95732   0.00000  Uiso   1.00
O178   O     0.86602   0.99926   0.13563   0.00000  Uiso   1.00
N179   N     0.56855   0.74058   0.15436   0.00000  Uiso   1.00
N180   N     0.54039   0.19215   0.95928   0.00000  Uiso   1.00
N181   N     0.00718   0.96648   0.08633   0.00000  Uiso   1.00
N182   N     0.58051   0.80609   0.23708   0.00000  Uiso   1.00
N183   N     0.55234   0.25767   0.04199   0.00000  Uiso   1.00
N184   N     0.01913   0.03200   0.16905   0.00000  Uiso   1.00
C185   C     0.35837   0.46413   0.05665   0.00000  Uiso   1.00
C186   C     0.30308   0.41991   0.10418   0.00000  Uiso   1.00
C187   C     0.26133   0.34578   0.09818   0.00000  Uiso   1.00
C188   C     0.21388   0.31549   0.14681   0.00000  Uiso   1.00
C189   C     0.12881   0.24039   0.21258   0.00000  Uiso   1.00
C190   C     0.30833   0.54382   0.04963   0.00000  Uiso   1.00
C191   C     0.27101   0.57389   0.99776   0.00000  Uiso   1.00
C192   C     0.22799   0.64792   0.00046   0.00000  Uiso   1.00
C193   C     0.15114   0.76523   0.98154   0.00000  Uiso   1.00
C194   C     0.45682   0.48211   0.08264   0.00000  Uiso   1.00
C195   C     0.54436   0.46031   0.05851   0.00000  Uiso   1.00
C196   C     0.62636   0.48239   0.08901   0.00000  Uiso   1.00
C197   C     0.78006   0.50389   0.12133   0.00000  Uiso   1.00
C198   C     0.34834   0.54213   0.15369   0.00000  Uiso   1.00
C199   C     0.29763   0.46228   0.15689   0.00000  Uiso   1.00
C200   C     0.25023   0.43209   0.20554   0.00000  Uiso   1.00
C201   C     0.20842   0.35793   0.19961   0.00000  Uiso   1.00
C202   C     0.30288   0.58619   0.10233   0.00000  Uiso   1.00
C203   C     0.25991   0.66020   0.10511   0.00000  Uiso   1.00
C204   C     0.22253   0.69036   0.05326   0.00000  Uiso   1.00
C205   C     0.45137   0.52448   0.13534   0.00000  Uiso   1.00
C206   C     0.53325   0.54661   0.16588   0.00000  Uiso   1.00
C207   C     0.62089   0.52484   0.14181   0.00000  Uiso   1.00
H208   H     0.36261   0.43114   0.01562   0.00000  Uiso   1.00
H209   H     0.26556   0.31301   0.05738   0.00000  Uiso   1.00
H210   H     0.27525   0.54109   0.95698   0.00000  Uiso   1.00
H211   H     0.54855   0.42752   0.01773   0.00000  Uiso   1.00
H212   H     0.15552   0.20074   0.12692   0.00000  Uiso   1.00
H213   H     0.17598   0.68167   0.91521   0.00000  Uiso   1.00
H214   H     0.75229   0.44218   0.04331   0.00000  Uiso   1.00
H215   H     0.34409   0.57512   0.19472   0.00000  Uiso   1.00
H216   H     0.24602   0.46489   0.24632   0.00000  Uiso   1.00
H217   H     0.25571   0.69297   0.14591   0.00000  Uiso   1.00
H218   H     0.52901   0.57940   0.20666   0.00000  Uiso   1.00
H219   H     0.13966   0.32401   0.28027   0.00000  Uiso   1.00
H220   H     0.16012   0.80494   0.06855   0.00000  Uiso   1.00
H221   H     0.73643   0.56545   0.19666   0.00000  Uiso   1.00
O222   O     0.08338   0.18728   0.23430   0.00000  Uiso   1.00
O223   O     0.11024   0.81824   0.95653   0.00000  Uiso   1.00
O224   O     0.86634   0.50404   0.12461   0.00000  Uiso   1.00
N225   N     0.16526   0.24487   0.15594   0.00000  Uiso   1.00
N226   N     0.18438   0.69451   0.95800   0.00000  Uiso   1.00
N227   N     0.72318   0.47063   0.07775   0.00000  Uiso   1.00
N228   N     0.15673   0.31120   0.23845   0.00000  Uiso   1.00
N229   N     0.17584   0.76084   0.04051   0.00000  Uiso   1.00
N230   N     0.71464   0.53696   0.16027   0.00000  Uiso   1.00
C231   C     0.87098   0.53940   0.94060   0.00000  Uiso   1.00
C232   C     0.92834   0.58403   0.89421   0.00000  Uiso   1.00
C233   C     0.96992   0.65805   0.90129   0.00000  Uiso   1.00
C234   C     0.01947   0.68878   0.85360   0.00000  Uiso   1.00
C235   C     0.10741   0.76443   0.78962   0.00000  Uiso   1.00
C236   C     0.92059   0.45958   0.94798   0.00000  Uiso   1.00
C237   C     0.95564   0.42895   0.00026   0.00000  Uiso   1.00
C238   C     0.99866   0.35491   0.99783   0.00000  Uiso   1.00
C239   C     0.07452   0.23732   0.01733   0.00000  Uiso   1.00
C240   C     0.77364   0.52178   0.91296   0.00000  Uiso   1.00
C241   C     0.68514   0.54344   0.93580   0.00000  Uiso   1.00
C242   C     0.60443   0.52176   0.90389   0.00000  Uiso   1.00
C243   C     0.45213   0.50075   0.86902   0.00000  Uiso   1.00
C244   C     0.88503   0.46235   0.84333   0.00000  Uiso   1.00
C245   C     0.93597   0.54218   0.84138   0.00000  Uiso   1.00
C246   C     0.98547   0.57280   0.79367   0.00000  Uiso   1.00
C247   C     0.02711   0.64685   0.80067   0.00000  Uiso   1.00
C248   C     0.92822   0.41773   0.89515   0.00000  Uiso   1.00
C249   C     0.97119   0.34371   0.89264   0.00000  Uiso   1.00
C250   C     0.00631   0.31298   0.94490   0.00000  Uiso   1.00
C251   C     0.78127   0.47994   0.86013   0.00000  Uiso   1.00
C252   C     0.70069   0.45820   0.82818   0.00000  Uiso   1.00
C253   C     0.61208   0.47983   0.85097   0.00000  Uiso   1.00
H254   H     0.86503   0.57198   0.98174   0.00000  Uiso   1.00
H255   H     0.96400   0.69041   0.94218   0.00000  Uiso   1.00
H256   H     0.94972   0.46135   0.04114   0.00000  Uiso   1.00
H257   H     0.67926   0.57583   0.97669   0.00000  Uiso   1.00
H258   H     0.07712   0.80325   0.87504   0.00000  Uiso   1.00
H259   H     0.04698   0.32025   0.08370   0.00000  Uiso   1.00
H260   H     0.47666   0.56165   0.94779   0.00000  Uiso   1.00
H261   H     0.89097   0.42977   0.80220   0.00000  Uiso   1.00
H262   H     0.99136   0.54040   0.75279   0.00000  Uiso   1.00
H263   H     0.97708   0.31134   0.85175   0.00000  Uiso   1.00
H264   H     0.70662   0.42582   0.78730   0.00000  Uiso   1.00
H265   H     0.09933   0.68150   0.72132   0.00000  Uiso   1.00
H266   H     0.06919   0.19849   0.92998   0.00000  Uiso   1.00
H267   H     0.49887   0.43989   0.79407   0.00000  Uiso   1.00
O268   O     0.15383   0.81771   0.76892   0.00000  Uiso   1.00
O269   O     0.11426   0.18402   0.04268   0.00000  Uiso   1.00
O270   O     0.36602   0.50074   0.86437   0.00000  Uiso   1.00
N271   N     0.06855   0.75942   0.84564   0.00000  Uiso   1.00
N272   N     0.04039   0.30785   0.04072   0.00000  Uiso   1.00
N273   N     0.50718   0.53352   0.91367   0.00000  Uiso   1.00
N274   N     0.08051   0.69391   0.76292   0.00000  Uiso   1.00
N275   N     0.05234   0.24233   0.95801   0.00000  Uiso   1.00
N276   N     0.51913   0.46800   0.83095   0.00000  Uiso   1.00
C277   C     0.14163   0.53587   0.55665   0.00000  Uiso   1.00
C278   C     0.19692   0.58009   0.60418   0.00000  Uiso   1.00
C279   C     0.23867   0.65422   0.59818   0.00000  Uiso   1.00
C280   C     0.28612   0.68451   0.64681   0.00000  Uiso   1.00
C281   C     0.37119   0.75961   0.71258   0.00000  Uiso   1.00
C282   C     0.19167   0.45618   0.54963   0.00000  Uiso   1.00
C283   C     0.22899   0.42611   0.49776   0.00000  Uiso   1.00
C284   C     0.27201   0.35208   0.50046   0.00000  Uiso   1.00
C285   C     0.34886   0.23477   0.48154   0.00000  Uiso   1.00
C286   C     0.04318   0.51789   0.58264   0.00000  Uiso   1.00
C287   C     0.95564   0.53969   0.55851   0.00000  Uiso   1.00
C288   C     0.87364   0.51761   0.58901   0.00000  Uiso   1.00
C289   C     0.71994   0.49611   0.62133   0.00000  Uiso   1.00
C290   C     0.15166   0.45787   0.65369   0.00000  Uiso   1.00
C291   C     0.20237   0.53772   0.65689   0.00000  Uiso   1.00
C292   C     0.24977   0.56791   0.70554   0.00000  Uiso   1.00
C293   C     0.29158   0.64207   0.69961   0.00000  Uiso   1.00
C294   C     0.19712   0.41381   0.60233   0.00000  Uiso   1.00
C295   C     0.24009   0.33980   0.60511   0.00000  Uiso   1.00
C296   C     0.27747   0.30964   0.55326   0.00000  Uiso   1.00
C297   C     0.04863   0.47552   0.63534   0.00000  Uiso   1.00
C298   C     0.96675   0.45339   0.66588   0.00000  Uiso   1.00
C299   C     0.87911   0.47516   0.64181   0.00000  Uiso   1.00
H300   H     0.13739   0.56886   0.51562   0.00000  Uiso   1.00
H301   H     0.23444   0.68699   0.55738   0.00000  Uiso   1.00
H302   H     0.22475   0.45891   0.45698   0.00000  Uiso   1.00
H303   H     0.95145   0.57248   0.51773   0.00000  Uiso   1.00
H304   H     0.34448   0.79926   0.62692   0.00000  Uiso   1.00
H305   H     0.32402   0.31833   0.41521   0.00000  Uiso   1.00
H306   H     0.74771   0.55782   0.54331   0.00000  Uiso   1.00
H307   H     0.15591   0.42488   0.69472   0.00000  Uiso   1.00
H308   H     0.25398   0.53511   0.74632   0.00000  Uiso   1.00
H309   H     0.24429   0.30703   0.64591   0.00000  Uiso   1.00
H310   H     0.97099   0.42060   0.70666   0.00000  Uiso   1.00
H311   H     0.36034   0.67599   0.78027   0.00000  Uiso   1.00
H312   H     0.33988   0.19506   0.56855   0.00000  Uiso   1.00
H313   H     0.76357   0.43455   0.69666   0.00000  Uiso   1.00
O314   O     0.41662   0.81272   0.73430   0.00000  Uiso   1.00
O315   O     0.38976   0.18176   0.45653   0.00000  Uiso   1.00
O316   O     0.63366   0.49596   0.62461   0.00000  Uiso   1.00
N317   N     0.33474   0.75513   0.65594   0.00000  Uiso   1.00
N318   N     0.31562   0.30549   0.45800   0.00000  Uiso   1.00
N319   N     0.77682   0.52937   0.57775   0.00000  Uiso   1.00
N320   N     0.34327   0.68880   0.73845   0.00000  Uiso   1.00
N321   N     0.32416   0.23916   0.54051   0.00000  Uiso   1.00
N322   N     0.78536   0.46304   0.66027   0.00000  Uiso   1.00
C323   C     0.62902   0.46060   0.44060   0.00000  Uiso   1.00
C324   C     0.57166   0.41597   0.39421   0.00000  Uiso   1.00
C325   C     0.53008   0.34195   0.40129   0.00000  Uiso   1.00
C326   C     0.48053   0.31122   0.35360   0.00000  Uiso   1.00
C327   C     0.39259   0.23557   0.28962   0.00000  Uiso   1.00
C328   C     0.57941   0.54042   0.44798   0.00000  Uiso   1.00
C329   C     0.54436   0.57105   0.50026   0.00000  Uiso   1.00
C330   C     0.50134   0.64509   0.49783   0.00000  Uiso   1.00
C331   C     0.42548   0.76268   0.51733   0.00000  Uiso   1.00
C332   C     0.72636   0.47822   0.41296   0.00000  Uiso   1.00
C333   C     0.81486   0.45656   0.43580   0.00000  Uiso   1.00
C334   C     0.89557   0.47824   0.40389   0.00000  Uiso   1.00
C335   C     0.04787   0.49925   0.36902   0.00000  Uiso   1.00
C336   C     0.61497   0.53765   0.34333   0.00000  Uiso   1.00
C337   C     0.56403   0.45782   0.34138   0.00000  Uiso   1.00
C338   C     0.51453   0.42720   0.29367   0.00000  Uiso   1.00
C339   C     0.47289   0.35315   0.30067   0.00000  Uiso   1.00
C340   C     0.57178   0.58227   0.39515   0.00000  Uiso   1.00
C341   C     0.52881   0.65629   0.39264   0.00000  Uiso   1.00
C342   C     0.49369   0.68702   0.44490   0.00000  Uiso   1.00
C343   C     0.71873   0.52006   0.36013   0.00000  Uiso   1.00
C344   C     0.79931   0.54180   0.32818   0.00000  Uiso   1.00
C345   C     0.88792   0.52017   0.35097   0.00000  Uiso   1.00
H346   H     0.63497   0.42802   0.48174   0.00000  Uiso   1.00
H347   H     0.53600   0.30959   0.44218   0.00000  Uiso   1.00
H348   H     0.55028   0.53865   0.54114   0.00000  Uiso   1.00
H349   H     0.82074   0.42417   0.47669   0.00000  Uiso   1.00
H350   H     0.42288   0.19675   0.37504   0.00000  Uiso   1.00
H351   H     0.45302   0.67975   0.58370   0.00000  Uiso   1.00
H352   H     0.02334   0.43835   0.44779   0.00000  Uiso   1.00
H353   H     0.60903   0.57023   0.30220   0.00000  Uiso   1.00
H354   H     0.50864   0.45960   0.25279   0.00000  Uiso   1.00
H355   H     0.52292   0.68866   0.35175   0.00000  Uiso   1.00
H356   H     0.79338   0.57418   0.28730   0.00000  Uiso   1.00
H357   H     0.40067   0.31850   0.22132   0.00000  Uiso   1.00
H358   H     0.43081   0.80151   0.42998   0.00000  Uiso   1.00
H359   H     0.00113   0.56011   0.29407   0.00000  Uiso   1.00
O360   O     0.34617   0.18229   0.26892   0.00000  Uiso   1.00
O361   O     0.38574   0.81598   0.54268   0.00000  Uiso   1.00
O362   O     0.13398   0.49926   0.36437   0.00000  Uiso   1.00
N363   N     0.43145   0.24058   0.34564   0.00000  Uiso   1.00
N364   N     0.45961   0.69215   0.54072   0.00000  Uiso   1.00
N365   N     0.99282   0.46648   0.41367   0.00000  Uiso   1.00
N366   N     0.41949   0.30609   0.26292   0.00000  Uiso   1.00
N367   N     0.44766   0.75767   0.45801   0.00000  Uiso   1.00
N368   N     0.98087   0.53200   0.33095   0.00000  Uiso   1.00
