data_job_03770
_audit_creation_date              2018-12-19
_audit_creation_method            'Materials Studio'
_symmetry_space_group_name_H-M    'P1'
_symmetry_Int_Tables_number       1
_symmetry_cell_setting            triclinic
loop_
_symmetry_equiv_pos_as_xyz
  x,y,z
_cell_length_a                    26.8090
_cell_length_b                    8.6980
_cell_length_c                    22.6601
_cell_angle_alpha                 90.0000
_cell_angle_beta                  90.0000
_cell_angle_gamma                 90.0000
loop_
_atom_site_label
_atom_site_type_symbol
_atom_site_fract_x
_atom_site_fract_y
_atom_site_fract_z
_atom_site_U_iso_or_equiv
_atom_site_adp_type
_atom_site_occupancy
C1     C     0.88605   0.42221   0.90468   0.00000  Uiso   1.00
C2     C     0.85778   0.40286   0.84675   0.00000  Uiso   1.00
C3     C     0.81704   0.48943   0.82876   0.00000  Uiso   1.00
C4     C     0.79642   0.45384   0.77425   0.00000  Uiso   1.00
C5     C     0.74955   0.44168   0.68968   0.00000  Uiso   1.00
C6     C     0.88449   0.26582   0.93503   0.00000  Uiso   1.00
C7     C     0.86622   0.23718   0.99127   0.00000  Uiso   1.00
C8     C     0.86808   0.08623   0.01107   0.00000  Uiso   1.00
C9     C     0.86272   0.86133   0.06358   0.00000  Uiso   1.00
C10    C     0.94041   0.44914   0.88782   0.00000  Uiso   1.00
C11    C     0.96917   0.57461   0.90437   0.00000  Uiso   1.00
C12    C     0.01813   0.57798   0.88443   0.00000  Uiso   1.00
C13    C     0.09960   0.63771   0.86362   0.00000  Uiso   1.00
C14    C     0.92187   0.20507   0.83985   0.00000  Uiso   1.00
C15    C     0.87723   0.28491   0.81154   0.00000  Uiso   1.00
C16    C     0.85667   0.24918   0.75704   0.00000  Uiso   1.00
C17    C     0.81591   0.33569   0.73897   0.00000  Uiso   1.00
C18    C     0.90394   0.14788   0.89982   0.00000  Uiso   1.00
C19    C     0.90584   0.99693   0.91955   0.00000  Uiso   1.00
C20    C     0.88757   0.96807   0.97580   0.00000  Uiso   1.00
C21    C     0.95987   0.33119   0.85260   0.00000  Uiso   1.00
C22    C     0.00880   0.33436   0.83264   0.00000  Uiso   1.00
C23    C     0.03762   0.45982   0.84915   0.00000  Uiso   1.00
H24    H     0.87090   0.51403   0.93209   0.00000  Uiso   1.00
H25    H     0.80199   0.58069   0.85603   0.00000  Uiso   1.00
H26    H     0.85117   0.32848   0.01852   0.00000  Uiso   1.00
H27    H     0.95410   0.66586   0.93162   0.00000  Uiso   1.00
H28    H     0.73417   0.60254   0.75618   0.00000  Uiso   1.00
H29    H     0.83786   0.07075   0.09880   0.00000  Uiso   1.00
H30    H     0.05493   0.78218   0.91556   0.00000  Uiso   1.00
H31    H     0.93701   0.11324   0.81243   0.00000  Uiso   1.00
H32    H     0.87173   0.15790   0.72980   0.00000  Uiso   1.00
H33    H     0.92090   0.90569   0.89228   0.00000  Uiso   1.00
H34    H     0.02384   0.24307   0.80539   0.00000  Uiso   1.00
H35    H     0.79077   0.25939   0.65373   0.00000  Uiso   1.00
H36    H     0.89447   0.72760   0.99634   0.00000  Uiso   1.00
H37    H     0.11153   0.43903   0.81311   0.00000  Uiso   1.00
O38    O     0.71832   0.46754   0.65276   0.00000  Uiso   1.00
O39    O     0.85438   0.76987   0.10226   0.00000  Uiso   1.00
O40    O     0.13916   0.70325   0.86186   0.00000  Uiso   1.00
N41    N     0.75645   0.51567   0.74340   0.00000  Uiso   1.00
N42    N     0.85340   0.01847   0.06372   0.00000  Uiso   1.00
N43    N     0.05634   0.68358   0.89243   0.00000  Uiso   1.00
N44    N     0.78691   0.33102   0.68827   0.00000  Uiso   1.00
N45    N     0.88385   0.83383   0.00859   0.00000  Uiso   1.00
N46    N     0.08679   0.49894   0.83730   0.00000  Uiso   1.00
C47    C     0.61395   0.07779   0.40468   0.00000  Uiso   1.00
C48    C     0.64222   0.09714   0.34675   0.00000  Uiso   1.00
C49    C     0.68296   0.01057   0.32876   0.00000  Uiso   1.00
C50    C     0.70358   0.04616   0.27425   0.00000  Uiso   1.00
C51    C     0.75045   0.05832   0.18968   0.00000  Uiso   1.00
C52    C     0.61551   0.23418   0.43503   0.00000  Uiso   1.00
C53    C     0.63378   0.26282   0.49127   0.00000  Uiso   1.00
C54    C     0.63192   0.41377   0.51107   0.00000  Uiso   1.00
C55    C     0.63728   0.63867   0.56358   0.00000  Uiso   1.00
C56    C     0.55959   0.05086   0.38782   0.00000  Uiso   1.00
C57    C     0.53083   0.92539   0.40437   0.00000  Uiso   1.00
C58    C     0.48187   0.92202   0.38443   0.00000  Uiso   1.00
C59    C     0.40040   0.86229   0.36362   0.00000  Uiso   1.00
C60    C     0.57813   0.29493   0.33985   0.00000  Uiso   1.00
C61    C     0.62277   0.21509   0.31154   0.00000  Uiso   1.00
C62    C     0.64333   0.25082   0.25704   0.00000  Uiso   1.00
C63    C     0.68409   0.16431   0.23897   0.00000  Uiso   1.00
C64    C     0.59606   0.35212   0.39982   0.00000  Uiso   1.00
C65    C     0.59416   0.50307   0.41955   0.00000  Uiso   1.00
C66    C     0.61243   0.53193   0.47580   0.00000  Uiso   1.00
C67    C     0.54013   0.16881   0.35260   0.00000  Uiso   1.00
C68    C     0.49120   0.16564   0.33264   0.00000  Uiso   1.00
C69    C     0.46238   0.04018   0.34915   0.00000  Uiso   1.00
H70    H     0.62910   0.98597   0.43209   0.00000  Uiso   1.00
H71    H     0.69801   0.91931   0.35603   0.00000  Uiso   1.00
H72    H     0.64883   0.17152   0.51852   0.00000  Uiso   1.00
H73    H     0.54590   0.83414   0.43162   0.00000  Uiso   1.00
H74    H     0.76583   0.89746   0.25618   0.00000  Uiso   1.00
H75    H     0.66214   0.42925   0.59880   0.00000  Uiso   1.00
H76    H     0.44507   0.71782   0.41556   0.00000  Uiso   1.00
H77    H     0.56299   0.38676   0.31243   0.00000  Uiso   1.00
H78    H     0.62827   0.34210   0.22980   0.00000  Uiso   1.00
H79    H     0.57910   0.59431   0.39228   0.00000  Uiso   1.00
H80    H     0.47616   0.25693   0.30539   0.00000  Uiso   1.00
H81    H     0.70923   0.24061   0.15373   0.00000  Uiso   1.00
H82    H     0.60553   0.77240   0.49634   0.00000  Uiso   1.00
H83    H     0.38847   0.06097   0.31311   0.00000  Uiso   1.00
O84    O     0.78168   0.03246   0.15276   0.00000  Uiso   1.00
O85    O     0.64562   0.73013   0.60226   0.00000  Uiso   1.00
O86    O     0.36084   0.79675   0.36186   0.00000  Uiso   1.00
N87    N     0.74355   0.98433   0.24340   0.00000  Uiso   1.00
N88    N     0.64660   0.48153   0.56372   0.00000  Uiso   1.00
N89    N     0.44366   0.81642   0.39243   0.00000  Uiso   1.00
N90    N     0.71309   0.16898   0.18827   0.00000  Uiso   1.00
N91    N     0.61615   0.66617   0.50859   0.00000  Uiso   1.00
N92    N     0.41321   0.00106   0.33730   0.00000  Uiso   1.00
C93    C     0.11395   0.42221   0.59532   0.00000  Uiso   1.00
C94    C     0.14222   0.40286   0.65325   0.00000  Uiso   1.00
C95    C     0.18296   0.48943   0.67124   0.00000  Uiso   1.00
C96    C     0.20358   0.45384   0.72575   0.00000  Uiso   1.00
C97    C     0.25045   0.44168   0.81032   0.00000  Uiso   1.00
C98    C     0.11551   0.26582   0.56497   0.00000  Uiso   1.00
C99    C     0.13378   0.23718   0.50873   0.00000  Uiso   1.00
C100   C     0.13192   0.08623   0.48893   0.00000  Uiso   1.00
C101   C     0.13728   0.86133   0.43642   0.00000  Uiso   1.00
C102   C     0.05959   0.44914   0.61218   0.00000  Uiso   1.00
C103   C     0.03083   0.57461   0.59563   0.00000  Uiso   1.00
C104   C     0.98187   0.57798   0.61557   0.00000  Uiso   1.00
C105   C     0.90040   0.63771   0.63638   0.00000  Uiso   1.00
C106   C     0.07813   0.20507   0.66015   0.00000  Uiso   1.00
C107   C     0.12277   0.28491   0.68846   0.00000  Uiso   1.00
C108   C     0.14333   0.24918   0.74296   0.00000  Uiso   1.00
C109   C     0.18409   0.33569   0.76103   0.00000  Uiso   1.00
C110   C     0.09606   0.14788   0.60018   0.00000  Uiso   1.00
C111   C     0.09416   0.99693   0.58045   0.00000  Uiso   1.00
C112   C     0.11243   0.96807   0.52420   0.00000  Uiso   1.00
C113   C     0.04013   0.33119   0.64740   0.00000  Uiso   1.00
C114   C     0.99120   0.33436   0.66736   0.00000  Uiso   1.00
C115   C     0.96238   0.45982   0.65085   0.00000  Uiso   1.00
H116   H     0.12910   0.51403   0.56791   0.00000  Uiso   1.00
H117   H     0.19801   0.58069   0.64397   0.00000  Uiso   1.00
H118   H     0.14883   0.32848   0.48148   0.00000  Uiso   1.00
H119   H     0.04590   0.66586   0.56838   0.00000  Uiso   1.00
H120   H     0.26583   0.60254   0.74382   0.00000  Uiso   1.00
H121   H     0.16214   0.07075   0.40120   0.00000  Uiso   1.00
H122   H     0.94507   0.78218   0.58444   0.00000  Uiso   1.00
H123   H     0.06299   0.11324   0.68757   0.00000  Uiso   1.00
H124   H     0.12827   0.15790   0.77020   0.00000  Uiso   1.00
H125   H     0.07910   0.90569   0.60772   0.00000  Uiso   1.00
H126   H     0.97616   0.24307   0.69461   0.00000  Uiso   1.00
H127   H     0.20923   0.25939   0.84627   0.00000  Uiso   1.00
H128   H     0.10553   0.72760   0.50366   0.00000  Uiso   1.00
H129   H     0.88847   0.43903   0.68689   0.00000  Uiso   1.00
O130   O     0.28168   0.46754   0.84724   0.00000  Uiso   1.00
O131   O     0.14562   0.76987   0.39774   0.00000  Uiso   1.00
O132   O     0.86084   0.70325   0.63814   0.00000  Uiso   1.00
N133   N     0.24355   0.51567   0.75660   0.00000  Uiso   1.00
N134   N     0.14660   0.01847   0.43628   0.00000  Uiso   1.00
N135   N     0.94366   0.68358   0.60757   0.00000  Uiso   1.00
N136   N     0.21309   0.33102   0.81173   0.00000  Uiso   1.00
N137   N     0.11615   0.83383   0.49141   0.00000  Uiso   1.00
N138   N     0.91321   0.49894   0.66270   0.00000  Uiso   1.00
C139   C     0.38605   0.07779   0.09532   0.00000  Uiso   1.00
C140   C     0.35778   0.09714   0.15325   0.00000  Uiso   1.00
C141   C     0.31704   0.01057   0.17124   0.00000  Uiso   1.00
C142   C     0.29642   0.04616   0.22575   0.00000  Uiso   1.00
C143   C     0.24955   0.05832   0.31032   0.00000  Uiso   1.00
C144   C     0.38449   0.23418   0.06497   0.00000  Uiso   1.00
C145   C     0.36622   0.26282   0.00873   0.00000  Uiso   1.00
C146   C     0.36808   0.41377   0.98893   0.00000  Uiso   1.00
C147   C     0.36272   0.63867   0.93642   0.00000  Uiso   1.00
C148   C     0.44041   0.05086   0.11218   0.00000  Uiso   1.00
C149   C     0.46917   0.92539   0.09563   0.00000  Uiso   1.00
C150   C     0.51813   0.92202   0.11557   0.00000  Uiso   1.00
C151   C     0.59960   0.86229   0.13638   0.00000  Uiso   1.00
C152   C     0.42187   0.29493   0.16015   0.00000  Uiso   1.00
C153   C     0.37723   0.21509   0.18846   0.00000  Uiso   1.00
C154   C     0.35667   0.25082   0.24296   0.00000  Uiso   1.00
C155   C     0.31591   0.16431   0.26103   0.00000  Uiso   1.00
C156   C     0.40394   0.35212   0.10018   0.00000  Uiso   1.00
C157   C     0.40584   0.50307   0.08045   0.00000  Uiso   1.00
C158   C     0.38757   0.53193   0.02420   0.00000  Uiso   1.00
C159   C     0.45987   0.16881   0.14740   0.00000  Uiso   1.00
C160   C     0.50880   0.16564   0.16736   0.00000  Uiso   1.00
C161   C     0.53762   0.04018   0.15085   0.00000  Uiso   1.00
H162   H     0.37090   0.98597   0.06791   0.00000  Uiso   1.00
H163   H     0.30199   0.91931   0.14397   0.00000  Uiso   1.00
H164   H     0.35117   0.17152   0.98148   0.00000  Uiso   1.00
H165   H     0.45410   0.83414   0.06838   0.00000  Uiso   1.00
H166   H     0.23417   0.89746   0.24382   0.00000  Uiso   1.00
H167   H     0.33786   0.42925   0.90120   0.00000  Uiso   1.00
H168   H     0.55493   0.71782   0.08444   0.00000  Uiso   1.00
H169   H     0.43701   0.38676   0.18757   0.00000  Uiso   1.00
H170   H     0.37173   0.34210   0.27020   0.00000  Uiso   1.00
H171   H     0.42090   0.59431   0.10772   0.00000  Uiso   1.00
H172   H     0.52384   0.25693   0.19461   0.00000  Uiso   1.00
H173   H     0.29077   0.24061   0.34627   0.00000  Uiso   1.00
H174   H     0.39447   0.77240   0.00366   0.00000  Uiso   1.00
H175   H     0.61153   0.06097   0.18689   0.00000  Uiso   1.00
O176   O     0.21832   0.03246   0.34724   0.00000  Uiso   1.00
O177   O     0.35438   0.73013   0.89774   0.00000  Uiso   1.00
O178   O     0.63916   0.79675   0.13814   0.00000  Uiso   1.00
N179   N     0.25645   0.98433   0.25660   0.00000  Uiso   1.00
N180   N     0.35340   0.48153   0.93628   0.00000  Uiso   1.00
N181   N     0.55634   0.81642   0.10757   0.00000  Uiso   1.00
N182   N     0.28691   0.16898   0.31173   0.00000  Uiso   1.00
N183   N     0.38385   0.66617   0.99141   0.00000  Uiso   1.00
N184   N     0.58679   0.00106   0.16270   0.00000  Uiso   1.00
C185   C     0.11395   0.57779   0.09532   0.00000  Uiso   1.00
C186   C     0.14222   0.59714   0.15325   0.00000  Uiso   1.00
C187   C     0.18296   0.51057   0.17124   0.00000  Uiso   1.00
C188   C     0.20358   0.54616   0.22575   0.00000  Uiso   1.00
C189   C     0.25045   0.55832   0.31032   0.00000  Uiso   1.00
C190   C     0.11551   0.73418   0.06497   0.00000  Uiso   1.00
C191   C     0.13378   0.76282   0.00873   0.00000  Uiso   1.00
C192   C     0.13192   0.91377   0.98893   0.00000  Uiso   1.00
C193   C     0.13728   0.13867   0.93642   0.00000  Uiso   1.00
C194   C     0.05959   0.55086   0.11218   0.00000  Uiso   1.00
C195   C     0.03083   0.42539   0.09563   0.00000  Uiso   1.00
C196   C     0.98187   0.42202   0.11557   0.00000  Uiso   1.00
C197   C     0.90040   0.36229   0.13638   0.00000  Uiso   1.00
C198   C     0.07813   0.79493   0.16015   0.00000  Uiso   1.00
C199   C     0.12277   0.71509   0.18846   0.00000  Uiso   1.00
C200   C     0.14333   0.75082   0.24296   0.00000  Uiso   1.00
C201   C     0.18409   0.66431   0.26103   0.00000  Uiso   1.00
C202   C     0.09606   0.85212   0.10018   0.00000  Uiso   1.00
C203   C     0.09416   0.00307   0.08045   0.00000  Uiso   1.00
C204   C     0.11243   0.03193   0.02420   0.00000  Uiso   1.00
C205   C     0.04013   0.66881   0.14740   0.00000  Uiso   1.00
C206   C     0.99120   0.66564   0.16736   0.00000  Uiso   1.00
C207   C     0.96238   0.54018   0.15085   0.00000  Uiso   1.00
H208   H     0.12910   0.48597   0.06791   0.00000  Uiso   1.00
H209   H     0.19801   0.41931   0.14397   0.00000  Uiso   1.00
H210   H     0.14883   0.67152   0.98148   0.00000  Uiso   1.00
H211   H     0.04590   0.33414   0.06838   0.00000  Uiso   1.00
H212   H     0.26583   0.39746   0.24382   0.00000  Uiso   1.00
H213   H     0.16214   0.92925   0.90120   0.00000  Uiso   1.00
H214   H     0.94507   0.21782   0.08444   0.00000  Uiso   1.00
H215   H     0.06299   0.88676   0.18757   0.00000  Uiso   1.00
H216   H     0.12827   0.84210   0.27020   0.00000  Uiso   1.00
H217   H     0.07910   0.09431   0.10772   0.00000  Uiso   1.00
H218   H     0.97616   0.75693   0.19461   0.00000  Uiso   1.00
H219   H     0.20923   0.74061   0.34627   0.00000  Uiso   1.00
H220   H     0.10553   0.27240   0.00366   0.00000  Uiso   1.00
H221   H     0.88847   0.56097   0.18689   0.00000  Uiso   1.00
O222   O     0.28168   0.53246   0.34724   0.00000  Uiso   1.00
O223   O     0.14562   0.23013   0.89774   0.00000  Uiso   1.00
O224   O     0.86084   0.29675   0.13814   0.00000  Uiso   1.00
N225   N     0.24355   0.48433   0.25660   0.00000  Uiso   1.00
N226   N     0.14660   0.98153   0.93628   0.00000  Uiso   1.00
N227   N     0.94366   0.31642   0.10757   0.00000  Uiso   1.00
N228   N     0.21309   0.66898   0.31173   0.00000  Uiso   1.00
N229   N     0.11615   0.16617   0.99141   0.00000  Uiso   1.00
N230   N     0.91321   0.50106   0.16270   0.00000  Uiso   1.00
C231   C     0.38605   0.92221   0.59532   0.00000  Uiso   1.00
C232   C     0.35778   0.90286   0.65325   0.00000  Uiso   1.00
C233   C     0.31704   0.98943   0.67124   0.00000  Uiso   1.00
C234   C     0.29642   0.95384   0.72575   0.00000  Uiso   1.00
C235   C     0.24955   0.94168   0.81032   0.00000  Uiso   1.00
C236   C     0.38449   0.76582   0.56497   0.00000  Uiso   1.00
C237   C     0.36622   0.73718   0.50873   0.00000  Uiso   1.00
C238   C     0.36808   0.58623   0.48893   0.00000  Uiso   1.00
C239   C     0.36272   0.36133   0.43642   0.00000  Uiso   1.00
C240   C     0.44041   0.94914   0.61218   0.00000  Uiso   1.00
C241   C     0.46917   0.07461   0.59563   0.00000  Uiso   1.00
C242   C     0.51813   0.07798   0.61557   0.00000  Uiso   1.00
C243   C     0.59960   0.13771   0.63638   0.00000  Uiso   1.00
C244   C     0.42187   0.70507   0.66015   0.00000  Uiso   1.00
C245   C     0.37723   0.78491   0.68846   0.00000  Uiso   1.00
C246   C     0.35667   0.74918   0.74296   0.00000  Uiso   1.00
C247   C     0.31591   0.83569   0.76103   0.00000  Uiso   1.00
C248   C     0.40394   0.64788   0.60018   0.00000  Uiso   1.00
C249   C     0.40584   0.49693   0.58045   0.00000  Uiso   1.00
C250   C     0.38757   0.46807   0.52420   0.00000  Uiso   1.00
C251   C     0.45987   0.83119   0.64740   0.00000  Uiso   1.00
C252   C     0.50880   0.83436   0.66736   0.00000  Uiso   1.00
C253   C     0.53762   0.95982   0.65085   0.00000  Uiso   1.00
H254   H     0.37090   0.01403   0.56791   0.00000  Uiso   1.00
H255   H     0.30199   0.08069   0.64397   0.00000  Uiso   1.00
H256   H     0.35117   0.82848   0.48148   0.00000  Uiso   1.00
H257   H     0.45410   0.16586   0.56838   0.00000  Uiso   1.00
H258   H     0.23417   0.10254   0.74382   0.00000  Uiso   1.00
H259   H     0.33786   0.57075   0.40120   0.00000  Uiso   1.00
H260   H     0.55493   0.28218   0.58444   0.00000  Uiso   1.00
H261   H     0.43701   0.61324   0.68757   0.00000  Uiso   1.00
H262   H     0.37173   0.65790   0.77020   0.00000  Uiso   1.00
H263   H     0.42090   0.40569   0.60772   0.00000  Uiso   1.00
H264   H     0.52384   0.74307   0.69461   0.00000  Uiso   1.00
H265   H     0.29077   0.75939   0.84627   0.00000  Uiso   1.00
H266   H     0.39447   0.22760   0.50366   0.00000  Uiso   1.00
H267   H     0.61153   0.93903   0.68689   0.00000  Uiso   1.00
O268   O     0.21832   0.96754   0.84724   0.00000  Uiso   1.00
O269   O     0.35438   0.26987   0.39774   0.00000  Uiso   1.00
O270   O     0.63916   0.20325   0.63814   0.00000  Uiso   1.00
N271   N     0.25645   0.01567   0.75660   0.00000  Uiso   1.00
N272   N     0.35340   0.51847   0.43628   0.00000  Uiso   1.00
N273   N     0.55634   0.18358   0.60757   0.00000  Uiso   1.00
N274   N     0.28691   0.83102   0.81173   0.00000  Uiso   1.00
N275   N     0.38385   0.33383   0.49141   0.00000  Uiso   1.00
N276   N     0.58679   0.99894   0.66270   0.00000  Uiso   1.00
C277   C     0.88605   0.57779   0.40468   0.00000  Uiso   1.00
C278   C     0.85778   0.59714   0.34675   0.00000  Uiso   1.00
C279   C     0.81704   0.51057   0.32876   0.00000  Uiso   1.00
C280   C     0.79642   0.54616   0.27425   0.00000  Uiso   1.00
C281   C     0.74955   0.55832   0.18968   0.00000  Uiso   1.00
C282   C     0.88449   0.73418   0.43503   0.00000  Uiso   1.00
C283   C     0.86622   0.76282   0.49127   0.00000  Uiso   1.00
C284   C     0.86808   0.91377   0.51107   0.00000  Uiso   1.00
C285   C     0.86272   0.13867   0.56358   0.00000  Uiso   1.00
C286   C     0.94041   0.55086   0.38782   0.00000  Uiso   1.00
C287   C     0.96917   0.42539   0.40437   0.00000  Uiso   1.00
C288   C     0.01813   0.42202   0.38443   0.00000  Uiso   1.00
C289   C     0.09960   0.36229   0.36362   0.00000  Uiso   1.00
C290   C     0.92187   0.79493   0.33985   0.00000  Uiso   1.00
C291   C     0.87723   0.71509   0.31154   0.00000  Uiso   1.00
C292   C     0.85667   0.75082   0.25704   0.00000  Uiso   1.00
C293   C     0.81591   0.66431   0.23897   0.00000  Uiso   1.00
C294   C     0.90394   0.85212   0.39982   0.00000  Uiso   1.00
C295   C     0.90584   0.00307   0.41955   0.00000  Uiso   1.00
C296   C     0.88757   0.03193   0.47580   0.00000  Uiso   1.00
C297   C     0.95987   0.66881   0.35260   0.00000  Uiso   1.00
C298   C     0.00880   0.66564   0.33264   0.00000  Uiso   1.00
C299   C     0.03762   0.54018   0.34915   0.00000  Uiso   1.00
H300   H     0.87090   0.48597   0.43209   0.00000  Uiso   1.00
H301   H     0.80199   0.41931   0.35603   0.00000  Uiso   1.00
H302   H     0.85117   0.67152   0.51852   0.00000  Uiso   1.00
H303   H     0.95410   0.33414   0.43162   0.00000  Uiso   1.00
H304   H     0.73417   0.39746   0.25618   0.00000  Uiso   1.00
H305   H     0.83786   0.92925   0.59880   0.00000  Uiso   1.00
H306   H     0.05493   0.21782   0.41556   0.00000  Uiso   1.00
H307   H     0.93701   0.88676   0.31243   0.00000  Uiso   1.00
H308   H     0.87173   0.84210   0.22980   0.00000  Uiso   1.00
H309   H     0.92090   0.09431   0.39228   0.00000  Uiso   1.00
H310   H     0.02384   0.75693   0.30539   0.00000  Uiso   1.00
H311   H     0.79077   0.74061   0.15373   0.00000  Uiso   1.00
H312   H     0.89447   0.27240   0.49634   0.00000  Uiso   1.00
H313   H     0.11153   0.56097   0.31311   0.00000  Uiso   1.00
O314   O     0.71832   0.53246   0.15276   0.00000  Uiso   1.00
O315   O     0.85438   0.23013   0.60226   0.00000  Uiso   1.00
O316   O     0.13916   0.29675   0.36186   0.00000  Uiso   1.00
N317   N     0.75645   0.48433   0.24340   0.00000  Uiso   1.00
N318   N     0.85340   0.98153   0.56372   0.00000  Uiso   1.00
N319   N     0.05634   0.31642   0.39243   0.00000  Uiso   1.00
N320   N     0.78691   0.66898   0.18827   0.00000  Uiso   1.00
N321   N     0.88385   0.16617   0.50859   0.00000  Uiso   1.00
N322   N     0.08679   0.50106   0.33730   0.00000  Uiso   1.00
C323   C     0.61395   0.92221   0.90468   0.00000  Uiso   1.00
C324   C     0.64222   0.90286   0.84675   0.00000  Uiso   1.00
C325   C     0.68296   0.98943   0.82876   0.00000  Uiso   1.00
C326   C     0.70358   0.95384   0.77425   0.00000  Uiso   1.00
C327   C     0.75045   0.94168   0.68968   0.00000  Uiso   1.00
C328   C     0.61551   0.76582   0.93503   0.00000  Uiso   1.00
C329   C     0.63378   0.73718   0.99127   0.00000  Uiso   1.00
C330   C     0.63192   0.58623   0.01107   0.00000  Uiso   1.00
C331   C     0.63728   0.36133   0.06358   0.00000  Uiso   1.00
C332   C     0.55959   0.94914   0.88782   0.00000  Uiso   1.00
C333   C     0.53083   0.07461   0.90437   0.00000  Uiso   1.00
C334   C     0.48187   0.07798   0.88443   0.00000  Uiso   1.00
C335   C     0.40040   0.13771   0.86362   0.00000  Uiso   1.00
C336   C     0.57813   0.70507   0.83985   0.00000  Uiso   1.00
C337   C     0.62277   0.78491   0.81154   0.00000  Uiso   1.00
C338   C     0.64333   0.74918   0.75704   0.00000  Uiso   1.00
C339   C     0.68409   0.83569   0.73897   0.00000  Uiso   1.00
C340   C     0.59606   0.64788   0.89982   0.00000  Uiso   1.00
C341   C     0.59416   0.49693   0.91955   0.00000  Uiso   1.00
C342   C     0.61243   0.46807   0.97580   0.00000  Uiso   1.00
C343   C     0.54013   0.83119   0.85260   0.00000  Uiso   1.00
C344   C     0.49120   0.83436   0.83264   0.00000  Uiso   1.00
C345   C     0.46238   0.95982   0.84915   0.00000  Uiso   1.00
H346   H     0.62910   0.01403   0.93209   0.00000  Uiso   1.00
H347   H     0.69801   0.08069   0.85603   0.00000  Uiso   1.00
H348   H     0.64883   0.82848   0.01852   0.00000  Uiso   1.00
H349   H     0.54590   0.16586   0.93162   0.00000  Uiso   1.00
H350   H     0.76583   0.10254   0.75618   0.00000  Uiso   1.00
H351   H     0.66214   0.57075   0.09880   0.00000  Uiso   1.00
H352   H     0.44507   0.28218   0.91556   0.00000  Uiso   1.00
H353   H     0.56299   0.61324   0.81243   0.00000  Uiso   1.00
H354   H     0.62827   0.65790   0.72980   0.00000  Uiso   1.00
H355   H     0.57910   0.40569   0.89228   0.00000  Uiso   1.00
H356   H     0.47616   0.74307   0.80539   0.00000  Uiso   1.00
H357   H     0.70923   0.75939   0.65373   0.00000  Uiso   1.00
H358   H     0.60553   0.22760   0.99634   0.00000  Uiso   1.00
H359   H     0.38847   0.93903   0.81311   0.00000  Uiso   1.00
O360   O     0.78168   0.96754   0.65276   0.00000  Uiso   1.00
O361   O     0.64562   0.26987   0.10226   0.00000  Uiso   1.00
O362   O     0.36084   0.20325   0.86186   0.00000  Uiso   1.00
N363   N     0.74355   0.01567   0.74340   0.00000  Uiso   1.00
N364   N     0.64660   0.51847   0.06372   0.00000  Uiso   1.00
N365   N     0.44366   0.18358   0.89243   0.00000  Uiso   1.00
N366   N     0.71309   0.83102   0.68827   0.00000  Uiso   1.00
N367   N     0.61615   0.33383   0.00859   0.00000  Uiso   1.00
N368   N     0.41321   0.99894   0.83730   0.00000  Uiso   1.00
