data_job_06012
_audit_creation_date              2018-12-19
_audit_creation_method            'Materials Studio'
_symmetry_space_group_name_H-M    'P1'
_symmetry_Int_Tables_number       1
_symmetry_cell_setting            triclinic
loop_
_symmetry_equiv_pos_as_xyz
  x,y,z
_cell_length_a                    7.4747
_cell_length_b                    23.2385
_cell_length_c                    23.6798
_cell_angle_alpha                 118.7610
_cell_angle_beta                  81.9858
_cell_angle_gamma                 88.0548
loop_
_atom_site_label
_atom_site_type_symbol
_atom_site_fract_x
_atom_site_fract_y
_atom_site_fract_z
_atom_site_U_iso_or_equiv
_atom_site_adp_type
_atom_site_occupancy
C1     C     0.50991   0.33545   0.00978   0.00000  Uiso   1.00
C2     C     0.49841   0.37932   0.08336   0.00000  Uiso   1.00
C3     C     0.34093   0.41385   0.12827   0.00000  Uiso   1.00
C4     C     0.35896   0.45123   0.19339   0.00000  Uiso   1.00
C5     C     0.31533   0.51896   0.30468   0.00000  Uiso   1.00
C6     C     0.64674   0.36266   0.97740   0.00000  Uiso   1.00
C7     C     0.61397   0.38318   0.93321   0.00000  Uiso   1.00
C8     C     0.75688   0.40653   0.90912   0.00000  Uiso   1.00
C9     C     0.94358   0.44834   0.85586   0.00000  Uiso   1.00
C10    C     0.59844   0.26780   0.99312   0.00000  Uiso   1.00
C11    C     0.52509   0.20854   0.96213   0.00000  Uiso   1.00
C12    C     0.62737   0.15202   0.95126   0.00000  Uiso   1.00
C13    C     0.73907   0.04654   0.92241   0.00000  Uiso   1.00
C14    C     0.82198   0.34043   0.04558   0.00000  Uiso   1.00
C15    C     0.66792   0.38202   0.10280   0.00000  Uiso   1.00
C16    C     0.68620   0.41935   0.16788   0.00000  Uiso   1.00
C17    C     0.52877   0.45394   0.21287   0.00000  Uiso   1.00
C18    C     0.81624   0.36536   0.99684   0.00000  Uiso   1.00
C19    C     0.95924   0.38868   0.97281   0.00000  Uiso   1.00
C20    C     0.92670   0.40923   0.92860   0.00000  Uiso   1.00
C21    C     0.76795   0.27049   0.01256   0.00000  Uiso   1.00
C22    C     0.87036   0.21405   0.00174   0.00000  Uiso   1.00
C23    C     0.79718   0.15472   0.97074   0.00000  Uiso   1.00
H24    H     0.37795   0.33335   0.99464   0.00000  Uiso   1.00
H25    H     0.20977   0.41176   0.11320   0.00000  Uiso   1.00
H26    H     0.48279   0.38108   0.91816   0.00000  Uiso   1.00
H27    H     0.39392   0.20647   0.94709   0.00000  Uiso   1.00
H28    H     0.09809   0.49989   0.25322   0.00000  Uiso   1.00
H29    H     0.67376   0.43518   0.84195   0.00000  Uiso   1.00
H30    H     0.48637   0.06699   0.90294   0.00000  Uiso   1.00
H31    H     0.95396   0.34253   0.06072   0.00000  Uiso   1.00
H32    H     0.81739   0.42143   0.18291   0.00000  Uiso   1.00
H33    H     0.09040   0.39076   0.98787   0.00000  Uiso   1.00
H34    H     0.00153   0.21615   0.01679   0.00000  Uiso   1.00
H35    H     0.59125   0.50775   0.30979   0.00000  Uiso   1.00
H36    H     0.16693   0.44304   0.89853   0.00000  Uiso   1.00
H37    H     0.97953   0.07485   0.95952   0.00000  Uiso   1.00
O38    O     0.24445   0.55558   0.36069   0.00000  Uiso   1.00
O39    O     0.99972   0.47067   0.82112   0.00000  Uiso   1.00
O40    O     0.75385   0.98762   0.90113   0.00000  Uiso   1.00
N41    N     0.23289   0.49090   0.24977   0.00000  Uiso   1.00
N42    N     0.77110   0.43041   0.86527   0.00000  Uiso   1.00
N43    N     0.59593   0.08618   0.92227   0.00000  Uiso   1.00
N44    N     0.49826   0.49513   0.28021   0.00000  Uiso   1.00
N45    N     0.03647   0.43464   0.89571   0.00000  Uiso   1.00
N46    N     0.86129   0.09041   0.95271   0.00000  Uiso   1.00
C47    C     0.52569   0.98717   0.32934   0.00000  Uiso   1.00
C48    C     0.58180   0.91326   0.29948   0.00000  Uiso   1.00
C49    C     0.46440   0.86584   0.29091   0.00000  Uiso   1.00
C50    C     0.54249   0.80086   0.26268   0.00000  Uiso   1.00
C51    C     0.60092   0.68867   0.21923   0.00000  Uiso   1.00
C52    C     0.62719   0.02132   0.38640   0.00000  Uiso   1.00
C53    C     0.54795   0.06474   0.45090   0.00000  Uiso   1.00
C54    C     0.66427   0.09073   0.49584   0.00000  Uiso   1.00
C55    C     0.79317   0.14633   0.58731   0.00000  Uiso   1.00
C56    C     0.60618   0.00565   0.27824   0.00000  Uiso   1.00
C57    C     0.50929   0.03593   0.25183   0.00000  Uiso   1.00
C58    C     0.60792   0.04875   0.20571   0.00000  Uiso   1.00
C59    C     0.70419   0.08003   0.12926   0.00000  Uiso   1.00
C60    C     0.87313   0.95612   0.29445   0.00000  Uiso   1.00
C61    C     0.77052   0.89640   0.28053   0.00000  Uiso   1.00
C62    C     0.84881   0.83147   0.25230   0.00000  Uiso   1.00
C63    C     0.73155   0.78396   0.24369   0.00000  Uiso   1.00
C64    C     0.81590   0.00445   0.36745   0.00000  Uiso   1.00
C65    C     0.93236   0.03038   0.41229   0.00000  Uiso   1.00
C66    C     0.85332   0.07383   0.47685   0.00000  Uiso   1.00
C67    C     0.79490   0.98879   0.25929   0.00000  Uiso   1.00
C68    C     0.89370   0.00156   0.21321   0.00000  Uiso   1.00
C69    C     0.79698   0.03185   0.18672   0.00000  Uiso   1.00
H70    H     0.37877   0.00031   0.34410   0.00000  Uiso   1.00
H71    H     0.31836   0.87891   0.30559   0.00000  Uiso   1.00
H72    H     0.40191   0.07779   0.46556   0.00000  Uiso   1.00
H73    H     0.36325   0.04898   0.26651   0.00000  Uiso   1.00
H74    H     0.33463   0.73688   0.25456   0.00000  Uiso   1.00
H75    H     0.51079   0.15625   0.59184   0.00000  Uiso   1.00
H76    H     0.42927   0.09549   0.17211   0.00000  Uiso   1.00
H77    H     0.02006   0.94299   0.27969   0.00000  Uiso   1.00
H78    H     0.99486   0.81844   0.23764   0.00000  Uiso   1.00
H79    H     0.07839   0.01732   0.39761   0.00000  Uiso   1.00
H80    H     0.03973   0.98851   0.19855   0.00000  Uiso   1.00
H81    H     0.88369   0.68780   0.19941   0.00000  Uiso   1.00
H82    H     0.05985   0.10718   0.53670   0.00000  Uiso   1.00
H83    H     0.97833   0.04641   0.11696   0.00000  Uiso   1.00
O84    O     0.58101   0.63145   0.20050   0.00000  Uiso   1.00
O85    O     0.81212   0.18166   0.64301   0.00000  Uiso   1.00
O86    O     0.70516   0.10194   0.09232   0.00000  Uiso   1.00
N87    N     0.46731   0.74242   0.24734   0.00000  Uiso   1.00
N88    N     0.63201   0.13450   0.56268   0.00000  Uiso   1.00
N89    N     0.55579   0.07771   0.17028   0.00000  Uiso   1.00
N90    N     0.76276   0.71601   0.21766   0.00000  Uiso   1.00
N91    N     0.92745   0.10809   0.53301   0.00000  Uiso   1.00
N92    N     0.85124   0.05130   0.14060   0.00000  Uiso   1.00
C93    C     0.85080   0.66658   0.66059   0.00000  Uiso   1.00
C94    C     0.88649   0.69779   0.61690   0.00000  Uiso   1.00
C95    C     0.76630   0.70494   0.58041   0.00000  Uiso   1.00
C96    C     0.82451   0.73478   0.54358   0.00000  Uiso   1.00
C97    C     0.85376   0.77988   0.47576   0.00000  Uiso   1.00
C98    C     0.00487   0.61093   0.63607   0.00000  Uiso   1.00
C99    C     0.98419   0.54506   0.61570   0.00000  Uiso   1.00
C100   C     0.14207   0.50178   0.59502   0.00000  Uiso   1.00
C101   C     0.35509   0.41205   0.55701   0.00000  Uiso   1.00
C102   C     0.87838   0.71861   0.72843   0.00000  Uiso   1.00
C103   C     0.75138   0.74327   0.78572   0.00000  Uiso   1.00
C104   C     0.80277   0.79065   0.84280   0.00000  Uiso   1.00
C105   C     0.81941   0.86810   0.94819   0.00000  Uiso   1.00
C106   C     0.16794   0.70685   0.66006   0.00000  Uiso   1.00
C107   C     0.05875   0.71966   0.61662   0.00000  Uiso   1.00
C108   C     0.11716   0.74950   0.57983   0.00000  Uiso   1.00
C109   C     0.99707   0.75670   0.54329   0.00000  Uiso   1.00
C110   C     0.17712   0.63280   0.63578   0.00000  Uiso   1.00
C111   C     0.33506   0.58962   0.61513   0.00000  Uiso   1.00
C112   C     0.31463   0.52370   0.59473   0.00000  Uiso   1.00
C113   C     0.05064   0.74049   0.72814   0.00000  Uiso   1.00
C114   C     0.10225   0.78783   0.78514   0.00000  Uiso   1.00
C115   C     0.97534   0.81256   0.84251   0.00000  Uiso   1.00
H116   H     0.71670   0.64954   0.66081   0.00000  Uiso   1.00
H117   H     0.63301   0.68800   0.58064   0.00000  Uiso   1.00
H118   H     0.85088   0.52815   0.61593   0.00000  Uiso   1.00
H119   H     0.61809   0.72633   0.78592   0.00000  Uiso   1.00
H120   H     0.61621   0.74026   0.49161   0.00000  Uiso   1.00
H121   H     0.07559   0.40320   0.56606   0.00000  Uiso   1.00
H122   H     0.58472   0.82111   0.92451   0.00000  Uiso   1.00
H123   H     0.30205   0.72388   0.65984   0.00000  Uiso   1.00
H124   H     0.25047   0.76642   0.57962   0.00000  Uiso   1.00
H125   H     0.46834   0.60656   0.61492   0.00000  Uiso   1.00
H126   H     0.23555   0.80475   0.78490   0.00000  Uiso   1.00
H127   H     0.11737   0.80391   0.49079   0.00000  Uiso   1.00
H128   H     0.57674   0.46685   0.56523   0.00000  Uiso   1.00
H129   H     0.08588   0.88476   0.92369   0.00000  Uiso   1.00
O130   O     0.82232   0.79871   0.43843   0.00000  Uiso   1.00
O131   O     0.42500   0.35650   0.53611   0.00000  Uiso   1.00
O132   O     0.78099   0.90479   0.00639   0.00000  Uiso   1.00
N133   N     0.74122   0.74942   0.50244   0.00000  Uiso   1.00
N134   N     0.17071   0.43428   0.57203   0.00000  Uiso   1.00
N135   N     0.71181   0.82498   0.90716   0.00000  Uiso   1.00
N136   N     0.01089   0.78367   0.50199   0.00000  Uiso   1.00
N137   N     0.44038   0.46853   0.57159   0.00000  Uiso   1.00
N138   N     0.98148   0.85923   0.90671   0.00000  Uiso   1.00
C139   C     0.49009   0.66455   0.99022   0.00000  Uiso   1.00
C140   C     0.50159   0.62068   0.91664   0.00000  Uiso   1.00
C141   C     0.65907   0.58615   0.87173   0.00000  Uiso   1.00
C142   C     0.64104   0.54877   0.80661   0.00000  Uiso   1.00
C143   C     0.68466   0.48104   0.69532   0.00000  Uiso   1.00
C144   C     0.35326   0.63734   0.02260   0.00000  Uiso   1.00
C145   C     0.38603   0.61682   0.06679   0.00000  Uiso   1.00
C146   C     0.24312   0.59347   0.09088   0.00000  Uiso   1.00
C147   C     0.05642   0.55166   0.14414   0.00000  Uiso   1.00
C148   C     0.40156   0.73220   0.00688   0.00000  Uiso   1.00
C149   C     0.47491   0.79146   0.03787   0.00000  Uiso   1.00
C150   C     0.37263   0.84798   0.04874   0.00000  Uiso   1.00
C151   C     0.26093   0.95346   0.07759   0.00000  Uiso   1.00
C152   C     0.17802   0.65957   0.95442   0.00000  Uiso   1.00
C153   C     0.33208   0.61798   0.89720   0.00000  Uiso   1.00
C154   C     0.31380   0.58065   0.83212   0.00000  Uiso   1.00
C155   C     0.47123   0.54606   0.78713   0.00000  Uiso   1.00
C156   C     0.18376   0.63464   0.00316   0.00000  Uiso   1.00
C157   C     0.04076   0.61132   0.02719   0.00000  Uiso   1.00
C158   C     0.07330   0.59077   0.07140   0.00000  Uiso   1.00
C159   C     0.23205   0.72951   0.98744   0.00000  Uiso   1.00
C160   C     0.12964   0.78595   0.99826   0.00000  Uiso   1.00
C161   C     0.20282   0.84528   0.02926   0.00000  Uiso   1.00
H162   H     0.62205   0.66665   0.00536   0.00000  Uiso   1.00
H163   H     0.79023   0.58825   0.88680   0.00000  Uiso   1.00
H164   H     0.51721   0.61892   0.08184   0.00000  Uiso   1.00
H165   H     0.60608   0.79353   0.05291   0.00000  Uiso   1.00
H166   H     0.90191   0.50011   0.74678   0.00000  Uiso   1.00
H167   H     0.32624   0.56482   0.15805   0.00000  Uiso   1.00
H168   H     0.51363   0.93301   0.09706   0.00000  Uiso   1.00
H169   H     0.04604   0.65747   0.93928   0.00000  Uiso   1.00
H170   H     0.18261   0.57857   0.81709   0.00000  Uiso   1.00
H171   H     0.90960   0.60924   0.01213   0.00000  Uiso   1.00
H172   H     0.99847   0.78385   0.98321   0.00000  Uiso   1.00
H173   H     0.40875   0.49225   0.69020   0.00000  Uiso   1.00
H174   H     0.83307   0.55696   0.10147   0.00000  Uiso   1.00
H175   H     0.02047   0.92515   0.04048   0.00000  Uiso   1.00
O176   O     0.75555   0.44442   0.63931   0.00000  Uiso   1.00
O177   O     0.00028   0.52933   0.17888   0.00000  Uiso   1.00
O178   O     0.24615   0.01238   0.09887   0.00000  Uiso   1.00
N179   N     0.76711   0.50910   0.75023   0.00000  Uiso   1.00
N180   N     0.22890   0.56959   0.13473   0.00000  Uiso   1.00
N181   N     0.40407   0.91382   0.07773   0.00000  Uiso   1.00
N182   N     0.50174   0.50487   0.71979   0.00000  Uiso   1.00
N183   N     0.96353   0.56536   0.10429   0.00000  Uiso   1.00
N184   N     0.13870   0.90959   0.04729   0.00000  Uiso   1.00
C185   C     0.47431   0.01283   0.67066   0.00000  Uiso   1.00
C186   C     0.41820   0.08674   0.70052   0.00000  Uiso   1.00
C187   C     0.53560   0.13417   0.70909   0.00000  Uiso   1.00
C188   C     0.45751   0.19914   0.73732   0.00000  Uiso   1.00
C189   C     0.39908   0.31133   0.78077   0.00000  Uiso   1.00
C190   C     0.37281   0.97868   0.61360   0.00000  Uiso   1.00
C191   C     0.45205   0.93526   0.54910   0.00000  Uiso   1.00
C192   C     0.33573   0.90927   0.50416   0.00000  Uiso   1.00
C193   C     0.20683   0.85367   0.41269   0.00000  Uiso   1.00
C194   C     0.39382   0.99435   0.72176   0.00000  Uiso   1.00
C195   C     0.49071   0.96407   0.74817   0.00000  Uiso   1.00
C196   C     0.39208   0.95125   0.79429   0.00000  Uiso   1.00
C197   C     0.29581   0.91997   0.87074   0.00000  Uiso   1.00
C198   C     0.12687   0.04388   0.70555   0.00000  Uiso   1.00
C199   C     0.22948   0.10360   0.71947   0.00000  Uiso   1.00
C200   C     0.15119   0.16853   0.74770   0.00000  Uiso   1.00
C201   C     0.26845   0.21604   0.75631   0.00000  Uiso   1.00
C202   C     0.18410   0.99555   0.63255   0.00000  Uiso   1.00
C203   C     0.06764   0.96962   0.58771   0.00000  Uiso   1.00
C204   C     0.14668   0.92617   0.52315   0.00000  Uiso   1.00
C205   C     0.20510   0.01121   0.74071   0.00000  Uiso   1.00
C206   C     0.10630   0.99844   0.78679   0.00000  Uiso   1.00
C207   C     0.20302   0.96815   0.81328   0.00000  Uiso   1.00
H208   H     0.62123   0.99969   0.65590   0.00000  Uiso   1.00
H209   H     0.68164   0.12109   0.69441   0.00000  Uiso   1.00
H210   H     0.59809   0.92221   0.53444   0.00000  Uiso   1.00
H211   H     0.63675   0.95102   0.73349   0.00000  Uiso   1.00
H212   H     0.66537   0.26312   0.74544   0.00000  Uiso   1.00
H213   H     0.48921   0.84375   0.40816   0.00000  Uiso   1.00
H214   H     0.57073   0.90451   0.82789   0.00000  Uiso   1.00
H215   H     0.97994   0.05701   0.72031   0.00000  Uiso   1.00
H216   H     0.00514   0.18156   0.76236   0.00000  Uiso   1.00
H217   H     0.92161   0.98268   0.60240   0.00000  Uiso   1.00
H218   H     0.96026   0.01149   0.80145   0.00000  Uiso   1.00
H219   H     0.11631   0.31220   0.80059   0.00000  Uiso   1.00
H220   H     0.94015   0.89282   0.46330   0.00000  Uiso   1.00
H221   H     0.02167   0.95359   0.88304   0.00000  Uiso   1.00
O222   O     0.41899   0.36855   0.79950   0.00000  Uiso   1.00
O223   O     0.18788   0.81834   0.35699   0.00000  Uiso   1.00
O224   O     0.29484   0.89806   0.90768   0.00000  Uiso   1.00
N225   N     0.53269   0.25758   0.75266   0.00000  Uiso   1.00
N226   N     0.36799   0.86550   0.43732   0.00000  Uiso   1.00
N227   N     0.44421   0.92229   0.82972   0.00000  Uiso   1.00
N228   N     0.23724   0.28399   0.78234   0.00000  Uiso   1.00
N229   N     0.07255   0.89191   0.46699   0.00000  Uiso   1.00
N230   N     0.14876   0.94870   0.85940   0.00000  Uiso   1.00
C231   C     0.14920   0.33342   0.33941   0.00000  Uiso   1.00
C232   C     0.11351   0.30221   0.38310   0.00000  Uiso   1.00
C233   C     0.23370   0.29506   0.41959   0.00000  Uiso   1.00
C234   C     0.17549   0.26522   0.45642   0.00000  Uiso   1.00
C235   C     0.14624   0.22012   0.52424   0.00000  Uiso   1.00
C236   C     0.99513   0.38907   0.36393   0.00000  Uiso   1.00
C237   C     0.01581   0.45494   0.38430   0.00000  Uiso   1.00
C238   C     0.85793   0.49822   0.40498   0.00000  Uiso   1.00
C239   C     0.64491   0.58795   0.44299   0.00000  Uiso   1.00
C240   C     0.12162   0.28139   0.27157   0.00000  Uiso   1.00
C241   C     0.24862   0.25673   0.21428   0.00000  Uiso   1.00
C242   C     0.19723   0.20935   0.15720   0.00000  Uiso   1.00
C243   C     0.18059   0.13190   0.05181   0.00000  Uiso   1.00
C244   C     0.83206   0.29315   0.33994   0.00000  Uiso   1.00
C245   C     0.94125   0.28034   0.38338   0.00000  Uiso   1.00
C246   C     0.88283   0.25050   0.42017   0.00000  Uiso   1.00
C247   C     0.00293   0.24330   0.45671   0.00000  Uiso   1.00
C248   C     0.82288   0.36720   0.36422   0.00000  Uiso   1.00
C249   C     0.66494   0.41038   0.38487   0.00000  Uiso   1.00
C250   C     0.68537   0.47630   0.40527   0.00000  Uiso   1.00
C251   C     0.94936   0.25951   0.27186   0.00000  Uiso   1.00
C252   C     0.89775   0.21217   0.21486   0.00000  Uiso   1.00
C253   C     0.02466   0.18744   0.15749   0.00000  Uiso   1.00
H254   H     0.28330   0.35046   0.33919   0.00000  Uiso   1.00
H255   H     0.36699   0.31200   0.41936   0.00000  Uiso   1.00
H256   H     0.14912   0.47186   0.38407   0.00000  Uiso   1.00
H257   H     0.38191   0.27367   0.21408   0.00000  Uiso   1.00
H258   H     0.38379   0.25974   0.50839   0.00000  Uiso   1.00
H259   H     0.92441   0.59680   0.43394   0.00000  Uiso   1.00
H260   H     0.41528   0.17889   0.07549   0.00000  Uiso   1.00
H261   H     0.69795   0.27612   0.34016   0.00000  Uiso   1.00
H262   H     0.74953   0.23358   0.42038   0.00000  Uiso   1.00
H263   H     0.53166   0.39344   0.38508   0.00000  Uiso   1.00
H264   H     0.76444   0.19525   0.21510   0.00000  Uiso   1.00
H265   H     0.88263   0.19609   0.50921   0.00000  Uiso   1.00
H266   H     0.42325   0.53315   0.43477   0.00000  Uiso   1.00
H267   H     0.91412   0.11524   0.07631   0.00000  Uiso   1.00
O268   O     0.17768   0.20129   0.56157   0.00000  Uiso   1.00
O269   O     0.57500   0.64350   0.46389   0.00000  Uiso   1.00
O270   O     0.21901   0.09521   0.99361   0.00000  Uiso   1.00
N271   N     0.25878   0.25058   0.49756   0.00000  Uiso   1.00
N272   N     0.82929   0.56572   0.42797   0.00000  Uiso   1.00
N273   N     0.28819   0.17502   0.09284   0.00000  Uiso   1.00
N274   N     0.98911   0.21633   0.49801   0.00000  Uiso   1.00
N275   N     0.55962   0.53147   0.42841   0.00000  Uiso   1.00
N276   N     0.01852   0.14077   0.09329   0.00000  Uiso   1.00
