data_job_04101
_audit_creation_date              2018-12-19
_audit_creation_method            'Materials Studio'
_symmetry_space_group_name_H-M    'P1'
_symmetry_Int_Tables_number       1
_symmetry_cell_setting            triclinic
loop_
_symmetry_equiv_pos_as_xyz
  x,y,z
_cell_length_a                    18.3187
_cell_length_b                    18.3187
_cell_length_c                    7.5085
_cell_angle_alpha                 90.0000
_cell_angle_beta                  90.0000
_cell_angle_gamma                 90.0000
loop_
_atom_site_label
_atom_site_type_symbol
_atom_site_fract_x
_atom_site_fract_y
_atom_site_fract_z
_atom_site_U_iso_or_equiv
_atom_site_adp_type
_atom_site_occupancy
C1     C     0.32101   0.82952   0.31616   0.00000  Uiso   1.00
C2     C     0.24548   0.81573   0.39465   0.00000  Uiso   1.00
C3     C     0.18196   0.80411   0.29800   0.00000  Uiso   1.00
C4     C     0.11837   0.79253   0.39457   0.00000  Uiso   1.00
C5     C     0.00109   0.77115   0.48807   0.00000  Uiso   1.00
C6     C     0.34682   0.90186   0.39448   0.00000  Uiso   1.00
C7     C     0.36852   0.96264   0.29767   0.00000  Uiso   1.00
C8     C     0.39025   0.02355   0.39410   0.00000  Uiso   1.00
C9     C     0.43035   0.13587   0.48733   0.00000  Uiso   1.00
C10    C     0.37074   0.77104   0.39467   0.00000  Uiso   1.00
C11    C     0.41257   0.72183   0.29803   0.00000  Uiso   1.00
C12    C     0.45446   0.67261   0.39463   0.00000  Uiso   1.00
C13    C     0.53170   0.58181   0.48816   0.00000  Uiso   1.00
C14    C     0.32103   0.82961   0.65954   0.00000  Uiso   1.00
C15    C     0.24549   0.81579   0.58116   0.00000  Uiso   1.00
C16    C     0.18199   0.80421   0.67791   0.00000  Uiso   1.00
C17    C     0.11839   0.79257   0.58141   0.00000  Uiso   1.00
C18    C     0.34683   0.90191   0.58098   0.00000  Uiso   1.00
C19    C     0.36855   0.96274   0.67758   0.00000  Uiso   1.00
C20    C     0.39027   0.02360   0.58094   0.00000  Uiso   1.00
C21    C     0.37075   0.77109   0.58118   0.00000  Uiso   1.00
C22    C     0.41259   0.72194   0.67795   0.00000  Uiso   1.00
C23    C     0.45447   0.67266   0.58148   0.00000  Uiso   1.00
H24    H     0.32100   0.82948   0.17096   0.00000  Uiso   1.00
H25    H     0.18197   0.80408   0.15366   0.00000  Uiso   1.00
H26    H     0.36851   0.96258   0.15333   0.00000  Uiso   1.00
H27    H     0.41254   0.72181   0.15370   0.00000  Uiso   1.00
H28    H     0.02784   0.77597   0.21674   0.00000  Uiso   1.00
H29    H     0.42118   0.11017   0.21605   0.00000  Uiso   1.00
H30    H     0.51405   0.60245   0.21682   0.00000  Uiso   1.00
H31    H     0.32105   0.82965   0.80475   0.00000  Uiso   1.00
H32    H     0.18202   0.80426   0.82224   0.00000  Uiso   1.00
H33    H     0.36855   0.96276   0.82191   0.00000  Uiso   1.00
H34    H     0.41259   0.72199   0.82228   0.00000  Uiso   1.00
H35    H     0.02787   0.77612   0.75938   0.00000  Uiso   1.00
H36    H     0.42122   0.11031   0.75869   0.00000  Uiso   1.00
H37    H     0.51408   0.60260   0.75946   0.00000  Uiso   1.00
O38    O     0.93639   0.75936   0.48812   0.00000  Uiso   1.00
O39    O     0.45246   0.19781   0.48722   0.00000  Uiso   1.00
O40    O     0.57429   0.53170   0.48823   0.00000  Uiso   1.00
N41    N     0.04693   0.77947   0.34205   0.00000  Uiso   1.00
N42    N     0.41467   0.09193   0.34140   0.00000  Uiso   1.00
N43    N     0.50150   0.61728   0.34212   0.00000  Uiso   1.00
N44    N     0.04695   0.77955   0.63404   0.00000  Uiso   1.00
N45    N     0.41469   0.09201   0.63339   0.00000  Uiso   1.00
N46    N     0.50152   0.61736   0.63412   0.00000  Uiso   1.00
C47    C     0.67899   0.17048   0.31616   0.00000  Uiso   1.00
C48    C     0.75452   0.18427   0.39465   0.00000  Uiso   1.00
C49    C     0.81804   0.19589   0.29800   0.00000  Uiso   1.00
C50    C     0.88163   0.20747   0.39457   0.00000  Uiso   1.00
C51    C     0.99891   0.22885   0.48807   0.00000  Uiso   1.00
C52    C     0.65318   0.09814   0.39448   0.00000  Uiso   1.00
C53    C     0.63148   0.03736   0.29767   0.00000  Uiso   1.00
C54    C     0.60975   0.97645   0.39410   0.00000  Uiso   1.00
C55    C     0.56965   0.86413   0.48733   0.00000  Uiso   1.00
C56    C     0.62926   0.22896   0.39467   0.00000  Uiso   1.00
C57    C     0.58743   0.27817   0.29803   0.00000  Uiso   1.00
C58    C     0.54554   0.32739   0.39463   0.00000  Uiso   1.00
C59    C     0.46830   0.41819   0.48816   0.00000  Uiso   1.00
C60    C     0.67897   0.17039   0.65954   0.00000  Uiso   1.00
C61    C     0.75451   0.18421   0.58116   0.00000  Uiso   1.00
C62    C     0.81801   0.19579   0.67791   0.00000  Uiso   1.00
C63    C     0.88161   0.20743   0.58141   0.00000  Uiso   1.00
C64    C     0.65317   0.09809   0.58098   0.00000  Uiso   1.00
C65    C     0.63145   0.03726   0.67758   0.00000  Uiso   1.00
C66    C     0.60973   0.97640   0.58094   0.00000  Uiso   1.00
C67    C     0.62925   0.22891   0.58118   0.00000  Uiso   1.00
C68    C     0.58741   0.27806   0.67795   0.00000  Uiso   1.00
C69    C     0.54553   0.32734   0.58148   0.00000  Uiso   1.00
H70    H     0.67900   0.17052   0.17096   0.00000  Uiso   1.00
H71    H     0.81803   0.19592   0.15366   0.00000  Uiso   1.00
H72    H     0.63149   0.03742   0.15333   0.00000  Uiso   1.00
H73    H     0.58746   0.27819   0.15370   0.00000  Uiso   1.00
H74    H     0.97216   0.22403   0.21674   0.00000  Uiso   1.00
H75    H     0.57882   0.88983   0.21605   0.00000  Uiso   1.00
H76    H     0.48595   0.39755   0.21682   0.00000  Uiso   1.00
H77    H     0.67895   0.17035   0.80475   0.00000  Uiso   1.00
H78    H     0.81798   0.19574   0.82224   0.00000  Uiso   1.00
H79    H     0.63145   0.03724   0.82191   0.00000  Uiso   1.00
H80    H     0.58741   0.27801   0.82228   0.00000  Uiso   1.00
H81    H     0.97213   0.22388   0.75938   0.00000  Uiso   1.00
H82    H     0.57878   0.88969   0.75869   0.00000  Uiso   1.00
H83    H     0.48592   0.39740   0.75946   0.00000  Uiso   1.00
O84    O     0.06361   0.24064   0.48812   0.00000  Uiso   1.00
O85    O     0.54754   0.80219   0.48722   0.00000  Uiso   1.00
O86    O     0.42571   0.46830   0.48823   0.00000  Uiso   1.00
N87    N     0.95307   0.22053   0.34205   0.00000  Uiso   1.00
N88    N     0.58533   0.90807   0.34140   0.00000  Uiso   1.00
N89    N     0.49850   0.38272   0.34212   0.00000  Uiso   1.00
N90    N     0.95305   0.22045   0.63404   0.00000  Uiso   1.00
N91    N     0.58531   0.90799   0.63339   0.00000  Uiso   1.00
N92    N     0.49848   0.38264   0.63412   0.00000  Uiso   1.00
C93    C     0.17048   0.32101   0.81616   0.00000  Uiso   1.00
C94    C     0.18427   0.24548   0.89465   0.00000  Uiso   1.00
C95    C     0.19589   0.18196   0.79800   0.00000  Uiso   1.00
C96    C     0.20747   0.11837   0.89457   0.00000  Uiso   1.00
C97    C     0.22885   0.00109   0.98807   0.00000  Uiso   1.00
C98    C     0.09814   0.34682   0.89448   0.00000  Uiso   1.00
C99    C     0.03736   0.36852   0.79767   0.00000  Uiso   1.00
C100   C     0.97645   0.39025   0.89410   0.00000  Uiso   1.00
C101   C     0.86413   0.43035   0.98733   0.00000  Uiso   1.00
C102   C     0.22896   0.37074   0.89467   0.00000  Uiso   1.00
C103   C     0.27817   0.41257   0.79803   0.00000  Uiso   1.00
C104   C     0.32739   0.45446   0.89463   0.00000  Uiso   1.00
C105   C     0.41819   0.53170   0.98816   0.00000  Uiso   1.00
C106   C     0.17039   0.32103   0.15954   0.00000  Uiso   1.00
C107   C     0.18421   0.24549   0.08116   0.00000  Uiso   1.00
C108   C     0.19579   0.18199   0.17791   0.00000  Uiso   1.00
C109   C     0.20743   0.11839   0.08141   0.00000  Uiso   1.00
C110   C     0.09809   0.34683   0.08098   0.00000  Uiso   1.00
C111   C     0.03726   0.36855   0.17758   0.00000  Uiso   1.00
C112   C     0.97640   0.39027   0.08094   0.00000  Uiso   1.00
C113   C     0.22891   0.37075   0.08118   0.00000  Uiso   1.00
C114   C     0.27806   0.41259   0.17795   0.00000  Uiso   1.00
C115   C     0.32734   0.45447   0.08148   0.00000  Uiso   1.00
H116   H     0.17052   0.32100   0.67096   0.00000  Uiso   1.00
H117   H     0.19592   0.18197   0.65366   0.00000  Uiso   1.00
H118   H     0.03742   0.36851   0.65333   0.00000  Uiso   1.00
H119   H     0.27819   0.41254   0.65370   0.00000  Uiso   1.00
H120   H     0.22403   0.02784   0.71674   0.00000  Uiso   1.00
H121   H     0.88983   0.42118   0.71605   0.00000  Uiso   1.00
H122   H     0.39755   0.51405   0.71682   0.00000  Uiso   1.00
H123   H     0.17035   0.32105   0.30475   0.00000  Uiso   1.00
H124   H     0.19574   0.18202   0.32224   0.00000  Uiso   1.00
H125   H     0.03724   0.36855   0.32191   0.00000  Uiso   1.00
H126   H     0.27801   0.41259   0.32228   0.00000  Uiso   1.00
H127   H     0.22388   0.02787   0.25938   0.00000  Uiso   1.00
H128   H     0.88969   0.42122   0.25869   0.00000  Uiso   1.00
H129   H     0.39740   0.51408   0.25946   0.00000  Uiso   1.00
O130   O     0.24064   0.93639   0.98812   0.00000  Uiso   1.00
O131   O     0.80219   0.45246   0.98722   0.00000  Uiso   1.00
O132   O     0.46830   0.57429   0.98823   0.00000  Uiso   1.00
N133   N     0.22053   0.04693   0.84205   0.00000  Uiso   1.00
N134   N     0.90807   0.41467   0.84140   0.00000  Uiso   1.00
N135   N     0.38272   0.50150   0.84212   0.00000  Uiso   1.00
N136   N     0.22045   0.04695   0.13404   0.00000  Uiso   1.00
N137   N     0.90799   0.41469   0.13339   0.00000  Uiso   1.00
N138   N     0.38264   0.50152   0.13412   0.00000  Uiso   1.00
C139   C     0.82952   0.67899   0.81616   0.00000  Uiso   1.00
C140   C     0.81573   0.75452   0.89465   0.00000  Uiso   1.00
C141   C     0.80411   0.81804   0.79800   0.00000  Uiso   1.00
C142   C     0.79253   0.88163   0.89457   0.00000  Uiso   1.00
C143   C     0.77115   0.99891   0.98807   0.00000  Uiso   1.00
C144   C     0.90186   0.65318   0.89448   0.00000  Uiso   1.00
C145   C     0.96264   0.63148   0.79767   0.00000  Uiso   1.00
C146   C     0.02355   0.60975   0.89410   0.00000  Uiso   1.00
C147   C     0.13587   0.56965   0.98733   0.00000  Uiso   1.00
C148   C     0.77104   0.62926   0.89467   0.00000  Uiso   1.00
C149   C     0.72183   0.58743   0.79803   0.00000  Uiso   1.00
C150   C     0.67261   0.54554   0.89463   0.00000  Uiso   1.00
C151   C     0.58181   0.46830   0.98816   0.00000  Uiso   1.00
C152   C     0.82961   0.67897   0.15954   0.00000  Uiso   1.00
C153   C     0.81579   0.75451   0.08116   0.00000  Uiso   1.00
C154   C     0.80421   0.81801   0.17791   0.00000  Uiso   1.00
C155   C     0.79257   0.88161   0.08141   0.00000  Uiso   1.00
C156   C     0.90191   0.65317   0.08098   0.00000  Uiso   1.00
C157   C     0.96274   0.63145   0.17758   0.00000  Uiso   1.00
C158   C     0.02360   0.60973   0.08094   0.00000  Uiso   1.00
C159   C     0.77109   0.62925   0.08118   0.00000  Uiso   1.00
C160   C     0.72194   0.58741   0.17795   0.00000  Uiso   1.00
C161   C     0.67266   0.54553   0.08148   0.00000  Uiso   1.00
H162   H     0.82948   0.67900   0.67096   0.00000  Uiso   1.00
H163   H     0.80408   0.81803   0.65366   0.00000  Uiso   1.00
H164   H     0.96258   0.63149   0.65333   0.00000  Uiso   1.00
H165   H     0.72181   0.58746   0.65370   0.00000  Uiso   1.00
H166   H     0.77597   0.97216   0.71674   0.00000  Uiso   1.00
H167   H     0.11017   0.57882   0.71605   0.00000  Uiso   1.00
H168   H     0.60245   0.48595   0.71682   0.00000  Uiso   1.00
H169   H     0.82965   0.67895   0.30475   0.00000  Uiso   1.00
H170   H     0.80426   0.81798   0.32224   0.00000  Uiso   1.00
H171   H     0.96276   0.63145   0.32191   0.00000  Uiso   1.00
H172   H     0.72199   0.58741   0.32228   0.00000  Uiso   1.00
H173   H     0.77612   0.97213   0.25938   0.00000  Uiso   1.00
H174   H     0.11031   0.57878   0.25869   0.00000  Uiso   1.00
H175   H     0.60260   0.48592   0.25946   0.00000  Uiso   1.00
O176   O     0.75936   0.06361   0.98812   0.00000  Uiso   1.00
O177   O     0.19781   0.54754   0.98722   0.00000  Uiso   1.00
O178   O     0.53170   0.42571   0.98823   0.00000  Uiso   1.00
N179   N     0.77947   0.95307   0.84205   0.00000  Uiso   1.00
N180   N     0.09193   0.58533   0.84140   0.00000  Uiso   1.00
N181   N     0.61728   0.49850   0.84212   0.00000  Uiso   1.00
N182   N     0.77955   0.95305   0.13404   0.00000  Uiso   1.00
N183   N     0.09201   0.58531   0.13339   0.00000  Uiso   1.00
N184   N     0.61736   0.49848   0.13412   0.00000  Uiso   1.00
