data_job_05448
_audit_creation_date              2018-12-19
_audit_creation_method            'Materials Studio'
_symmetry_space_group_name_H-M    'P1'
_symmetry_Int_Tables_number       1
_symmetry_cell_setting            triclinic
loop_
_symmetry_equiv_pos_as_xyz
  x,y,z
_cell_length_a                    13.6470
_cell_length_b                    20.9026
_cell_length_c                    23.6570
_cell_angle_alpha                 90.0000
_cell_angle_beta                  90.0000
_cell_angle_gamma                 90.0000
loop_
_atom_site_label
_atom_site_type_symbol
_atom_site_fract_x
_atom_site_fract_y
_atom_site_fract_z
_atom_site_U_iso_or_equiv
_atom_site_adp_type
_atom_site_occupancy
C1     C     0.36813   0.75227   0.52517   0.00000  Uiso   1.00
C2     C     0.39137   0.80320   0.56934   0.00000  Uiso   1.00
C3     C     0.32696   0.82615   0.60995   0.00000  Uiso   1.00
C4     C     0.36225   0.87275   0.64648   0.00000  Uiso   1.00
C5     C     0.38367   0.94838   0.71565   0.00000  Uiso   1.00
C6     C     0.39012   0.78268   0.46796   0.00000  Uiso   1.00
C7     C     0.32467   0.78837   0.42335   0.00000  Uiso   1.00
C8     C     0.35892   0.81770   0.37453   0.00000  Uiso   1.00
C9     C     0.37843   0.86144   0.28631   0.00000  Uiso   1.00
C10    C     0.44435   0.69970   0.53316   0.00000  Uiso   1.00
C11    C     0.42449   0.63561   0.54334   0.00000  Uiso   1.00
C12    C     0.50439   0.59506   0.54940   0.00000  Uiso   1.00
C13    C     0.60809   0.50995   0.56240   0.00000  Uiso   1.00
C14    C     0.54534   0.79423   0.51781   0.00000  Uiso   1.00
C15    C     0.48762   0.82599   0.56534   0.00000  Uiso   1.00
C16    C     0.52302   0.87257   0.60182   0.00000  Uiso   1.00
C17    C     0.45868   0.89558   0.64248   0.00000  Uiso   1.00
C18    C     0.48637   0.80547   0.46397   0.00000  Uiso   1.00
C19    C     0.52073   0.83479   0.41521   0.00000  Uiso   1.00
C20    C     0.45535   0.84053   0.37053   0.00000  Uiso   1.00
C21    C     0.54060   0.72248   0.52916   0.00000  Uiso   1.00
C22    C     0.62055   0.68203   0.53521   0.00000  Uiso   1.00
C23    C     0.60082   0.61789   0.54540   0.00000  Uiso   1.00
H24    H     0.29320   0.73453   0.52828   0.00000  Uiso   1.00
H25    H     0.25248   0.80850   0.61303   0.00000  Uiso   1.00
H26    H     0.25020   0.77073   0.42645   0.00000  Uiso   1.00
H27    H     0.35000   0.61799   0.54643   0.00000  Uiso   1.00
H28    H     0.24977   0.90058   0.70522   0.00000  Uiso   1.00
H29    H     0.24496   0.82091   0.31180   0.00000  Uiso   1.00
H30    H     0.45541   0.49883   0.56480   0.00000  Uiso   1.00
H31    H     0.62028   0.81197   0.51470   0.00000  Uiso   1.00
H32    H     0.59750   0.89019   0.59871   0.00000  Uiso   1.00
H33    H     0.59522   0.85242   0.41213   0.00000  Uiso   1.00
H34    H     0.69502   0.69968   0.53211   0.00000  Uiso   1.00
H35    H     0.52980   0.96689   0.69360   0.00000  Uiso   1.00
H36    H     0.52500   0.88721   0.30017   0.00000  Uiso   1.00
H37    H     0.73545   0.56513   0.55318   0.00000  Uiso   1.00
O38    O     0.36889   0.98381   0.75490   0.00000  Uiso   1.00
O39    O     0.36259   0.87927   0.23875   0.00000  Uiso   1.00
O40    O     0.63870   0.45671   0.57068   0.00000  Uiso   1.00
N41    N     0.31880   0.90544   0.69096   0.00000  Uiso   1.00
N42    N     0.31431   0.83096   0.32314   0.00000  Uiso   1.00
N43    N     0.51106   0.52984   0.55966   0.00000  Uiso   1.00
N44    N     0.46949   0.94112   0.68471   0.00000  Uiso   1.00
N45    N     0.46499   0.86664   0.31689   0.00000  Uiso   1.00
N46    N     0.66174   0.56552   0.55340   0.00000  Uiso   1.00
C47    C     0.13187   0.24773   0.52517   0.00000  Uiso   1.00
C48    C     0.10863   0.19680   0.56934   0.00000  Uiso   1.00
C49    C     0.17304   0.17385   0.60995   0.00000  Uiso   1.00
C50    C     0.13775   0.12725   0.64648   0.00000  Uiso   1.00
C51    C     0.11633   0.05162   0.71565   0.00000  Uiso   1.00
C52    C     0.10988   0.21732   0.46796   0.00000  Uiso   1.00
C53    C     0.17533   0.21163   0.42335   0.00000  Uiso   1.00
C54    C     0.14108   0.18230   0.37453   0.00000  Uiso   1.00
C55    C     0.12157   0.13856   0.28631   0.00000  Uiso   1.00
C56    C     0.05565   0.30030   0.53316   0.00000  Uiso   1.00
C57    C     0.07551   0.36439   0.54334   0.00000  Uiso   1.00
C58    C     0.99561   0.40494   0.54940   0.00000  Uiso   1.00
C59    C     0.89191   0.49005   0.56240   0.00000  Uiso   1.00
C60    C     0.95466   0.20577   0.51781   0.00000  Uiso   1.00
C61    C     0.01238   0.17401   0.56534   0.00000  Uiso   1.00
C62    C     0.97698   0.12743   0.60182   0.00000  Uiso   1.00
C63    C     0.04132   0.10442   0.64248   0.00000  Uiso   1.00
C64    C     0.01363   0.19453   0.46397   0.00000  Uiso   1.00
C65    C     0.97927   0.16521   0.41521   0.00000  Uiso   1.00
C66    C     0.04465   0.15947   0.37053   0.00000  Uiso   1.00
C67    C     0.95940   0.27752   0.52916   0.00000  Uiso   1.00
C68    C     0.87945   0.31797   0.53521   0.00000  Uiso   1.00
C69    C     0.89918   0.38211   0.54540   0.00000  Uiso   1.00
H70    H     0.20680   0.26547   0.52828   0.00000  Uiso   1.00
H71    H     0.24752   0.19150   0.61303   0.00000  Uiso   1.00
H72    H     0.24980   0.22927   0.42645   0.00000  Uiso   1.00
H73    H     0.15000   0.38201   0.54643   0.00000  Uiso   1.00
H74    H     0.25023   0.09942   0.70522   0.00000  Uiso   1.00
H75    H     0.25504   0.17909   0.31180   0.00000  Uiso   1.00
H76    H     0.04459   0.50117   0.56480   0.00000  Uiso   1.00
H77    H     0.87972   0.18803   0.51470   0.00000  Uiso   1.00
H78    H     0.90250   0.10981   0.59871   0.00000  Uiso   1.00
H79    H     0.90478   0.14758   0.41213   0.00000  Uiso   1.00
H80    H     0.80498   0.30032   0.53211   0.00000  Uiso   1.00
H81    H     0.97020   0.03311   0.69360   0.00000  Uiso   1.00
H82    H     0.97500   0.11279   0.30017   0.00000  Uiso   1.00
H83    H     0.76455   0.43487   0.55318   0.00000  Uiso   1.00
O84    O     0.13111   0.01619   0.75490   0.00000  Uiso   1.00
O85    O     0.13741   0.12073   0.23875   0.00000  Uiso   1.00
O86    O     0.86130   0.54329   0.57068   0.00000  Uiso   1.00
N87    N     0.18120   0.09456   0.69096   0.00000  Uiso   1.00
N88    N     0.18569   0.16904   0.32314   0.00000  Uiso   1.00
N89    N     0.98894   0.47016   0.55966   0.00000  Uiso   1.00
N90    N     0.03051   0.05888   0.68471   0.00000  Uiso   1.00
N91    N     0.03501   0.13336   0.31689   0.00000  Uiso   1.00
N92    N     0.83826   0.43448   0.55340   0.00000  Uiso   1.00
C93    C     0.63187   0.75227   0.97483   0.00000  Uiso   1.00
C94    C     0.60863   0.80320   0.93066   0.00000  Uiso   1.00
C95    C     0.67304   0.82615   0.89005   0.00000  Uiso   1.00
C96    C     0.63775   0.87275   0.85352   0.00000  Uiso   1.00
C97    C     0.61633   0.94838   0.78435   0.00000  Uiso   1.00
C98    C     0.60988   0.78268   0.03204   0.00000  Uiso   1.00
C99    C     0.67533   0.78837   0.07665   0.00000  Uiso   1.00
C100   C     0.64108   0.81770   0.12547   0.00000  Uiso   1.00
C101   C     0.62157   0.86144   0.21369   0.00000  Uiso   1.00
C102   C     0.55565   0.69970   0.96684   0.00000  Uiso   1.00
C103   C     0.57551   0.63561   0.95666   0.00000  Uiso   1.00
C104   C     0.49561   0.59506   0.95060   0.00000  Uiso   1.00
C105   C     0.39191   0.50995   0.93760   0.00000  Uiso   1.00
C106   C     0.45466   0.79423   0.98219   0.00000  Uiso   1.00
C107   C     0.51238   0.82599   0.93466   0.00000  Uiso   1.00
C108   C     0.47698   0.87257   0.89818   0.00000  Uiso   1.00
C109   C     0.54132   0.89558   0.85752   0.00000  Uiso   1.00
C110   C     0.51363   0.80547   0.03603   0.00000  Uiso   1.00
C111   C     0.47927   0.83479   0.08479   0.00000  Uiso   1.00
C112   C     0.54465   0.84053   0.12947   0.00000  Uiso   1.00
C113   C     0.45940   0.72248   0.97084   0.00000  Uiso   1.00
C114   C     0.37945   0.68203   0.96479   0.00000  Uiso   1.00
C115   C     0.39918   0.61789   0.95460   0.00000  Uiso   1.00
H116   H     0.70680   0.73453   0.97172   0.00000  Uiso   1.00
H117   H     0.74752   0.80850   0.88697   0.00000  Uiso   1.00
H118   H     0.74980   0.77073   0.07355   0.00000  Uiso   1.00
H119   H     0.65000   0.61799   0.95357   0.00000  Uiso   1.00
H120   H     0.75023   0.90058   0.79478   0.00000  Uiso   1.00
H121   H     0.75504   0.82091   0.18820   0.00000  Uiso   1.00
H122   H     0.54459   0.49883   0.93520   0.00000  Uiso   1.00
H123   H     0.37972   0.81197   0.98530   0.00000  Uiso   1.00
H124   H     0.40250   0.89019   0.90129   0.00000  Uiso   1.00
H125   H     0.40478   0.85242   0.08787   0.00000  Uiso   1.00
H126   H     0.30498   0.69968   0.96789   0.00000  Uiso   1.00
H127   H     0.47020   0.96689   0.80640   0.00000  Uiso   1.00
H128   H     0.47500   0.88721   0.19983   0.00000  Uiso   1.00
H129   H     0.26455   0.56513   0.94682   0.00000  Uiso   1.00
O130   O     0.63111   0.98381   0.74510   0.00000  Uiso   1.00
O131   O     0.63741   0.87927   0.26125   0.00000  Uiso   1.00
O132   O     0.36130   0.45671   0.92932   0.00000  Uiso   1.00
N133   N     0.68120   0.90544   0.80904   0.00000  Uiso   1.00
N134   N     0.68569   0.83096   0.17686   0.00000  Uiso   1.00
N135   N     0.48894   0.52984   0.94034   0.00000  Uiso   1.00
N136   N     0.53051   0.94112   0.81529   0.00000  Uiso   1.00
N137   N     0.53501   0.86664   0.18311   0.00000  Uiso   1.00
N138   N     0.33826   0.56552   0.94660   0.00000  Uiso   1.00
C139   C     0.86813   0.24773   0.97483   0.00000  Uiso   1.00
C140   C     0.89137   0.19680   0.93066   0.00000  Uiso   1.00
C141   C     0.82696   0.17385   0.89005   0.00000  Uiso   1.00
C142   C     0.86225   0.12725   0.85352   0.00000  Uiso   1.00
C143   C     0.88367   0.05162   0.78435   0.00000  Uiso   1.00
C144   C     0.89012   0.21732   0.03204   0.00000  Uiso   1.00
C145   C     0.82467   0.21163   0.07665   0.00000  Uiso   1.00
C146   C     0.85892   0.18230   0.12547   0.00000  Uiso   1.00
C147   C     0.87843   0.13856   0.21369   0.00000  Uiso   1.00
C148   C     0.94435   0.30030   0.96684   0.00000  Uiso   1.00
C149   C     0.92449   0.36439   0.95666   0.00000  Uiso   1.00
C150   C     0.00439   0.40494   0.95060   0.00000  Uiso   1.00
C151   C     0.10809   0.49005   0.93760   0.00000  Uiso   1.00
C152   C     0.04534   0.20577   0.98219   0.00000  Uiso   1.00
C153   C     0.98762   0.17401   0.93466   0.00000  Uiso   1.00
C154   C     0.02302   0.12743   0.89818   0.00000  Uiso   1.00
C155   C     0.95868   0.10442   0.85752   0.00000  Uiso   1.00
C156   C     0.98637   0.19453   0.03603   0.00000  Uiso   1.00
C157   C     0.02073   0.16521   0.08479   0.00000  Uiso   1.00
C158   C     0.95535   0.15947   0.12947   0.00000  Uiso   1.00
C159   C     0.04060   0.27752   0.97084   0.00000  Uiso   1.00
C160   C     0.12055   0.31797   0.96479   0.00000  Uiso   1.00
C161   C     0.10082   0.38211   0.95460   0.00000  Uiso   1.00
H162   H     0.79320   0.26547   0.97172   0.00000  Uiso   1.00
H163   H     0.75248   0.19150   0.88697   0.00000  Uiso   1.00
H164   H     0.75020   0.22927   0.07355   0.00000  Uiso   1.00
H165   H     0.85000   0.38201   0.95357   0.00000  Uiso   1.00
H166   H     0.74977   0.09942   0.79478   0.00000  Uiso   1.00
H167   H     0.74496   0.17909   0.18820   0.00000  Uiso   1.00
H168   H     0.95541   0.50117   0.93520   0.00000  Uiso   1.00
H169   H     0.12028   0.18803   0.98530   0.00000  Uiso   1.00
H170   H     0.09750   0.10981   0.90129   0.00000  Uiso   1.00
H171   H     0.09522   0.14758   0.08787   0.00000  Uiso   1.00
H172   H     0.19502   0.30032   0.96789   0.00000  Uiso   1.00
H173   H     0.02980   0.03311   0.80640   0.00000  Uiso   1.00
H174   H     0.02500   0.11279   0.19983   0.00000  Uiso   1.00
H175   H     0.23545   0.43487   0.94682   0.00000  Uiso   1.00
O176   O     0.86889   0.01619   0.74510   0.00000  Uiso   1.00
O177   O     0.86259   0.12073   0.26125   0.00000  Uiso   1.00
O178   O     0.13870   0.54329   0.92932   0.00000  Uiso   1.00
N179   N     0.81880   0.09456   0.80904   0.00000  Uiso   1.00
N180   N     0.81431   0.16904   0.17686   0.00000  Uiso   1.00
N181   N     0.01106   0.47016   0.94034   0.00000  Uiso   1.00
N182   N     0.96949   0.05888   0.81529   0.00000  Uiso   1.00
N183   N     0.96499   0.13336   0.18311   0.00000  Uiso   1.00
N184   N     0.16174   0.43448   0.94660   0.00000  Uiso   1.00
C185   C     0.63187   0.24773   0.47483   0.00000  Uiso   1.00
C186   C     0.60863   0.19680   0.43066   0.00000  Uiso   1.00
C187   C     0.67304   0.17385   0.39005   0.00000  Uiso   1.00
C188   C     0.63775   0.12725   0.35352   0.00000  Uiso   1.00
C189   C     0.61633   0.05162   0.28435   0.00000  Uiso   1.00
C190   C     0.60988   0.21732   0.53204   0.00000  Uiso   1.00
C191   C     0.67533   0.21163   0.57665   0.00000  Uiso   1.00
C192   C     0.64108   0.18230   0.62547   0.00000  Uiso   1.00
C193   C     0.62157   0.13856   0.71369   0.00000  Uiso   1.00
C194   C     0.55565   0.30030   0.46684   0.00000  Uiso   1.00
C195   C     0.57551   0.36439   0.45666   0.00000  Uiso   1.00
C196   C     0.49561   0.40494   0.45060   0.00000  Uiso   1.00
C197   C     0.39191   0.49005   0.43760   0.00000  Uiso   1.00
C198   C     0.45466   0.20577   0.48219   0.00000  Uiso   1.00
C199   C     0.51238   0.17401   0.43466   0.00000  Uiso   1.00
C200   C     0.47698   0.12743   0.39818   0.00000  Uiso   1.00
C201   C     0.54132   0.10442   0.35752   0.00000  Uiso   1.00
C202   C     0.51363   0.19453   0.53603   0.00000  Uiso   1.00
C203   C     0.47927   0.16521   0.58479   0.00000  Uiso   1.00
C204   C     0.54465   0.15947   0.62947   0.00000  Uiso   1.00
C205   C     0.45940   0.27752   0.47084   0.00000  Uiso   1.00
C206   C     0.37945   0.31797   0.46479   0.00000  Uiso   1.00
C207   C     0.39918   0.38211   0.45460   0.00000  Uiso   1.00
H208   H     0.70680   0.26547   0.47172   0.00000  Uiso   1.00
H209   H     0.74752   0.19150   0.38697   0.00000  Uiso   1.00
H210   H     0.74980   0.22927   0.57355   0.00000  Uiso   1.00
H211   H     0.65000   0.38201   0.45357   0.00000  Uiso   1.00
H212   H     0.75023   0.09942   0.29478   0.00000  Uiso   1.00
H213   H     0.75504   0.17909   0.68820   0.00000  Uiso   1.00
H214   H     0.54459   0.50117   0.43520   0.00000  Uiso   1.00
H215   H     0.37972   0.18803   0.48530   0.00000  Uiso   1.00
H216   H     0.40250   0.10981   0.40129   0.00000  Uiso   1.00
H217   H     0.40478   0.14758   0.58787   0.00000  Uiso   1.00
H218   H     0.30498   0.30032   0.46789   0.00000  Uiso   1.00
H219   H     0.47020   0.03311   0.30640   0.00000  Uiso   1.00
H220   H     0.47500   0.11279   0.69983   0.00000  Uiso   1.00
H221   H     0.26455   0.43487   0.44682   0.00000  Uiso   1.00
O222   O     0.63111   0.01619   0.24510   0.00000  Uiso   1.00
O223   O     0.63741   0.12073   0.76125   0.00000  Uiso   1.00
O224   O     0.36130   0.54329   0.42932   0.00000  Uiso   1.00
N225   N     0.68120   0.09456   0.30904   0.00000  Uiso   1.00
N226   N     0.68569   0.16904   0.67686   0.00000  Uiso   1.00
N227   N     0.48894   0.47016   0.44034   0.00000  Uiso   1.00
N228   N     0.53051   0.05888   0.31529   0.00000  Uiso   1.00
N229   N     0.53501   0.13336   0.68311   0.00000  Uiso   1.00
N230   N     0.33826   0.43448   0.44660   0.00000  Uiso   1.00
C231   C     0.86813   0.75227   0.47483   0.00000  Uiso   1.00
C232   C     0.89137   0.80320   0.43066   0.00000  Uiso   1.00
C233   C     0.82696   0.82615   0.39005   0.00000  Uiso   1.00
C234   C     0.86225   0.87275   0.35352   0.00000  Uiso   1.00
C235   C     0.88367   0.94838   0.28435   0.00000  Uiso   1.00
C236   C     0.89012   0.78268   0.53204   0.00000  Uiso   1.00
C237   C     0.82467   0.78837   0.57665   0.00000  Uiso   1.00
C238   C     0.85892   0.81770   0.62547   0.00000  Uiso   1.00
C239   C     0.87843   0.86144   0.71369   0.00000  Uiso   1.00
C240   C     0.94435   0.69970   0.46684   0.00000  Uiso   1.00
C241   C     0.92449   0.63561   0.45666   0.00000  Uiso   1.00
C242   C     0.00439   0.59506   0.45060   0.00000  Uiso   1.00
C243   C     0.10809   0.50995   0.43760   0.00000  Uiso   1.00
C244   C     0.04534   0.79423   0.48219   0.00000  Uiso   1.00
C245   C     0.98762   0.82599   0.43466   0.00000  Uiso   1.00
C246   C     0.02302   0.87257   0.39818   0.00000  Uiso   1.00
C247   C     0.95868   0.89558   0.35752   0.00000  Uiso   1.00
C248   C     0.98637   0.80547   0.53603   0.00000  Uiso   1.00
C249   C     0.02073   0.83479   0.58479   0.00000  Uiso   1.00
C250   C     0.95535   0.84053   0.62947   0.00000  Uiso   1.00
C251   C     0.04060   0.72248   0.47084   0.00000  Uiso   1.00
C252   C     0.12055   0.68203   0.46479   0.00000  Uiso   1.00
C253   C     0.10082   0.61789   0.45460   0.00000  Uiso   1.00
H254   H     0.79320   0.73453   0.47172   0.00000  Uiso   1.00
H255   H     0.75248   0.80850   0.38697   0.00000  Uiso   1.00
H256   H     0.75020   0.77073   0.57355   0.00000  Uiso   1.00
H257   H     0.85000   0.61799   0.45357   0.00000  Uiso   1.00
H258   H     0.74977   0.90058   0.29478   0.00000  Uiso   1.00
H259   H     0.74496   0.82091   0.68820   0.00000  Uiso   1.00
H260   H     0.95541   0.49883   0.43520   0.00000  Uiso   1.00
H261   H     0.12028   0.81197   0.48530   0.00000  Uiso   1.00
H262   H     0.09750   0.89019   0.40129   0.00000  Uiso   1.00
H263   H     0.09522   0.85242   0.58787   0.00000  Uiso   1.00
H264   H     0.19502   0.69968   0.46789   0.00000  Uiso   1.00
H265   H     0.02980   0.96689   0.30640   0.00000  Uiso   1.00
H266   H     0.02500   0.88721   0.69983   0.00000  Uiso   1.00
H267   H     0.23545   0.56513   0.44682   0.00000  Uiso   1.00
O268   O     0.86889   0.98381   0.24510   0.00000  Uiso   1.00
O269   O     0.86259   0.87927   0.76125   0.00000  Uiso   1.00
O270   O     0.13870   0.45671   0.42932   0.00000  Uiso   1.00
N271   N     0.81880   0.90544   0.30904   0.00000  Uiso   1.00
N272   N     0.81431   0.83096   0.67686   0.00000  Uiso   1.00
N273   N     0.01106   0.52984   0.44034   0.00000  Uiso   1.00
N274   N     0.96949   0.94112   0.31529   0.00000  Uiso   1.00
N275   N     0.96499   0.86664   0.68311   0.00000  Uiso   1.00
N276   N     0.16174   0.56552   0.44660   0.00000  Uiso   1.00
C277   C     0.36813   0.24773   0.02517   0.00000  Uiso   1.00
C278   C     0.39137   0.19680   0.06934   0.00000  Uiso   1.00
C279   C     0.32696   0.17385   0.10995   0.00000  Uiso   1.00
C280   C     0.36225   0.12725   0.14648   0.00000  Uiso   1.00
C281   C     0.38367   0.05162   0.21565   0.00000  Uiso   1.00
C282   C     0.39012   0.21732   0.96796   0.00000  Uiso   1.00
C283   C     0.32467   0.21163   0.92335   0.00000  Uiso   1.00
C284   C     0.35892   0.18230   0.87453   0.00000  Uiso   1.00
C285   C     0.37843   0.13856   0.78631   0.00000  Uiso   1.00
C286   C     0.44435   0.30030   0.03316   0.00000  Uiso   1.00
C287   C     0.42449   0.36439   0.04334   0.00000  Uiso   1.00
C288   C     0.50439   0.40494   0.04940   0.00000  Uiso   1.00
C289   C     0.60809   0.49005   0.06240   0.00000  Uiso   1.00
C290   C     0.54534   0.20577   0.01781   0.00000  Uiso   1.00
C291   C     0.48762   0.17401   0.06534   0.00000  Uiso   1.00
C292   C     0.52302   0.12743   0.10182   0.00000  Uiso   1.00
C293   C     0.45868   0.10442   0.14248   0.00000  Uiso   1.00
C294   C     0.48637   0.19453   0.96397   0.00000  Uiso   1.00
C295   C     0.52073   0.16521   0.91521   0.00000  Uiso   1.00
C296   C     0.45535   0.15947   0.87053   0.00000  Uiso   1.00
C297   C     0.54060   0.27752   0.02916   0.00000  Uiso   1.00
C298   C     0.62055   0.31797   0.03521   0.00000  Uiso   1.00
C299   C     0.60082   0.38211   0.04540   0.00000  Uiso   1.00
H300   H     0.29320   0.26547   0.02828   0.00000  Uiso   1.00
H301   H     0.25248   0.19150   0.11303   0.00000  Uiso   1.00
H302   H     0.25020   0.22927   0.92645   0.00000  Uiso   1.00
H303   H     0.35000   0.38201   0.04643   0.00000  Uiso   1.00
H304   H     0.24977   0.09942   0.20522   0.00000  Uiso   1.00
H305   H     0.24496   0.17909   0.81180   0.00000  Uiso   1.00
H306   H     0.45541   0.50117   0.06480   0.00000  Uiso   1.00
H307   H     0.62028   0.18803   0.01470   0.00000  Uiso   1.00
H308   H     0.59750   0.10981   0.09871   0.00000  Uiso   1.00
H309   H     0.59522   0.14758   0.91213   0.00000  Uiso   1.00
H310   H     0.69502   0.30032   0.03211   0.00000  Uiso   1.00
H311   H     0.52980   0.03311   0.19360   0.00000  Uiso   1.00
H312   H     0.52500   0.11279   0.80017   0.00000  Uiso   1.00
H313   H     0.73545   0.43487   0.05318   0.00000  Uiso   1.00
O314   O     0.36889   0.01619   0.25490   0.00000  Uiso   1.00
O315   O     0.36259   0.12073   0.73875   0.00000  Uiso   1.00
O316   O     0.63870   0.54329   0.07068   0.00000  Uiso   1.00
N317   N     0.31880   0.09456   0.19096   0.00000  Uiso   1.00
N318   N     0.31431   0.16904   0.82314   0.00000  Uiso   1.00
N319   N     0.51106   0.47016   0.05966   0.00000  Uiso   1.00
N320   N     0.46949   0.05888   0.18471   0.00000  Uiso   1.00
N321   N     0.46499   0.13336   0.81689   0.00000  Uiso   1.00
N322   N     0.66174   0.43448   0.05340   0.00000  Uiso   1.00
C323   C     0.13187   0.75227   0.02517   0.00000  Uiso   1.00
C324   C     0.10863   0.80320   0.06934   0.00000  Uiso   1.00
C325   C     0.17304   0.82615   0.10995   0.00000  Uiso   1.00
C326   C     0.13775   0.87275   0.14648   0.00000  Uiso   1.00
C327   C     0.11633   0.94838   0.21565   0.00000  Uiso   1.00
C328   C     0.10988   0.78268   0.96796   0.00000  Uiso   1.00
C329   C     0.17533   0.78837   0.92335   0.00000  Uiso   1.00
C330   C     0.14108   0.81770   0.87453   0.00000  Uiso   1.00
C331   C     0.12157   0.86144   0.78631   0.00000  Uiso   1.00
C332   C     0.05565   0.69970   0.03316   0.00000  Uiso   1.00
C333   C     0.07551   0.63561   0.04334   0.00000  Uiso   1.00
C334   C     0.99561   0.59506   0.04940   0.00000  Uiso   1.00
C335   C     0.89191   0.50995   0.06240   0.00000  Uiso   1.00
C336   C     0.95466   0.79423   0.01781   0.00000  Uiso   1.00
C337   C     0.01238   0.82599   0.06534   0.00000  Uiso   1.00
C338   C     0.97698   0.87257   0.10182   0.00000  Uiso   1.00
C339   C     0.04132   0.89558   0.14248   0.00000  Uiso   1.00
C340   C     0.01363   0.80547   0.96397   0.00000  Uiso   1.00
C341   C     0.97927   0.83479   0.91521   0.00000  Uiso   1.00
C342   C     0.04465   0.84053   0.87053   0.00000  Uiso   1.00
C343   C     0.95940   0.72248   0.02916   0.00000  Uiso   1.00
C344   C     0.87945   0.68203   0.03521   0.00000  Uiso   1.00
C345   C     0.89918   0.61789   0.04540   0.00000  Uiso   1.00
H346   H     0.20680   0.73453   0.02828   0.00000  Uiso   1.00
H347   H     0.24752   0.80850   0.11303   0.00000  Uiso   1.00
H348   H     0.24980   0.77073   0.92645   0.00000  Uiso   1.00
H349   H     0.15000   0.61799   0.04643   0.00000  Uiso   1.00
H350   H     0.25023   0.90058   0.20522   0.00000  Uiso   1.00
H351   H     0.25504   0.82091   0.81180   0.00000  Uiso   1.00
H352   H     0.04459   0.49883   0.06480   0.00000  Uiso   1.00
H353   H     0.87972   0.81197   0.01470   0.00000  Uiso   1.00
H354   H     0.90250   0.89019   0.09871   0.00000  Uiso   1.00
H355   H     0.90478   0.85242   0.91213   0.00000  Uiso   1.00
H356   H     0.80498   0.69968   0.03211   0.00000  Uiso   1.00
H357   H     0.97020   0.96689   0.19360   0.00000  Uiso   1.00
H358   H     0.97500   0.88721   0.80017   0.00000  Uiso   1.00
H359   H     0.76455   0.56513   0.05318   0.00000  Uiso   1.00
O360   O     0.13111   0.98381   0.25490   0.00000  Uiso   1.00
O361   O     0.13741   0.87927   0.73875   0.00000  Uiso   1.00
O362   O     0.86130   0.45671   0.07068   0.00000  Uiso   1.00
N363   N     0.18120   0.90544   0.19096   0.00000  Uiso   1.00
N364   N     0.18569   0.83096   0.82314   0.00000  Uiso   1.00
N365   N     0.98894   0.52984   0.05966   0.00000  Uiso   1.00
N366   N     0.03051   0.94112   0.18471   0.00000  Uiso   1.00
N367   N     0.03501   0.86664   0.81689   0.00000  Uiso   1.00
N368   N     0.83826   0.56552   0.05340   0.00000  Uiso   1.00
