data_job_04057
_audit_creation_date              2018-12-19
_audit_creation_method            'Materials Studio'
_symmetry_space_group_name_H-M    'P1'
_symmetry_Int_Tables_number       1
_symmetry_cell_setting            triclinic
loop_
_symmetry_equiv_pos_as_xyz
  x,y,z
_cell_length_a                    13.3738
_cell_length_b                    13.3738
_cell_length_c                    36.5017
_cell_angle_alpha                 90.0000
_cell_angle_beta                  90.0000
_cell_angle_gamma                 120.0000
loop_
_atom_site_label
_atom_site_type_symbol
_atom_site_fract_x
_atom_site_fract_y
_atom_site_fract_z
_atom_site_U_iso_or_equiv
_atom_site_adp_type
_atom_site_occupancy
C1     C     0.15971   0.72004   0.38355   0.00000  Uiso   1.00
C2     C     0.25218   0.80007   0.41059   0.00000  Uiso   1.00
C3     C     0.33525   0.91426   0.40411   0.00000  Uiso   1.00
C4     C     0.41212   0.97284   0.43235   0.00000  Uiso   1.00
C5     C     0.55667   0.10526   0.46923   0.00000  Uiso   1.00
C6     C     0.17491   0.61495   0.37940   0.00000  Uiso   1.00
C7     C     0.19299   0.57349   0.34668   0.00000  Uiso   1.00
C8     C     0.20479   0.47622   0.34866   0.00000  Uiso   1.00
C9     C     0.22929   0.32120   0.33711   0.00000  Uiso   1.00
C10    C     0.04436   0.67724   0.40294   0.00000  Uiso   1.00
C11    C     0.95265   0.68811   0.39002   0.00000  Uiso   1.00
C12    C     0.85453   0.64326   0.41182   0.00000  Uiso   1.00
C13    C     0.67633   0.58494   0.43682   0.00000  Uiso   1.00
C14    C     0.14849   0.62101   0.44524   0.00000  Uiso   1.00
C15    C     0.24609   0.74627   0.44410   0.00000  Uiso   1.00
C16    C     0.32284   0.80469   0.47235   0.00000  Uiso   1.00
C17    C     0.40601   0.91895   0.46591   0.00000  Uiso   1.00
C18    C     0.16881   0.56116   0.41290   0.00000  Uiso   1.00
C19    C     0.18058   0.46392   0.41493   0.00000  Uiso   1.00
C20    C     0.19869   0.42233   0.38223   0.00000  Uiso   1.00
C21    C     0.03826   0.62345   0.43645   0.00000  Uiso   1.00
C22    C     0.94025   0.57855   0.45827   0.00000  Uiso   1.00
C23    C     0.84843   0.58936   0.44538   0.00000  Uiso   1.00
H24    H     0.16445   0.76192   0.35747   0.00000  Uiso   1.00
H25    H     0.33994   0.95586   0.37817   0.00000  Uiso   1.00
H26    H     0.19769   0.61513   0.32076   0.00000  Uiso   1.00
H27    H     0.95740   0.72975   0.36409   0.00000  Uiso   1.00
H28    H     0.53185   0.14714   0.41590   0.00000  Uiso   1.00
H29    H     0.23187   0.42868   0.29483   0.00000  Uiso   1.00
H30    H     0.72516   0.67036   0.38621   0.00000  Uiso   1.00
H31    H     0.14375   0.57912   0.47132   0.00000  Uiso   1.00
H32    H     0.31811   0.76304   0.49828   0.00000  Uiso   1.00
H33    H     0.17586   0.42231   0.44086   0.00000  Uiso   1.00
H34    H     0.93557   0.53693   0.48419   0.00000  Uiso   1.00
H35    H     0.51413   0.99064   0.51338   0.00000  Uiso   1.00
H36    H     0.21414   0.27218   0.39231   0.00000  Uiso   1.00
H37    H     0.70744   0.51386   0.48369   0.00000  Uiso   1.00
O38    O     0.63809   0.19316   0.48031   0.00000  Uiso   1.00
O39    O     0.24450   0.25056   0.32148   0.00000  Uiso   1.00
O40    O     0.57972   0.56765   0.44136   0.00000  Uiso   1.00
N41    N     0.50374   0.08508   0.43515   0.00000  Uiso   1.00
N42    N     0.22329   0.41337   0.32196   0.00000  Uiso   1.00
N43    N     0.74955   0.63929   0.40738   0.00000  Uiso   1.00
N44    N     0.49420   0.00087   0.48760   0.00000  Uiso   1.00
N45    N     0.21376   0.32916   0.37441   0.00000  Uiso   1.00
N46    N     0.74002   0.55508   0.45983   0.00000  Uiso   1.00
C47    C     0.27996   0.43966   0.71689   0.00000  Uiso   1.00
C48    C     0.19993   0.45211   0.74393   0.00000  Uiso   1.00
C49    C     0.08574   0.42099   0.73744   0.00000  Uiso   1.00
C50    C     0.02716   0.43928   0.76568   0.00000  Uiso   1.00
C51    C     0.89474   0.45140   0.80256   0.00000  Uiso   1.00
C52    C     0.38505   0.55995   0.71273   0.00000  Uiso   1.00
C53    C     0.42651   0.61950   0.68002   0.00000  Uiso   1.00
C54    C     0.52378   0.72857   0.68199   0.00000  Uiso   1.00
C55    C     0.67880   0.90809   0.67044   0.00000  Uiso   1.00
C56    C     0.32276   0.36712   0.73628   0.00000  Uiso   1.00
C57    C     0.31189   0.26454   0.72335   0.00000  Uiso   1.00
C58    C     0.35674   0.21127   0.74515   0.00000  Uiso   1.00
C59    C     0.41506   0.09139   0.77015   0.00000  Uiso   1.00
C60    C     0.37899   0.52748   0.77857   0.00000  Uiso   1.00
C61    C     0.25373   0.49981   0.77743   0.00000  Uiso   1.00
C62    C     0.19531   0.51815   0.80569   0.00000  Uiso   1.00
C63    C     0.08105   0.48706   0.79925   0.00000  Uiso   1.00
C64    C     0.43884   0.60765   0.74623   0.00000  Uiso   1.00
C65    C     0.53608   0.71666   0.74826   0.00000  Uiso   1.00
C66    C     0.57767   0.77636   0.71556   0.00000  Uiso   1.00
C67    C     0.37655   0.41482   0.76978   0.00000  Uiso   1.00
C68    C     0.42145   0.36170   0.79160   0.00000  Uiso   1.00
C69    C     0.41064   0.25906   0.77871   0.00000  Uiso   1.00
H70    H     0.23808   0.40253   0.69080   0.00000  Uiso   1.00
H71    H     0.04414   0.38409   0.71151   0.00000  Uiso   1.00
H72    H     0.38487   0.58256   0.65409   0.00000  Uiso   1.00
H73    H     0.27025   0.22766   0.69742   0.00000  Uiso   1.00
H74    H     0.85286   0.38471   0.74923   0.00000  Uiso   1.00
H75    H     0.57132   0.80319   0.62817   0.00000  Uiso   1.00
H76    H     0.32964   0.05480   0.71954   0.00000  Uiso   1.00
H77    H     0.42088   0.56462   0.80466   0.00000  Uiso   1.00
H78    H     0.23696   0.55507   0.83161   0.00000  Uiso   1.00
H79    H     0.57769   0.75354   0.77419   0.00000  Uiso   1.00
H80    H     0.46307   0.39864   0.81753   0.00000  Uiso   1.00
H81    H     0.00936   0.52349   0.84671   0.00000  Uiso   1.00
H82    H     0.72782   0.94197   0.72565   0.00000  Uiso   1.00
H83    H     0.48614   0.19358   0.81702   0.00000  Uiso   1.00
O84    O     0.80684   0.44493   0.81365   0.00000  Uiso   1.00
O85    O     0.74944   0.99394   0.65481   0.00000  Uiso   1.00
O86    O     0.43235   0.01208   0.77469   0.00000  Uiso   1.00
N87    N     0.91492   0.41866   0.76848   0.00000  Uiso   1.00
N88    N     0.58663   0.80992   0.65529   0.00000  Uiso   1.00
N89    N     0.36071   0.11026   0.74071   0.00000  Uiso   1.00
N90    N     0.99913   0.49334   0.82093   0.00000  Uiso   1.00
N91    N     0.67084   0.88460   0.70774   0.00000  Uiso   1.00
N92    N     0.44492   0.18493   0.79316   0.00000  Uiso   1.00
C93    C     0.56034   0.84029   0.05022   0.00000  Uiso   1.00
C94    C     0.54789   0.74782   0.07726   0.00000  Uiso   1.00
C95    C     0.57901   0.66475   0.07078   0.00000  Uiso   1.00
C96    C     0.56072   0.58788   0.09901   0.00000  Uiso   1.00
C97    C     0.54860   0.44333   0.13590   0.00000  Uiso   1.00
C98    C     0.44005   0.82509   0.04606   0.00000  Uiso   1.00
C99    C     0.38050   0.80701   0.01335   0.00000  Uiso   1.00
C100   C     0.27143   0.79521   0.01533   0.00000  Uiso   1.00
C101   C     0.09191   0.77071   0.00377   0.00000  Uiso   1.00
C102   C     0.63288   0.95564   0.06961   0.00000  Uiso   1.00
C103   C     0.73546   0.04735   0.05669   0.00000  Uiso   1.00
C104   C     0.78873   0.14547   0.07848   0.00000  Uiso   1.00
C105   C     0.90861   0.32367   0.10349   0.00000  Uiso   1.00
C106   C     0.47252   0.85151   0.11191   0.00000  Uiso   1.00
C107   C     0.50019   0.75391   0.11076   0.00000  Uiso   1.00
C108   C     0.48185   0.67716   0.13902   0.00000  Uiso   1.00
C109   C     0.51294   0.59399   0.13258   0.00000  Uiso   1.00
C110   C     0.39235   0.83119   0.07957   0.00000  Uiso   1.00
C111   C     0.28334   0.81942   0.08159   0.00000  Uiso   1.00
C112   C     0.22364   0.80131   0.04889   0.00000  Uiso   1.00
C113   C     0.58518   0.96174   0.10311   0.00000  Uiso   1.00
C114   C     0.63830   0.05975   0.12493   0.00000  Uiso   1.00
C115   C     0.74094   0.15157   0.11205   0.00000  Uiso   1.00
H116   H     0.59747   0.83555   0.02414   0.00000  Uiso   1.00
H117   H     0.61591   0.66006   0.04484   0.00000  Uiso   1.00
H118   H     0.41744   0.80231   0.98743   0.00000  Uiso   1.00
H119   H     0.77234   0.04260   0.03076   0.00000  Uiso   1.00
H120   H     0.61529   0.46815   0.08257   0.00000  Uiso   1.00
H121   H     0.19681   0.76813   0.96150   0.00000  Uiso   1.00
H122   H     0.94520   0.27484   0.05287   0.00000  Uiso   1.00
H123   H     0.43538   0.85625   0.13799   0.00000  Uiso   1.00
H124   H     0.44493   0.68189   0.16495   0.00000  Uiso   1.00
H125   H     0.24646   0.82414   0.10753   0.00000  Uiso   1.00
H126   H     0.60136   0.06443   0.15086   0.00000  Uiso   1.00
H127   H     0.47651   0.48587   0.18005   0.00000  Uiso   1.00
H128   H     0.05803   0.78586   0.05898   0.00000  Uiso   1.00
H129   H     0.80642   0.29256   0.15035   0.00000  Uiso   1.00
O130   O     0.55507   0.36191   0.14698   0.00000  Uiso   1.00
O131   O     0.00606   0.75550   0.98814   0.00000  Uiso   1.00
O132   O     0.98792   0.42028   0.10802   0.00000  Uiso   1.00
N133   N     0.58134   0.49626   0.10181   0.00000  Uiso   1.00
N134   N     0.19008   0.77671   0.98862   0.00000  Uiso   1.00
N135   N     0.88974   0.25045   0.07404   0.00000  Uiso   1.00
N136   N     0.50666   0.50580   0.15427   0.00000  Uiso   1.00
N137   N     0.11540   0.78624   0.04108   0.00000  Uiso   1.00
N138   N     0.81507   0.25998   0.12650   0.00000  Uiso   1.00
C139   C     0.27996   0.84029   0.28311   0.00000  Uiso   1.00
C140   C     0.19993   0.74782   0.25607   0.00000  Uiso   1.00
C141   C     0.08574   0.66475   0.26256   0.00000  Uiso   1.00
C142   C     0.02716   0.58788   0.23432   0.00000  Uiso   1.00
C143   C     0.89474   0.44333   0.19744   0.00000  Uiso   1.00
C144   C     0.38505   0.82509   0.28727   0.00000  Uiso   1.00
C145   C     0.42651   0.80701   0.31998   0.00000  Uiso   1.00
C146   C     0.52378   0.79521   0.31801   0.00000  Uiso   1.00
C147   C     0.67880   0.77071   0.32956   0.00000  Uiso   1.00
C148   C     0.32276   0.95564   0.26372   0.00000  Uiso   1.00
C149   C     0.31189   0.04735   0.27665   0.00000  Uiso   1.00
C150   C     0.35674   0.14547   0.25485   0.00000  Uiso   1.00
C151   C     0.41506   0.32367   0.22985   0.00000  Uiso   1.00
C152   C     0.37899   0.85151   0.22143   0.00000  Uiso   1.00
C153   C     0.25373   0.75391   0.22257   0.00000  Uiso   1.00
C154   C     0.19531   0.67716   0.19431   0.00000  Uiso   1.00
C155   C     0.08105   0.59399   0.20075   0.00000  Uiso   1.00
C156   C     0.43884   0.83119   0.25377   0.00000  Uiso   1.00
C157   C     0.53608   0.81942   0.25174   0.00000  Uiso   1.00
C158   C     0.57767   0.80131   0.28444   0.00000  Uiso   1.00
C159   C     0.37655   0.96174   0.23022   0.00000  Uiso   1.00
C160   C     0.42145   0.05975   0.20840   0.00000  Uiso   1.00
C161   C     0.41064   0.15157   0.22129   0.00000  Uiso   1.00
H162   H     0.23808   0.83555   0.30920   0.00000  Uiso   1.00
H163   H     0.04414   0.66006   0.28849   0.00000  Uiso   1.00
H164   H     0.38487   0.80231   0.34591   0.00000  Uiso   1.00
H165   H     0.27025   0.04260   0.30258   0.00000  Uiso   1.00
H166   H     0.85286   0.46815   0.25077   0.00000  Uiso   1.00
H167   H     0.57132   0.76813   0.37183   0.00000  Uiso   1.00
H168   H     0.32964   0.27484   0.28046   0.00000  Uiso   1.00
H169   H     0.42088   0.85625   0.19534   0.00000  Uiso   1.00
H170   H     0.23696   0.68189   0.16839   0.00000  Uiso   1.00
H171   H     0.57769   0.82414   0.22581   0.00000  Uiso   1.00
H172   H     0.46307   0.06443   0.18247   0.00000  Uiso   1.00
H173   H     0.00936   0.48587   0.15329   0.00000  Uiso   1.00
H174   H     0.72782   0.78586   0.27435   0.00000  Uiso   1.00
H175   H     0.48614   0.29256   0.18298   0.00000  Uiso   1.00
O176   O     0.80684   0.36191   0.18635   0.00000  Uiso   1.00
O177   O     0.74944   0.75550   0.34519   0.00000  Uiso   1.00
O178   O     0.43235   0.42028   0.22531   0.00000  Uiso   1.00
N179   N     0.91492   0.49626   0.23152   0.00000  Uiso   1.00
N180   N     0.58663   0.77671   0.34471   0.00000  Uiso   1.00
N181   N     0.36071   0.25045   0.25929   0.00000  Uiso   1.00
N182   N     0.99913   0.50580   0.17907   0.00000  Uiso   1.00
N183   N     0.67084   0.78624   0.29226   0.00000  Uiso   1.00
N184   N     0.44492   0.25998   0.20684   0.00000  Uiso   1.00
C185   C     0.56034   0.72004   0.94978   0.00000  Uiso   1.00
C186   C     0.54789   0.80007   0.92274   0.00000  Uiso   1.00
C187   C     0.57901   0.91426   0.92922   0.00000  Uiso   1.00
C188   C     0.56072   0.97284   0.90099   0.00000  Uiso   1.00
C189   C     0.54860   0.10526   0.86410   0.00000  Uiso   1.00
C190   C     0.44005   0.61495   0.95394   0.00000  Uiso   1.00
C191   C     0.38050   0.57349   0.98665   0.00000  Uiso   1.00
C192   C     0.27143   0.47622   0.98467   0.00000  Uiso   1.00
C193   C     0.09191   0.32120   0.99623   0.00000  Uiso   1.00
C194   C     0.63288   0.67724   0.93039   0.00000  Uiso   1.00
C195   C     0.73546   0.68811   0.94331   0.00000  Uiso   1.00
C196   C     0.78873   0.64326   0.92152   0.00000  Uiso   1.00
C197   C     0.90861   0.58494   0.89651   0.00000  Uiso   1.00
C198   C     0.47252   0.62101   0.88809   0.00000  Uiso   1.00
C199   C     0.50019   0.74627   0.88924   0.00000  Uiso   1.00
C200   C     0.48185   0.80469   0.86098   0.00000  Uiso   1.00
C201   C     0.51294   0.91895   0.86742   0.00000  Uiso   1.00
C202   C     0.39235   0.56116   0.92043   0.00000  Uiso   1.00
C203   C     0.28334   0.46392   0.91841   0.00000  Uiso   1.00
C204   C     0.22364   0.42233   0.95111   0.00000  Uiso   1.00
C205   C     0.58518   0.62345   0.89689   0.00000  Uiso   1.00
C206   C     0.63830   0.57855   0.87507   0.00000  Uiso   1.00
C207   C     0.74094   0.58936   0.88795   0.00000  Uiso   1.00
H208   H     0.59747   0.76192   0.97586   0.00000  Uiso   1.00
H209   H     0.61591   0.95586   0.95516   0.00000  Uiso   1.00
H210   H     0.41744   0.61513   0.01257   0.00000  Uiso   1.00
H211   H     0.77234   0.72975   0.96924   0.00000  Uiso   1.00
H212   H     0.61529   0.14714   0.91743   0.00000  Uiso   1.00
H213   H     0.19681   0.42868   0.03850   0.00000  Uiso   1.00
H214   H     0.94520   0.67036   0.94713   0.00000  Uiso   1.00
H215   H     0.43538   0.57912   0.86201   0.00000  Uiso   1.00
H216   H     0.44493   0.76304   0.83505   0.00000  Uiso   1.00
H217   H     0.24646   0.42231   0.89247   0.00000  Uiso   1.00
H218   H     0.60136   0.53693   0.84914   0.00000  Uiso   1.00
H219   H     0.47651   0.99064   0.81995   0.00000  Uiso   1.00
H220   H     0.05803   0.27218   0.94102   0.00000  Uiso   1.00
H221   H     0.80642   0.51386   0.84965   0.00000  Uiso   1.00
O222   O     0.55507   0.19316   0.85302   0.00000  Uiso   1.00
O223   O     0.00606   0.25056   0.01186   0.00000  Uiso   1.00
O224   O     0.98792   0.56765   0.89198   0.00000  Uiso   1.00
N225   N     0.58134   0.08508   0.89819   0.00000  Uiso   1.00
N226   N     0.19008   0.41337   0.01138   0.00000  Uiso   1.00
N227   N     0.88974   0.63929   0.92596   0.00000  Uiso   1.00
N228   N     0.50666   0.00087   0.84573   0.00000  Uiso   1.00
N229   N     0.11540   0.32916   0.95892   0.00000  Uiso   1.00
N230   N     0.81507   0.55508   0.87350   0.00000  Uiso   1.00
C231   C     0.15971   0.43966   0.61645   0.00000  Uiso   1.00
C232   C     0.25218   0.45211   0.58941   0.00000  Uiso   1.00
C233   C     0.33525   0.42099   0.59589   0.00000  Uiso   1.00
C234   C     0.41212   0.43928   0.56765   0.00000  Uiso   1.00
C235   C     0.55667   0.45140   0.53077   0.00000  Uiso   1.00
C236   C     0.17491   0.55995   0.62060   0.00000  Uiso   1.00
C237   C     0.19299   0.61950   0.65332   0.00000  Uiso   1.00
C238   C     0.20479   0.72857   0.65134   0.00000  Uiso   1.00
C239   C     0.22929   0.90809   0.66289   0.00000  Uiso   1.00
C240   C     0.04436   0.36712   0.59706   0.00000  Uiso   1.00
C241   C     0.95265   0.26454   0.60998   0.00000  Uiso   1.00
C242   C     0.85453   0.21127   0.58818   0.00000  Uiso   1.00
C243   C     0.67633   0.09139   0.56318   0.00000  Uiso   1.00
C244   C     0.14849   0.52748   0.55476   0.00000  Uiso   1.00
C245   C     0.24609   0.49981   0.55590   0.00000  Uiso   1.00
C246   C     0.32284   0.51815   0.52765   0.00000  Uiso   1.00
C247   C     0.40601   0.48706   0.53409   0.00000  Uiso   1.00
C248   C     0.16881   0.60765   0.58710   0.00000  Uiso   1.00
C249   C     0.18058   0.71666   0.58507   0.00000  Uiso   1.00
C250   C     0.19869   0.77636   0.61777   0.00000  Uiso   1.00
C251   C     0.03826   0.41482   0.56355   0.00000  Uiso   1.00
C252   C     0.94025   0.36170   0.54173   0.00000  Uiso   1.00
C253   C     0.84843   0.25906   0.55462   0.00000  Uiso   1.00
H254   H     0.16445   0.40253   0.64253   0.00000  Uiso   1.00
H255   H     0.33994   0.38409   0.62183   0.00000  Uiso   1.00
H256   H     0.19769   0.58256   0.67924   0.00000  Uiso   1.00
H257   H     0.95740   0.22766   0.63591   0.00000  Uiso   1.00
H258   H     0.53185   0.38471   0.58410   0.00000  Uiso   1.00
H259   H     0.23187   0.80319   0.70517   0.00000  Uiso   1.00
H260   H     0.72516   0.05480   0.61379   0.00000  Uiso   1.00
H261   H     0.14375   0.56462   0.52868   0.00000  Uiso   1.00
H262   H     0.31811   0.55507   0.50172   0.00000  Uiso   1.00
H263   H     0.17586   0.75354   0.55914   0.00000  Uiso   1.00
H264   H     0.93557   0.39864   0.51581   0.00000  Uiso   1.00
H265   H     0.51413   0.52349   0.48662   0.00000  Uiso   1.00
H266   H     0.21414   0.94197   0.60769   0.00000  Uiso   1.00
H267   H     0.70744   0.19358   0.51631   0.00000  Uiso   1.00
O268   O     0.63809   0.44493   0.51969   0.00000  Uiso   1.00
O269   O     0.24450   0.99394   0.67852   0.00000  Uiso   1.00
O270   O     0.57972   0.01208   0.55864   0.00000  Uiso   1.00
N271   N     0.50374   0.41866   0.56485   0.00000  Uiso   1.00
N272   N     0.22329   0.80992   0.67804   0.00000  Uiso   1.00
N273   N     0.74955   0.11026   0.59262   0.00000  Uiso   1.00
N274   N     0.49420   0.49334   0.51240   0.00000  Uiso   1.00
N275   N     0.21376   0.88460   0.62559   0.00000  Uiso   1.00
N276   N     0.74002   0.18493   0.54017   0.00000  Uiso   1.00
