data_job_01300
_audit_creation_date              2018-12-19
_audit_creation_method            'Materials Studio'
_symmetry_space_group_name_H-M    'P1'
_symmetry_Int_Tables_number       1
_symmetry_cell_setting            triclinic
loop_
_symmetry_equiv_pos_as_xyz
  x,y,z
_cell_length_a                    16.6965
_cell_length_b                    7.9303
_cell_length_c                    19.7187
_cell_angle_alpha                 90.0000
_cell_angle_beta                  115.7653
_cell_angle_gamma                 90.0000
loop_
_atom_site_label
_atom_site_type_symbol
_atom_site_fract_x
_atom_site_fract_y
_atom_site_fract_z
_atom_site_U_iso_or_equiv
_atom_site_adp_type
_atom_site_occupancy
C1     C     0.75384   0.39396   0.93626   0.00000  Uiso   1.00
C2     C     0.80626   0.54108   0.98525   0.00000  Uiso   1.00
C3     C     0.88032   0.52780   0.05417   0.00000  Uiso   1.00
C4     C     0.91882   0.67733   0.09022   0.00000  Uiso   1.00
C5     C     0.00542   0.88187   0.17115   0.00000  Uiso   1.00
C6     C     0.65784   0.41908   0.92372   0.00000  Uiso   1.00
C7     C     0.60710   0.30320   0.94089   0.00000  Uiso   1.00
C8     C     0.52066   0.35003   0.92513   0.00000  Uiso   1.00
C9     C     0.37681   0.36511   0.91047   0.00000  Uiso   1.00
C10    C     0.75403   0.41990   0.85970   0.00000  Uiso   1.00
C11    C     0.78415   0.30471   0.82304   0.00000  Uiso   1.00
C12    C     0.77867   0.35222   0.75338   0.00000  Uiso   1.00
C13    C     0.78417   0.36858   0.63933   0.00000  Uiso   1.00
C14    C     0.69054   0.68314   0.87773   0.00000  Uiso   1.00
C15    C     0.77188   0.69815   0.95346   0.00000  Uiso   1.00
C16    C     0.81028   0.84774   0.98942   0.00000  Uiso   1.00
C17    C     0.88438   0.83469   0.05838   0.00000  Uiso   1.00
C18    C     0.62346   0.57614   0.89193   0.00000  Uiso   1.00
C19    C     0.53707   0.62314   0.87614   0.00000  Uiso   1.00
C20    C     0.48621   0.50738   0.89329   0.00000  Uiso   1.00
C21    C     0.71965   0.57697   0.82791   0.00000  Uiso   1.00
C22    C     0.71411   0.62466   0.75829   0.00000  Uiso   1.00
C23    C     0.74422   0.50957   0.72153   0.00000  Uiso   1.00
H24    H     0.78061   0.27167   0.96100   0.00000  Uiso   1.00
H25    H     0.90690   0.40622   0.07875   0.00000  Uiso   1.00
H26    H     0.63373   0.18166   0.96548   0.00000  Uiso   1.00
H27    H     0.81075   0.18317   0.84766   0.00000  Uiso   1.00
H28    H     0.03174   0.62466   0.19530   0.00000  Uiso   1.00
H29    H     0.45573   0.15113   0.95643   0.00000  Uiso   1.00
H30    H     0.82902   0.15432   0.70797   0.00000  Uiso   1.00
H31    H     0.66376   0.80543   0.85298   0.00000  Uiso   1.00
H32    H     0.78365   0.96927   0.96481   0.00000  Uiso   1.00
H33    H     0.51048   0.74470   0.85153   0.00000  Uiso   1.00
H34    H     0.68750   0.74622   0.73371   0.00000  Uiso   1.00
H35    H     0.93171   0.08165   0.10281   0.00000  Uiso   1.00
H36    H     0.35569   0.60811   0.86394   0.00000  Uiso   1.00
H37    H     0.72898   0.61131   0.61549   0.00000  Uiso   1.00
O38    O     0.06268   0.95130   0.22458   0.00000  Uiso   1.00
O39    O     0.30697   0.33003   0.91118   0.00000  Uiso   1.00
O40    O     0.79672   0.33422   0.58521   0.00000  Uiso   1.00
N41    N     0.99176   0.70973   0.15818   0.00000  Uiso   1.00
N42    N     0.45322   0.26701   0.93486   0.00000  Uiso   1.00
N43    N     0.80219   0.26998   0.70257   0.00000  Uiso   1.00
N44    N     0.93793   0.95563   0.10841   0.00000  Uiso   1.00
N45    N     0.39940   0.51292   0.88510   0.00000  Uiso   1.00
N46    N     0.74837   0.51588   0.65280   0.00000  Uiso   1.00
C47    C     0.24616   0.89396   0.56374   0.00000  Uiso   1.00
C48    C     0.19374   0.04108   0.51475   0.00000  Uiso   1.00
C49    C     0.11968   0.02780   0.44583   0.00000  Uiso   1.00
C50    C     0.08118   0.17733   0.40978   0.00000  Uiso   1.00
C51    C     0.99458   0.38187   0.32885   0.00000  Uiso   1.00
C52    C     0.34216   0.91908   0.57628   0.00000  Uiso   1.00
C53    C     0.39290   0.80320   0.55911   0.00000  Uiso   1.00
C54    C     0.47934   0.85003   0.57487   0.00000  Uiso   1.00
C55    C     0.62319   0.86511   0.58953   0.00000  Uiso   1.00
C56    C     0.24597   0.91990   0.64030   0.00000  Uiso   1.00
C57    C     0.21585   0.80471   0.67696   0.00000  Uiso   1.00
C58    C     0.22133   0.85222   0.74662   0.00000  Uiso   1.00
C59    C     0.21583   0.86858   0.86067   0.00000  Uiso   1.00
C60    C     0.30946   0.18314   0.62227   0.00000  Uiso   1.00
C61    C     0.22812   0.19815   0.54654   0.00000  Uiso   1.00
C62    C     0.18972   0.34774   0.51058   0.00000  Uiso   1.00
C63    C     0.11562   0.33469   0.44162   0.00000  Uiso   1.00
C64    C     0.37654   0.07614   0.60807   0.00000  Uiso   1.00
C65    C     0.46293   0.12314   0.62386   0.00000  Uiso   1.00
C66    C     0.51379   0.00738   0.60671   0.00000  Uiso   1.00
C67    C     0.28035   0.07697   0.67209   0.00000  Uiso   1.00
C68    C     0.28589   0.12466   0.74171   0.00000  Uiso   1.00
C69    C     0.25578   0.00957   0.77847   0.00000  Uiso   1.00
H70    H     0.21939   0.77167   0.53900   0.00000  Uiso   1.00
H71    H     0.09310   0.90622   0.42125   0.00000  Uiso   1.00
H72    H     0.36627   0.68166   0.53452   0.00000  Uiso   1.00
H73    H     0.18925   0.68317   0.65234   0.00000  Uiso   1.00
H74    H     0.96826   0.12466   0.30470   0.00000  Uiso   1.00
H75    H     0.54427   0.65113   0.54357   0.00000  Uiso   1.00
H76    H     0.17098   0.65432   0.79203   0.00000  Uiso   1.00
H77    H     0.33624   0.30543   0.64702   0.00000  Uiso   1.00
H78    H     0.21635   0.46927   0.53519   0.00000  Uiso   1.00
H79    H     0.48952   0.24470   0.64847   0.00000  Uiso   1.00
H80    H     0.31250   0.24622   0.76629   0.00000  Uiso   1.00
H81    H     0.06829   0.58165   0.39719   0.00000  Uiso   1.00
H82    H     0.64431   0.10811   0.63606   0.00000  Uiso   1.00
H83    H     0.27102   0.11131   0.88451   0.00000  Uiso   1.00
O84    O     0.93732   0.45130   0.27542   0.00000  Uiso   1.00
O85    O     0.69303   0.83003   0.58882   0.00000  Uiso   1.00
O86    O     0.20328   0.83422   0.91479   0.00000  Uiso   1.00
N87    N     0.00824   0.20973   0.34182   0.00000  Uiso   1.00
N88    N     0.54678   0.76701   0.56514   0.00000  Uiso   1.00
N89    N     0.19781   0.76998   0.79743   0.00000  Uiso   1.00
N90    N     0.06207   0.45563   0.39159   0.00000  Uiso   1.00
N91    N     0.60060   0.01292   0.61490   0.00000  Uiso   1.00
N92    N     0.25163   0.01588   0.84720   0.00000  Uiso   1.00
C93    C     0.24616   0.60604   0.06374   0.00000  Uiso   1.00
C94    C     0.19374   0.45892   0.01475   0.00000  Uiso   1.00
C95    C     0.11968   0.47220   0.94583   0.00000  Uiso   1.00
C96    C     0.08118   0.32267   0.90978   0.00000  Uiso   1.00
C97    C     0.99458   0.11813   0.82885   0.00000  Uiso   1.00
C98    C     0.34216   0.58092   0.07628   0.00000  Uiso   1.00
C99    C     0.39290   0.69680   0.05911   0.00000  Uiso   1.00
C100   C     0.47934   0.64997   0.07487   0.00000  Uiso   1.00
C101   C     0.62319   0.63489   0.08953   0.00000  Uiso   1.00
C102   C     0.24597   0.58010   0.14030   0.00000  Uiso   1.00
C103   C     0.21585   0.69529   0.17696   0.00000  Uiso   1.00
C104   C     0.22133   0.64778   0.24662   0.00000  Uiso   1.00
C105   C     0.21583   0.63142   0.36067   0.00000  Uiso   1.00
C106   C     0.30946   0.31686   0.12227   0.00000  Uiso   1.00
C107   C     0.22812   0.30185   0.04654   0.00000  Uiso   1.00
C108   C     0.18972   0.15226   0.01058   0.00000  Uiso   1.00
C109   C     0.11562   0.16531   0.94162   0.00000  Uiso   1.00
C110   C     0.37654   0.42386   0.10807   0.00000  Uiso   1.00
C111   C     0.46293   0.37686   0.12386   0.00000  Uiso   1.00
C112   C     0.51379   0.49262   0.10671   0.00000  Uiso   1.00
C113   C     0.28035   0.42303   0.17209   0.00000  Uiso   1.00
C114   C     0.28589   0.37534   0.24171   0.00000  Uiso   1.00
C115   C     0.25578   0.49043   0.27847   0.00000  Uiso   1.00
H116   H     0.21939   0.72833   0.03900   0.00000  Uiso   1.00
H117   H     0.09310   0.59378   0.92125   0.00000  Uiso   1.00
H118   H     0.36627   0.81834   0.03452   0.00000  Uiso   1.00
H119   H     0.18925   0.81683   0.15234   0.00000  Uiso   1.00
H120   H     0.96826   0.37534   0.80470   0.00000  Uiso   1.00
H121   H     0.54427   0.84887   0.04357   0.00000  Uiso   1.00
H122   H     0.17098   0.84568   0.29203   0.00000  Uiso   1.00
H123   H     0.33624   0.19457   0.14702   0.00000  Uiso   1.00
H124   H     0.21635   0.03073   0.03519   0.00000  Uiso   1.00
H125   H     0.48952   0.25530   0.14847   0.00000  Uiso   1.00
H126   H     0.31250   0.25378   0.26629   0.00000  Uiso   1.00
H127   H     0.06829   0.91835   0.89719   0.00000  Uiso   1.00
H128   H     0.64431   0.39189   0.13606   0.00000  Uiso   1.00
H129   H     0.27102   0.38869   0.38451   0.00000  Uiso   1.00
O130   O     0.93732   0.04870   0.77542   0.00000  Uiso   1.00
O131   O     0.69303   0.66997   0.08882   0.00000  Uiso   1.00
O132   O     0.20328   0.66578   0.41479   0.00000  Uiso   1.00
N133   N     0.00824   0.29027   0.84182   0.00000  Uiso   1.00
N134   N     0.54678   0.73299   0.06514   0.00000  Uiso   1.00
N135   N     0.19781   0.73002   0.29743   0.00000  Uiso   1.00
N136   N     0.06207   0.04437   0.89159   0.00000  Uiso   1.00
N137   N     0.60060   0.48708   0.11490   0.00000  Uiso   1.00
N138   N     0.25163   0.48412   0.34720   0.00000  Uiso   1.00
C139   C     0.75384   0.10604   0.43626   0.00000  Uiso   1.00
C140   C     0.80626   0.95892   0.48525   0.00000  Uiso   1.00
C141   C     0.88032   0.97220   0.55417   0.00000  Uiso   1.00
C142   C     0.91882   0.82267   0.59022   0.00000  Uiso   1.00
C143   C     0.00542   0.61813   0.67115   0.00000  Uiso   1.00
C144   C     0.65784   0.08092   0.42372   0.00000  Uiso   1.00
C145   C     0.60710   0.19680   0.44089   0.00000  Uiso   1.00
C146   C     0.52066   0.14997   0.42513   0.00000  Uiso   1.00
C147   C     0.37681   0.13489   0.41047   0.00000  Uiso   1.00
C148   C     0.75403   0.08010   0.35970   0.00000  Uiso   1.00
C149   C     0.78415   0.19529   0.32304   0.00000  Uiso   1.00
C150   C     0.77867   0.14778   0.25338   0.00000  Uiso   1.00
C151   C     0.78417   0.13142   0.13933   0.00000  Uiso   1.00
C152   C     0.69054   0.81686   0.37773   0.00000  Uiso   1.00
C153   C     0.77188   0.80185   0.45346   0.00000  Uiso   1.00
C154   C     0.81028   0.65226   0.48942   0.00000  Uiso   1.00
C155   C     0.88438   0.66531   0.55838   0.00000  Uiso   1.00
C156   C     0.62346   0.92386   0.39193   0.00000  Uiso   1.00
C157   C     0.53707   0.87686   0.37614   0.00000  Uiso   1.00
C158   C     0.48621   0.99262   0.39329   0.00000  Uiso   1.00
C159   C     0.71965   0.92303   0.32791   0.00000  Uiso   1.00
C160   C     0.71411   0.87534   0.25829   0.00000  Uiso   1.00
C161   C     0.74422   0.99043   0.22153   0.00000  Uiso   1.00
H162   H     0.78061   0.22833   0.46100   0.00000  Uiso   1.00
H163   H     0.90690   0.09378   0.57875   0.00000  Uiso   1.00
H164   H     0.63373   0.31834   0.46548   0.00000  Uiso   1.00
H165   H     0.81075   0.31683   0.34766   0.00000  Uiso   1.00
H166   H     0.03174   0.87534   0.69530   0.00000  Uiso   1.00
H167   H     0.45573   0.34887   0.45643   0.00000  Uiso   1.00
H168   H     0.82902   0.34568   0.20797   0.00000  Uiso   1.00
H169   H     0.66376   0.69457   0.35298   0.00000  Uiso   1.00
H170   H     0.78365   0.53073   0.46481   0.00000  Uiso   1.00
H171   H     0.51048   0.75530   0.35153   0.00000  Uiso   1.00
H172   H     0.68750   0.75378   0.23371   0.00000  Uiso   1.00
H173   H     0.93171   0.41835   0.60281   0.00000  Uiso   1.00
H174   H     0.35569   0.89189   0.36394   0.00000  Uiso   1.00
H175   H     0.72898   0.88869   0.11549   0.00000  Uiso   1.00
O176   O     0.06268   0.54870   0.72458   0.00000  Uiso   1.00
O177   O     0.30697   0.16997   0.41118   0.00000  Uiso   1.00
O178   O     0.79672   0.16578   0.08521   0.00000  Uiso   1.00
N179   N     0.99176   0.79027   0.65818   0.00000  Uiso   1.00
N180   N     0.45322   0.23299   0.43486   0.00000  Uiso   1.00
N181   N     0.80219   0.23002   0.20257   0.00000  Uiso   1.00
N182   N     0.93793   0.54437   0.60841   0.00000  Uiso   1.00
N183   N     0.39940   0.98708   0.38510   0.00000  Uiso   1.00
N184   N     0.74837   0.98412   0.15280   0.00000  Uiso   1.00
