data_job_03821
_audit_creation_date              2018-12-19
_audit_creation_method            'Materials Studio'
_symmetry_space_group_name_H-M    'P1'
_symmetry_Int_Tables_number       1
_symmetry_cell_setting            triclinic
loop_
_symmetry_equiv_pos_as_xyz
  x,y,z
_cell_length_a                    10.6189
_cell_length_b                    14.5569
_cell_length_c                    16.9428
_cell_angle_alpha                 90.0000
_cell_angle_beta                  75.3493
_cell_angle_gamma                 90.0000
loop_
_atom_site_label
_atom_site_type_symbol
_atom_site_fract_x
_atom_site_fract_y
_atom_site_fract_z
_atom_site_U_iso_or_equiv
_atom_site_adp_type
_atom_site_occupancy
C1     C     0.58255   0.20327   0.10651   0.00000  Uiso   1.00
C2     C     0.68414   0.14519   0.04779   0.00000  Uiso   1.00
C3     C     0.70634   0.05219   0.05625   0.00000  Uiso   1.00
C4     C     0.80373   0.01158   0.99598   0.00000  Uiso   1.00
C5     C     0.95049   0.91371   0.91490   0.00000  Uiso   1.00
C6     C     0.65682   0.28258   0.13254   0.00000  Uiso   1.00
C7     C     0.65602   0.30511   0.21226   0.00000  Uiso   1.00
C8     C     0.73041   0.38017   0.22332   0.00000  Uiso   1.00
C9     C     0.83467   0.49564   0.27383   0.00000  Uiso   1.00
C10    C     0.49819   0.24593   0.05554   0.00000  Uiso   1.00
C11    C     0.36401   0.23767   0.07054   0.00000  Uiso   1.00
C12    C     0.30483   0.28189   0.01679   0.00000  Uiso   1.00
C13    C     0.16280   0.34046   0.94776   0.00000  Uiso   1.00
C14    C     0.71605   0.29652   0.98442   0.00000  Uiso   1.00
C15    C     0.75665   0.19584   0.98147   0.00000  Uiso   1.00
C16    C     0.85403   0.15536   0.92117   0.00000  Uiso   1.00
C17    C     0.87637   0.06232   0.92954   0.00000  Uiso   1.00
C18    C     0.72933   0.33323   0.06623   0.00000  Uiso   1.00
C19    C     0.80372   0.40828   0.07718   0.00000  Uiso   1.00
C20    C     0.80305   0.43091   0.15689   0.00000  Uiso   1.00
C21    C     0.57070   0.29659   0.98923   0.00000  Uiso   1.00
C22    C     0.51171   0.34084   0.93546   0.00000  Uiso   1.00
C23    C     0.37747   0.33263   0.95036   0.00000  Uiso   1.00
H24    H     0.52611   0.16384   0.15814   0.00000  Uiso   1.00
H25    H     0.65021   0.01302   0.10758   0.00000  Uiso   1.00
H26    H     0.59989   0.26591   0.26356   0.00000  Uiso   1.00
H27    H     0.30793   0.19847   0.12186   0.00000  Uiso   1.00
H28    H     0.81982   0.86815   0.02230   0.00000  Uiso   1.00
H29    H     0.71368   0.40140   0.35119   0.00000  Uiso   1.00
H30    H     0.09802   0.25920   0.05239   0.00000  Uiso   1.00
H31    H     0.77250   0.33596   0.93279   0.00000  Uiso   1.00
H32    H     0.91013   0.19458   0.86986   0.00000  Uiso   1.00
H33    H     0.85981   0.44746   0.02585   0.00000  Uiso   1.00
H34    H     0.56785   0.38003   0.88415   0.00000  Uiso   1.00
H35    H     0.03078   0.01551   0.82936   0.00000  Uiso   1.00
H36    H     0.92464   0.54876   0.15826   0.00000  Uiso   1.00
H37    H     0.30898   0.40656   0.85945   0.00000  Uiso   1.00
O38    O     0.01142   0.84573   0.88851   0.00000  Uiso   1.00
O39    O     0.87215   0.54533   0.32001   0.00000  Uiso   1.00
O40    O     0.06442   0.35876   0.92799   0.00000  Uiso   1.00
N41    N     0.85056   0.92223   0.98552   0.00000  Uiso   1.00
N42    N     0.75135   0.42077   0.29301   0.00000  Uiso   1.00
N43    N     0.17575   0.28785   0.01367   0.00000  Uiso   1.00
N44    N     0.96408   0.00152   0.88170   0.00000  Uiso   1.00
N45    N     0.86487   0.50007   0.18919   0.00000  Uiso   1.00
N46    N     0.28927   0.36714   0.90986   0.00000  Uiso   1.00
C47    C     0.41745   0.20327   0.39349   0.00000  Uiso   1.00
C48    C     0.31586   0.14519   0.45221   0.00000  Uiso   1.00
C49    C     0.29366   0.05219   0.44375   0.00000  Uiso   1.00
C50    C     0.19627   0.01158   0.50402   0.00000  Uiso   1.00
C51    C     0.04951   0.91371   0.58510   0.00000  Uiso   1.00
C52    C     0.34318   0.28258   0.36746   0.00000  Uiso   1.00
C53    C     0.34398   0.30511   0.28774   0.00000  Uiso   1.00
C54    C     0.26959   0.38017   0.27668   0.00000  Uiso   1.00
C55    C     0.16533   0.49564   0.22617   0.00000  Uiso   1.00
C56    C     0.50181   0.24593   0.44446   0.00000  Uiso   1.00
C57    C     0.63599   0.23767   0.42946   0.00000  Uiso   1.00
C58    C     0.69517   0.28189   0.48321   0.00000  Uiso   1.00
C59    C     0.83720   0.34046   0.55224   0.00000  Uiso   1.00
C60    C     0.28395   0.29652   0.51558   0.00000  Uiso   1.00
C61    C     0.24335   0.19584   0.51853   0.00000  Uiso   1.00
C62    C     0.14597   0.15536   0.57883   0.00000  Uiso   1.00
C63    C     0.12363   0.06232   0.57046   0.00000  Uiso   1.00
C64    C     0.27067   0.33323   0.43377   0.00000  Uiso   1.00
C65    C     0.19628   0.40828   0.42282   0.00000  Uiso   1.00
C66    C     0.19695   0.43091   0.34311   0.00000  Uiso   1.00
C67    C     0.42930   0.29659   0.51077   0.00000  Uiso   1.00
C68    C     0.48829   0.34084   0.56454   0.00000  Uiso   1.00
C69    C     0.62253   0.33263   0.54964   0.00000  Uiso   1.00
H70    H     0.47389   0.16384   0.34186   0.00000  Uiso   1.00
H71    H     0.34979   0.01302   0.39242   0.00000  Uiso   1.00
H72    H     0.40011   0.26591   0.23644   0.00000  Uiso   1.00
H73    H     0.69207   0.19847   0.37814   0.00000  Uiso   1.00
H74    H     0.18018   0.86815   0.47770   0.00000  Uiso   1.00
H75    H     0.28632   0.40140   0.14881   0.00000  Uiso   1.00
H76    H     0.90198   0.25920   0.44761   0.00000  Uiso   1.00
H77    H     0.22750   0.33596   0.56721   0.00000  Uiso   1.00
H78    H     0.08987   0.19458   0.63014   0.00000  Uiso   1.00
H79    H     0.14019   0.44746   0.47415   0.00000  Uiso   1.00
H80    H     0.43215   0.38003   0.61585   0.00000  Uiso   1.00
H81    H     0.96922   0.01551   0.67064   0.00000  Uiso   1.00
H82    H     0.07536   0.54876   0.34174   0.00000  Uiso   1.00
H83    H     0.69102   0.40656   0.64055   0.00000  Uiso   1.00
O84    O     0.98858   0.84573   0.61149   0.00000  Uiso   1.00
O85    O     0.12785   0.54533   0.17999   0.00000  Uiso   1.00
O86    O     0.93558   0.35876   0.57201   0.00000  Uiso   1.00
N87    N     0.14944   0.92223   0.51448   0.00000  Uiso   1.00
N88    N     0.24865   0.42077   0.20699   0.00000  Uiso   1.00
N89    N     0.82425   0.28785   0.48633   0.00000  Uiso   1.00
N90    N     0.03592   0.00152   0.61830   0.00000  Uiso   1.00
N91    N     0.13513   0.50007   0.31081   0.00000  Uiso   1.00
N92    N     0.71073   0.36714   0.59014   0.00000  Uiso   1.00
C93    C     0.41745   0.79673   0.89349   0.00000  Uiso   1.00
C94    C     0.31586   0.85481   0.95221   0.00000  Uiso   1.00
C95    C     0.29366   0.94781   0.94375   0.00000  Uiso   1.00
C96    C     0.19627   0.98842   0.00402   0.00000  Uiso   1.00
C97    C     0.04951   0.08629   0.08510   0.00000  Uiso   1.00
C98    C     0.34318   0.71742   0.86746   0.00000  Uiso   1.00
C99    C     0.34398   0.69489   0.78774   0.00000  Uiso   1.00
C100   C     0.26959   0.61983   0.77668   0.00000  Uiso   1.00
C101   C     0.16533   0.50436   0.72617   0.00000  Uiso   1.00
C102   C     0.50181   0.75407   0.94446   0.00000  Uiso   1.00
C103   C     0.63599   0.76233   0.92946   0.00000  Uiso   1.00
C104   C     0.69517   0.71811   0.98321   0.00000  Uiso   1.00
C105   C     0.83720   0.65954   0.05224   0.00000  Uiso   1.00
C106   C     0.28395   0.70348   0.01558   0.00000  Uiso   1.00
C107   C     0.24335   0.80416   0.01853   0.00000  Uiso   1.00
C108   C     0.14597   0.84464   0.07883   0.00000  Uiso   1.00
C109   C     0.12363   0.93768   0.07046   0.00000  Uiso   1.00
C110   C     0.27067   0.66677   0.93377   0.00000  Uiso   1.00
C111   C     0.19628   0.59172   0.92282   0.00000  Uiso   1.00
C112   C     0.19695   0.56909   0.84311   0.00000  Uiso   1.00
C113   C     0.42930   0.70341   0.01077   0.00000  Uiso   1.00
C114   C     0.48829   0.65916   0.06454   0.00000  Uiso   1.00
C115   C     0.62253   0.66737   0.04964   0.00000  Uiso   1.00
H116   H     0.47389   0.83616   0.84186   0.00000  Uiso   1.00
H117   H     0.34979   0.98698   0.89242   0.00000  Uiso   1.00
H118   H     0.40011   0.73409   0.73644   0.00000  Uiso   1.00
H119   H     0.69207   0.80153   0.87814   0.00000  Uiso   1.00
H120   H     0.18018   0.13185   0.97770   0.00000  Uiso   1.00
H121   H     0.28632   0.59860   0.64881   0.00000  Uiso   1.00
H122   H     0.90198   0.74080   0.94761   0.00000  Uiso   1.00
H123   H     0.22750   0.66404   0.06721   0.00000  Uiso   1.00
H124   H     0.08987   0.80542   0.13014   0.00000  Uiso   1.00
H125   H     0.14019   0.55254   0.97415   0.00000  Uiso   1.00
H126   H     0.43215   0.61997   0.11585   0.00000  Uiso   1.00
H127   H     0.96922   0.98449   0.17064   0.00000  Uiso   1.00
H128   H     0.07536   0.45124   0.84174   0.00000  Uiso   1.00
H129   H     0.69102   0.59344   0.14055   0.00000  Uiso   1.00
O130   O     0.98858   0.15427   0.11149   0.00000  Uiso   1.00
O131   O     0.12785   0.45467   0.67999   0.00000  Uiso   1.00
O132   O     0.93558   0.64124   0.07201   0.00000  Uiso   1.00
N133   N     0.14944   0.07777   0.01448   0.00000  Uiso   1.00
N134   N     0.24865   0.57923   0.70699   0.00000  Uiso   1.00
N135   N     0.82425   0.71215   0.98633   0.00000  Uiso   1.00
N136   N     0.03592   0.99848   0.11830   0.00000  Uiso   1.00
N137   N     0.13513   0.49993   0.81081   0.00000  Uiso   1.00
N138   N     0.71073   0.63286   0.09014   0.00000  Uiso   1.00
C139   C     0.58255   0.79673   0.60651   0.00000  Uiso   1.00
C140   C     0.68414   0.85481   0.54779   0.00000  Uiso   1.00
C141   C     0.70634   0.94781   0.55625   0.00000  Uiso   1.00
C142   C     0.80373   0.98842   0.49598   0.00000  Uiso   1.00
C143   C     0.95049   0.08629   0.41490   0.00000  Uiso   1.00
C144   C     0.65682   0.71742   0.63254   0.00000  Uiso   1.00
C145   C     0.65602   0.69489   0.71226   0.00000  Uiso   1.00
C146   C     0.73041   0.61983   0.72332   0.00000  Uiso   1.00
C147   C     0.83467   0.50436   0.77383   0.00000  Uiso   1.00
C148   C     0.49819   0.75407   0.55554   0.00000  Uiso   1.00
C149   C     0.36401   0.76233   0.57054   0.00000  Uiso   1.00
C150   C     0.30483   0.71811   0.51679   0.00000  Uiso   1.00
C151   C     0.16280   0.65954   0.44776   0.00000  Uiso   1.00
C152   C     0.71605   0.70348   0.48442   0.00000  Uiso   1.00
C153   C     0.75665   0.80416   0.48147   0.00000  Uiso   1.00
C154   C     0.85403   0.84464   0.42117   0.00000  Uiso   1.00
C155   C     0.87637   0.93768   0.42954   0.00000  Uiso   1.00
C156   C     0.72933   0.66677   0.56623   0.00000  Uiso   1.00
C157   C     0.80372   0.59172   0.57718   0.00000  Uiso   1.00
C158   C     0.80305   0.56909   0.65689   0.00000  Uiso   1.00
C159   C     0.57070   0.70341   0.48923   0.00000  Uiso   1.00
C160   C     0.51171   0.65916   0.43546   0.00000  Uiso   1.00
C161   C     0.37747   0.66737   0.45036   0.00000  Uiso   1.00
H162   H     0.52611   0.83616   0.65814   0.00000  Uiso   1.00
H163   H     0.65021   0.98698   0.60758   0.00000  Uiso   1.00
H164   H     0.59989   0.73409   0.76356   0.00000  Uiso   1.00
H165   H     0.30793   0.80153   0.62186   0.00000  Uiso   1.00
H166   H     0.81982   0.13185   0.52230   0.00000  Uiso   1.00
H167   H     0.71368   0.59860   0.85119   0.00000  Uiso   1.00
H168   H     0.09802   0.74080   0.55239   0.00000  Uiso   1.00
H169   H     0.77250   0.66404   0.43279   0.00000  Uiso   1.00
H170   H     0.91013   0.80542   0.36986   0.00000  Uiso   1.00
H171   H     0.85981   0.55254   0.52585   0.00000  Uiso   1.00
H172   H     0.56785   0.61997   0.38415   0.00000  Uiso   1.00
H173   H     0.03078   0.98449   0.32936   0.00000  Uiso   1.00
H174   H     0.92464   0.45124   0.65826   0.00000  Uiso   1.00
H175   H     0.30898   0.59344   0.35945   0.00000  Uiso   1.00
O176   O     0.01142   0.15427   0.38851   0.00000  Uiso   1.00
O177   O     0.87215   0.45467   0.82001   0.00000  Uiso   1.00
O178   O     0.06442   0.64124   0.42799   0.00000  Uiso   1.00
N179   N     0.85056   0.07777   0.48552   0.00000  Uiso   1.00
N180   N     0.75135   0.57923   0.79301   0.00000  Uiso   1.00
N181   N     0.17575   0.71215   0.51367   0.00000  Uiso   1.00
N182   N     0.96408   0.99848   0.38170   0.00000  Uiso   1.00
N183   N     0.86487   0.49993   0.68919   0.00000  Uiso   1.00
N184   N     0.28927   0.63286   0.40986   0.00000  Uiso   1.00
