data_job_03521
_audit_creation_date              2018-12-19
_audit_creation_method            'Materials Studio'
_symmetry_space_group_name_H-M    'P1'
_symmetry_Int_Tables_number       1
_symmetry_cell_setting            triclinic
loop_
_symmetry_equiv_pos_as_xyz
  x,y,z
_cell_length_a                    39.6690
_cell_length_b                    10.2826
_cell_length_c                    27.6276
_cell_angle_alpha                 90.0000
_cell_angle_beta                  47.0780
_cell_angle_gamma                 90.0000
loop_
_atom_site_label
_atom_site_type_symbol
_atom_site_fract_x
_atom_site_fract_y
_atom_site_fract_z
_atom_site_U_iso_or_equiv
_atom_site_adp_type
_atom_site_occupancy
C1     C     0.58754   0.88756   0.66132   0.00000  Uiso   1.00
C2     C     0.63753   0.93277   0.61175   0.00000  Uiso   1.00
C3     C     0.65700   0.02298   0.62397   0.00000  Uiso   1.00
C4     C     0.70331   0.05127   0.57213   0.00000  Uiso   1.00
C5     C     0.77700   0.13061   0.50454   0.00000  Uiso   1.00
C6     C     0.56864   0.91444   0.62929   0.00000  Uiso   1.00
C7     C     0.53018   0.98924   0.65627   0.00000  Uiso   1.00
C8     C     0.51849   0.00209   0.61919   0.00000  Uiso   1.00
C9     C     0.48520   0.05290   0.57887   0.00000  Uiso   1.00
C10    C     0.58909   0.73997   0.66494   0.00000  Uiso   1.00
C11    C     0.56782   0.66806   0.72189   0.00000  Uiso   1.00
C12    C     0.57335   0.53401   0.71483   0.00000  Uiso   1.00
C13    C     0.57181   0.31394   0.72985   0.00000  Uiso   1.00
C14    C     0.63518   0.77737   0.54752   0.00000  Uiso   1.00
C15    C     0.66341   0.87291   0.54994   0.00000  Uiso   1.00
C16    C     0.70971   0.90107   0.49806   0.00000  Uiso   1.00
C17    C     0.72924   0.99131   0.51020   0.00000  Uiso   1.00
C18    C     0.59451   0.85460   0.56748   0.00000  Uiso   1.00
C19    C     0.58288   0.86732   0.53036   0.00000  Uiso   1.00
C20    C     0.54442   0.94213   0.55727   0.00000  Uiso   1.00
C21    C     0.61497   0.68012   0.60313   0.00000  Uiso   1.00
C22    C     0.62053   0.54615   0.59598   0.00000  Uiso   1.00
C23    C     0.59927   0.47405   0.65291   0.00000  Uiso   1.00
H24    H     0.56739   0.93416   0.70945   0.00000  Uiso   1.00
H25    H     0.63696   0.06929   0.67181   0.00000  Uiso   1.00
H26    H     0.51016   0.03553   0.70410   0.00000  Uiso   1.00
H27    H     0.54780   0.71441   0.76971   0.00000  Uiso   1.00
H28    H     0.72550   0.19274   0.60282   0.00000  Uiso   1.00
H29    H     0.45811   0.12154   0.67092   0.00000  Uiso   1.00
H30    H     0.53748   0.44439   0.80928   0.00000  Uiso   1.00
H31    H     0.65532   0.73077   0.49940   0.00000  Uiso   1.00
H32    H     0.72972   0.85473   0.45023   0.00000  Uiso   1.00
H33    H     0.60291   0.82099   0.48253   0.00000  Uiso   1.00
H34    H     0.64055   0.49987   0.54814   0.00000  Uiso   1.00
H35    H     0.80079   0.01861   0.42298   0.00000  Uiso   1.00
H36    H     0.53340   0.94740   0.49109   0.00000  Uiso   1.00
H37    H     0.61277   0.27025   0.62944   0.00000  Uiso   1.00
O38    O     0.81049   0.19092   0.48434   0.00000  Uiso   1.00
O39    O     0.45969   0.09749   0.57370   0.00000  Uiso   1.00
O40    O     0.56382   0.20909   0.75521   0.00000  Uiso   1.00
N41    N     0.73301   0.13473   0.56724   0.00000  Uiso   1.00
N42    N     0.48302   0.06817   0.63091   0.00000  Uiso   1.00
N43    N     0.55722   0.43509   0.76027   0.00000  Uiso   1.00
N44    N     0.77352   0.04102   0.47047   0.00000  Uiso   1.00
N45    N     0.52354   0.97447   0.53414   0.00000  Uiso   1.00
N46    N     0.59773   0.34139   0.66350   0.00000  Uiso   1.00
C47    C     0.08754   0.38756   0.66132   0.00000  Uiso   1.00
C48    C     0.13753   0.43277   0.61175   0.00000  Uiso   1.00
C49    C     0.15700   0.52298   0.62397   0.00000  Uiso   1.00
C50    C     0.20331   0.55127   0.57213   0.00000  Uiso   1.00
C51    C     0.27700   0.63061   0.50454   0.00000  Uiso   1.00
C52    C     0.06864   0.41444   0.62929   0.00000  Uiso   1.00
C53    C     0.03018   0.48924   0.65627   0.00000  Uiso   1.00
C54    C     0.01849   0.50209   0.61919   0.00000  Uiso   1.00
C55    C     0.98520   0.55290   0.57887   0.00000  Uiso   1.00
C56    C     0.08909   0.23997   0.66494   0.00000  Uiso   1.00
C57    C     0.06782   0.16806   0.72189   0.00000  Uiso   1.00
C58    C     0.07335   0.03401   0.71483   0.00000  Uiso   1.00
C59    C     0.07181   0.81394   0.72985   0.00000  Uiso   1.00
C60    C     0.13518   0.27737   0.54752   0.00000  Uiso   1.00
C61    C     0.16341   0.37291   0.54994   0.00000  Uiso   1.00
C62    C     0.20971   0.40107   0.49806   0.00000  Uiso   1.00
C63    C     0.22924   0.49131   0.51020   0.00000  Uiso   1.00
C64    C     0.09451   0.35460   0.56748   0.00000  Uiso   1.00
C65    C     0.08288   0.36732   0.53036   0.00000  Uiso   1.00
C66    C     0.04442   0.44213   0.55727   0.00000  Uiso   1.00
C67    C     0.11497   0.18012   0.60313   0.00000  Uiso   1.00
C68    C     0.12053   0.04615   0.59598   0.00000  Uiso   1.00
C69    C     0.09927   0.97405   0.65291   0.00000  Uiso   1.00
H70    H     0.06739   0.43416   0.70945   0.00000  Uiso   1.00
H71    H     0.13696   0.56929   0.67181   0.00000  Uiso   1.00
H72    H     0.01016   0.53553   0.70410   0.00000  Uiso   1.00
H73    H     0.04780   0.21441   0.76971   0.00000  Uiso   1.00
H74    H     0.22550   0.69274   0.60282   0.00000  Uiso   1.00
H75    H     0.95811   0.62154   0.67092   0.00000  Uiso   1.00
H76    H     0.03748   0.94439   0.80928   0.00000  Uiso   1.00
H77    H     0.15532   0.23077   0.49940   0.00000  Uiso   1.00
H78    H     0.22972   0.35473   0.45023   0.00000  Uiso   1.00
H79    H     0.10291   0.32099   0.48253   0.00000  Uiso   1.00
H80    H     0.14055   0.99987   0.54814   0.00000  Uiso   1.00
H81    H     0.30079   0.51861   0.42298   0.00000  Uiso   1.00
H82    H     0.03340   0.44740   0.49109   0.00000  Uiso   1.00
H83    H     0.11277   0.77025   0.62944   0.00000  Uiso   1.00
O84    O     0.31049   0.69092   0.48434   0.00000  Uiso   1.00
O85    O     0.95969   0.59749   0.57370   0.00000  Uiso   1.00
O86    O     0.06382   0.70909   0.75521   0.00000  Uiso   1.00
N87    N     0.23301   0.63473   0.56724   0.00000  Uiso   1.00
N88    N     0.98302   0.56817   0.63091   0.00000  Uiso   1.00
N89    N     0.05722   0.93509   0.76027   0.00000  Uiso   1.00
N90    N     0.27352   0.54102   0.47047   0.00000  Uiso   1.00
N91    N     0.02354   0.47447   0.53414   0.00000  Uiso   1.00
N92    N     0.09773   0.84139   0.66350   0.00000  Uiso   1.00
C93    C     0.41246   0.88756   0.83868   0.00000  Uiso   1.00
C94    C     0.36247   0.93277   0.88825   0.00000  Uiso   1.00
C95    C     0.34300   0.02298   0.87603   0.00000  Uiso   1.00
C96    C     0.29669   0.05127   0.92787   0.00000  Uiso   1.00
C97    C     0.22300   0.13061   0.99546   0.00000  Uiso   1.00
C98    C     0.43136   0.91444   0.87071   0.00000  Uiso   1.00
C99    C     0.46982   0.98924   0.84373   0.00000  Uiso   1.00
C100   C     0.48151   0.00209   0.88081   0.00000  Uiso   1.00
C101   C     0.51480   0.05290   0.92113   0.00000  Uiso   1.00
C102   C     0.41091   0.73997   0.83506   0.00000  Uiso   1.00
C103   C     0.43218   0.66806   0.77811   0.00000  Uiso   1.00
C104   C     0.42665   0.53401   0.78517   0.00000  Uiso   1.00
C105   C     0.42819   0.31394   0.77015   0.00000  Uiso   1.00
C106   C     0.36482   0.77737   0.95248   0.00000  Uiso   1.00
C107   C     0.33659   0.87291   0.95006   0.00000  Uiso   1.00
C108   C     0.29029   0.90107   0.00194   0.00000  Uiso   1.00
C109   C     0.27076   0.99131   0.98980   0.00000  Uiso   1.00
C110   C     0.40549   0.85460   0.93252   0.00000  Uiso   1.00
C111   C     0.41712   0.86732   0.96964   0.00000  Uiso   1.00
C112   C     0.45558   0.94213   0.94273   0.00000  Uiso   1.00
C113   C     0.38503   0.68012   0.89687   0.00000  Uiso   1.00
C114   C     0.37947   0.54615   0.90402   0.00000  Uiso   1.00
C115   C     0.40073   0.47405   0.84709   0.00000  Uiso   1.00
H116   H     0.43261   0.93416   0.79055   0.00000  Uiso   1.00
H117   H     0.36304   0.06929   0.82819   0.00000  Uiso   1.00
H118   H     0.48984   0.03553   0.79590   0.00000  Uiso   1.00
H119   H     0.45220   0.71441   0.73029   0.00000  Uiso   1.00
H120   H     0.27450   0.19274   0.89718   0.00000  Uiso   1.00
H121   H     0.54189   0.12154   0.82908   0.00000  Uiso   1.00
H122   H     0.46252   0.44439   0.69072   0.00000  Uiso   1.00
H123   H     0.34468   0.73077   0.00060   0.00000  Uiso   1.00
H124   H     0.27028   0.85473   0.04977   0.00000  Uiso   1.00
H125   H     0.39709   0.82099   0.01747   0.00000  Uiso   1.00
H126   H     0.35945   0.49987   0.95186   0.00000  Uiso   1.00
H127   H     0.19921   0.01861   0.07702   0.00000  Uiso   1.00
H128   H     0.46660   0.94740   0.00891   0.00000  Uiso   1.00
H129   H     0.38723   0.27025   0.87056   0.00000  Uiso   1.00
O130   O     0.18951   0.19092   0.01566   0.00000  Uiso   1.00
O131   O     0.54031   0.09749   0.92630   0.00000  Uiso   1.00
O132   O     0.43618   0.20909   0.74479   0.00000  Uiso   1.00
N133   N     0.26699   0.13473   0.93276   0.00000  Uiso   1.00
N134   N     0.51698   0.06817   0.86909   0.00000  Uiso   1.00
N135   N     0.44278   0.43509   0.73973   0.00000  Uiso   1.00
N136   N     0.22648   0.04102   0.02953   0.00000  Uiso   1.00
N137   N     0.47646   0.97447   0.96586   0.00000  Uiso   1.00
N138   N     0.40227   0.34139   0.83650   0.00000  Uiso   1.00
C139   C     0.91246   0.38756   0.83868   0.00000  Uiso   1.00
C140   C     0.86247   0.43277   0.88825   0.00000  Uiso   1.00
C141   C     0.84300   0.52298   0.87603   0.00000  Uiso   1.00
C142   C     0.79669   0.55127   0.92787   0.00000  Uiso   1.00
C143   C     0.72300   0.63061   0.99546   0.00000  Uiso   1.00
C144   C     0.93136   0.41444   0.87071   0.00000  Uiso   1.00
C145   C     0.96982   0.48924   0.84373   0.00000  Uiso   1.00
C146   C     0.98151   0.50209   0.88081   0.00000  Uiso   1.00
C147   C     0.01480   0.55290   0.92113   0.00000  Uiso   1.00
C148   C     0.91091   0.23997   0.83506   0.00000  Uiso   1.00
C149   C     0.93218   0.16806   0.77811   0.00000  Uiso   1.00
C150   C     0.92665   0.03401   0.78517   0.00000  Uiso   1.00
C151   C     0.92819   0.81394   0.77015   0.00000  Uiso   1.00
C152   C     0.86482   0.27737   0.95248   0.00000  Uiso   1.00
C153   C     0.83659   0.37291   0.95006   0.00000  Uiso   1.00
C154   C     0.79029   0.40107   0.00194   0.00000  Uiso   1.00
C155   C     0.77076   0.49131   0.98980   0.00000  Uiso   1.00
C156   C     0.90549   0.35460   0.93252   0.00000  Uiso   1.00
C157   C     0.91712   0.36732   0.96964   0.00000  Uiso   1.00
C158   C     0.95558   0.44213   0.94273   0.00000  Uiso   1.00
C159   C     0.88503   0.18012   0.89687   0.00000  Uiso   1.00
C160   C     0.87947   0.04615   0.90402   0.00000  Uiso   1.00
C161   C     0.90073   0.97405   0.84709   0.00000  Uiso   1.00
H162   H     0.93261   0.43416   0.79055   0.00000  Uiso   1.00
H163   H     0.86304   0.56929   0.82819   0.00000  Uiso   1.00
H164   H     0.98984   0.53553   0.79590   0.00000  Uiso   1.00
H165   H     0.95220   0.21441   0.73029   0.00000  Uiso   1.00
H166   H     0.77450   0.69274   0.89718   0.00000  Uiso   1.00
H167   H     0.04189   0.62154   0.82908   0.00000  Uiso   1.00
H168   H     0.96252   0.94439   0.69072   0.00000  Uiso   1.00
H169   H     0.84468   0.23077   0.00060   0.00000  Uiso   1.00
H170   H     0.77028   0.35473   0.04977   0.00000  Uiso   1.00
H171   H     0.89709   0.32099   0.01747   0.00000  Uiso   1.00
H172   H     0.85945   0.99987   0.95186   0.00000  Uiso   1.00
H173   H     0.69921   0.51861   0.07702   0.00000  Uiso   1.00
H174   H     0.96660   0.44740   0.00891   0.00000  Uiso   1.00
H175   H     0.88723   0.77025   0.87056   0.00000  Uiso   1.00
O176   O     0.68951   0.69092   0.01566   0.00000  Uiso   1.00
O177   O     0.04031   0.59749   0.92630   0.00000  Uiso   1.00
O178   O     0.93618   0.70909   0.74479   0.00000  Uiso   1.00
N179   N     0.76699   0.63473   0.93276   0.00000  Uiso   1.00
N180   N     0.01698   0.56817   0.86909   0.00000  Uiso   1.00
N181   N     0.94278   0.93509   0.73973   0.00000  Uiso   1.00
N182   N     0.72648   0.54102   0.02953   0.00000  Uiso   1.00
N183   N     0.97646   0.47447   0.96586   0.00000  Uiso   1.00
N184   N     0.90227   0.84139   0.83650   0.00000  Uiso   1.00
C185   C     0.41246   0.11244   0.33868   0.00000  Uiso   1.00
C186   C     0.36247   0.06723   0.38825   0.00000  Uiso   1.00
C187   C     0.34300   0.97702   0.37603   0.00000  Uiso   1.00
C188   C     0.29669   0.94873   0.42787   0.00000  Uiso   1.00
C189   C     0.22300   0.86939   0.49546   0.00000  Uiso   1.00
C190   C     0.43136   0.08556   0.37071   0.00000  Uiso   1.00
C191   C     0.46982   0.01076   0.34373   0.00000  Uiso   1.00
C192   C     0.48151   0.99791   0.38081   0.00000  Uiso   1.00
C193   C     0.51480   0.94710   0.42113   0.00000  Uiso   1.00
C194   C     0.41091   0.26003   0.33506   0.00000  Uiso   1.00
C195   C     0.43218   0.33194   0.27811   0.00000  Uiso   1.00
C196   C     0.42665   0.46599   0.28517   0.00000  Uiso   1.00
C197   C     0.42819   0.68606   0.27015   0.00000  Uiso   1.00
C198   C     0.36482   0.22263   0.45248   0.00000  Uiso   1.00
C199   C     0.33659   0.12709   0.45006   0.00000  Uiso   1.00
C200   C     0.29029   0.09893   0.50194   0.00000  Uiso   1.00
C201   C     0.27076   0.00869   0.48980   0.00000  Uiso   1.00
C202   C     0.40549   0.14540   0.43252   0.00000  Uiso   1.00
C203   C     0.41712   0.13268   0.46964   0.00000  Uiso   1.00
C204   C     0.45558   0.05787   0.44273   0.00000  Uiso   1.00
C205   C     0.38503   0.31988   0.39687   0.00000  Uiso   1.00
C206   C     0.37947   0.45385   0.40402   0.00000  Uiso   1.00
C207   C     0.40073   0.52595   0.34709   0.00000  Uiso   1.00
H208   H     0.43261   0.06584   0.29055   0.00000  Uiso   1.00
H209   H     0.36304   0.93071   0.32819   0.00000  Uiso   1.00
H210   H     0.48984   0.96447   0.29590   0.00000  Uiso   1.00
H211   H     0.45220   0.28559   0.23029   0.00000  Uiso   1.00
H212   H     0.27450   0.80726   0.39718   0.00000  Uiso   1.00
H213   H     0.54189   0.87846   0.32908   0.00000  Uiso   1.00
H214   H     0.46252   0.55561   0.19072   0.00000  Uiso   1.00
H215   H     0.34468   0.26923   0.50060   0.00000  Uiso   1.00
H216   H     0.27028   0.14527   0.54977   0.00000  Uiso   1.00
H217   H     0.39709   0.17901   0.51747   0.00000  Uiso   1.00
H218   H     0.35945   0.50013   0.45186   0.00000  Uiso   1.00
H219   H     0.19921   0.98139   0.57702   0.00000  Uiso   1.00
H220   H     0.46660   0.05260   0.50891   0.00000  Uiso   1.00
H221   H     0.38723   0.72975   0.37056   0.00000  Uiso   1.00
O222   O     0.18951   0.80908   0.51566   0.00000  Uiso   1.00
O223   O     0.54031   0.90251   0.42630   0.00000  Uiso   1.00
O224   O     0.43618   0.79091   0.24479   0.00000  Uiso   1.00
N225   N     0.26699   0.86527   0.43276   0.00000  Uiso   1.00
N226   N     0.51698   0.93183   0.36909   0.00000  Uiso   1.00
N227   N     0.44278   0.56491   0.23973   0.00000  Uiso   1.00
N228   N     0.22648   0.95898   0.52953   0.00000  Uiso   1.00
N229   N     0.47646   0.02553   0.46586   0.00000  Uiso   1.00
N230   N     0.40227   0.65861   0.33650   0.00000  Uiso   1.00
C231   C     0.91246   0.61244   0.33868   0.00000  Uiso   1.00
C232   C     0.86247   0.56723   0.38825   0.00000  Uiso   1.00
C233   C     0.84300   0.47702   0.37603   0.00000  Uiso   1.00
C234   C     0.79669   0.44873   0.42787   0.00000  Uiso   1.00
C235   C     0.72300   0.36939   0.49546   0.00000  Uiso   1.00
C236   C     0.93136   0.58556   0.37071   0.00000  Uiso   1.00
C237   C     0.96982   0.51076   0.34373   0.00000  Uiso   1.00
C238   C     0.98151   0.49791   0.38081   0.00000  Uiso   1.00
C239   C     0.01480   0.44710   0.42113   0.00000  Uiso   1.00
C240   C     0.91091   0.76003   0.33506   0.00000  Uiso   1.00
C241   C     0.93218   0.83194   0.27811   0.00000  Uiso   1.00
C242   C     0.92665   0.96599   0.28517   0.00000  Uiso   1.00
C243   C     0.92819   0.18606   0.27015   0.00000  Uiso   1.00
C244   C     0.86482   0.72263   0.45248   0.00000  Uiso   1.00
C245   C     0.83659   0.62709   0.45006   0.00000  Uiso   1.00
C246   C     0.79029   0.59893   0.50194   0.00000  Uiso   1.00
C247   C     0.77076   0.50869   0.48980   0.00000  Uiso   1.00
C248   C     0.90549   0.64540   0.43252   0.00000  Uiso   1.00
C249   C     0.91712   0.63268   0.46964   0.00000  Uiso   1.00
C250   C     0.95558   0.55787   0.44273   0.00000  Uiso   1.00
C251   C     0.88503   0.81988   0.39687   0.00000  Uiso   1.00
C252   C     0.87947   0.95385   0.40402   0.00000  Uiso   1.00
C253   C     0.90073   0.02595   0.34709   0.00000  Uiso   1.00
H254   H     0.93261   0.56584   0.29055   0.00000  Uiso   1.00
H255   H     0.86304   0.43071   0.32819   0.00000  Uiso   1.00
H256   H     0.98984   0.46447   0.29590   0.00000  Uiso   1.00
H257   H     0.95220   0.78559   0.23029   0.00000  Uiso   1.00
H258   H     0.77450   0.30726   0.39718   0.00000  Uiso   1.00
H259   H     0.04189   0.37846   0.32908   0.00000  Uiso   1.00
H260   H     0.96252   0.05561   0.19072   0.00000  Uiso   1.00
H261   H     0.84468   0.76923   0.50060   0.00000  Uiso   1.00
H262   H     0.77028   0.64527   0.54977   0.00000  Uiso   1.00
H263   H     0.89709   0.67901   0.51747   0.00000  Uiso   1.00
H264   H     0.85945   0.00013   0.45186   0.00000  Uiso   1.00
H265   H     0.69921   0.48139   0.57702   0.00000  Uiso   1.00
H266   H     0.96660   0.55260   0.50891   0.00000  Uiso   1.00
H267   H     0.88723   0.22975   0.37056   0.00000  Uiso   1.00
O268   O     0.68951   0.30908   0.51566   0.00000  Uiso   1.00
O269   O     0.04031   0.40251   0.42630   0.00000  Uiso   1.00
O270   O     0.93618   0.29091   0.24479   0.00000  Uiso   1.00
N271   N     0.76699   0.36527   0.43276   0.00000  Uiso   1.00
N272   N     0.01698   0.43183   0.36909   0.00000  Uiso   1.00
N273   N     0.94278   0.06491   0.23973   0.00000  Uiso   1.00
N274   N     0.72648   0.45898   0.52953   0.00000  Uiso   1.00
N275   N     0.97646   0.52553   0.46586   0.00000  Uiso   1.00
N276   N     0.90227   0.15861   0.33650   0.00000  Uiso   1.00
C277   C     0.58754   0.11244   0.16132   0.00000  Uiso   1.00
C278   C     0.63753   0.06723   0.11175   0.00000  Uiso   1.00
C279   C     0.65700   0.97702   0.12397   0.00000  Uiso   1.00
C280   C     0.70331   0.94873   0.07213   0.00000  Uiso   1.00
C281   C     0.77700   0.86939   0.00454   0.00000  Uiso   1.00
C282   C     0.56864   0.08556   0.12929   0.00000  Uiso   1.00
C283   C     0.53018   0.01076   0.15627   0.00000  Uiso   1.00
C284   C     0.51849   0.99791   0.11919   0.00000  Uiso   1.00
C285   C     0.48520   0.94710   0.07887   0.00000  Uiso   1.00
C286   C     0.58909   0.26003   0.16494   0.00000  Uiso   1.00
C287   C     0.56782   0.33194   0.22189   0.00000  Uiso   1.00
C288   C     0.57335   0.46599   0.21483   0.00000  Uiso   1.00
C289   C     0.57181   0.68606   0.22985   0.00000  Uiso   1.00
C290   C     0.63518   0.22263   0.04752   0.00000  Uiso   1.00
C291   C     0.66341   0.12709   0.04994   0.00000  Uiso   1.00
C292   C     0.70971   0.09893   0.99806   0.00000  Uiso   1.00
C293   C     0.72924   0.00869   0.01020   0.00000  Uiso   1.00
C294   C     0.59451   0.14540   0.06748   0.00000  Uiso   1.00
C295   C     0.58288   0.13268   0.03036   0.00000  Uiso   1.00
C296   C     0.54442   0.05787   0.05727   0.00000  Uiso   1.00
C297   C     0.61497   0.31988   0.10313   0.00000  Uiso   1.00
C298   C     0.62053   0.45385   0.09598   0.00000  Uiso   1.00
C299   C     0.59927   0.52595   0.15291   0.00000  Uiso   1.00
H300   H     0.56739   0.06584   0.20945   0.00000  Uiso   1.00
H301   H     0.63696   0.93071   0.17181   0.00000  Uiso   1.00
H302   H     0.51016   0.96447   0.20410   0.00000  Uiso   1.00
H303   H     0.54780   0.28559   0.26971   0.00000  Uiso   1.00
H304   H     0.72550   0.80726   0.10282   0.00000  Uiso   1.00
H305   H     0.45811   0.87846   0.17092   0.00000  Uiso   1.00
H306   H     0.53748   0.55561   0.30928   0.00000  Uiso   1.00
H307   H     0.65532   0.26923   0.99940   0.00000  Uiso   1.00
H308   H     0.72972   0.14527   0.95023   0.00000  Uiso   1.00
H309   H     0.60291   0.17901   0.98253   0.00000  Uiso   1.00
H310   H     0.64055   0.50013   0.04814   0.00000  Uiso   1.00
H311   H     0.80079   0.98139   0.92298   0.00000  Uiso   1.00
H312   H     0.53340   0.05260   0.99109   0.00000  Uiso   1.00
H313   H     0.61277   0.72975   0.12944   0.00000  Uiso   1.00
O314   O     0.81049   0.80908   0.98434   0.00000  Uiso   1.00
O315   O     0.45969   0.90251   0.07370   0.00000  Uiso   1.00
O316   O     0.56382   0.79091   0.25521   0.00000  Uiso   1.00
N317   N     0.73301   0.86527   0.06724   0.00000  Uiso   1.00
N318   N     0.48302   0.93183   0.13091   0.00000  Uiso   1.00
N319   N     0.55722   0.56491   0.26027   0.00000  Uiso   1.00
N320   N     0.77352   0.95898   0.97047   0.00000  Uiso   1.00
N321   N     0.52354   0.02553   0.03414   0.00000  Uiso   1.00
N322   N     0.59773   0.65861   0.16350   0.00000  Uiso   1.00
C323   C     0.08754   0.61244   0.16132   0.00000  Uiso   1.00
C324   C     0.13753   0.56723   0.11175   0.00000  Uiso   1.00
C325   C     0.15700   0.47702   0.12397   0.00000  Uiso   1.00
C326   C     0.20331   0.44873   0.07213   0.00000  Uiso   1.00
C327   C     0.27700   0.36939   0.00454   0.00000  Uiso   1.00
C328   C     0.06864   0.58556   0.12929   0.00000  Uiso   1.00
C329   C     0.03018   0.51076   0.15627   0.00000  Uiso   1.00
C330   C     0.01849   0.49791   0.11919   0.00000  Uiso   1.00
C331   C     0.98520   0.44710   0.07887   0.00000  Uiso   1.00
C332   C     0.08909   0.76003   0.16494   0.00000  Uiso   1.00
C333   C     0.06782   0.83194   0.22189   0.00000  Uiso   1.00
C334   C     0.07335   0.96599   0.21483   0.00000  Uiso   1.00
C335   C     0.07181   0.18606   0.22985   0.00000  Uiso   1.00
C336   C     0.13518   0.72263   0.04752   0.00000  Uiso   1.00
C337   C     0.16341   0.62709   0.04994   0.00000  Uiso   1.00
C338   C     0.20971   0.59893   0.99806   0.00000  Uiso   1.00
C339   C     0.22924   0.50869   0.01020   0.00000  Uiso   1.00
C340   C     0.09451   0.64540   0.06748   0.00000  Uiso   1.00
C341   C     0.08288   0.63268   0.03036   0.00000  Uiso   1.00
C342   C     0.04442   0.55787   0.05727   0.00000  Uiso   1.00
C343   C     0.11497   0.81988   0.10313   0.00000  Uiso   1.00
C344   C     0.12053   0.95385   0.09598   0.00000  Uiso   1.00
C345   C     0.09927   0.02595   0.15291   0.00000  Uiso   1.00
H346   H     0.06739   0.56584   0.20945   0.00000  Uiso   1.00
H347   H     0.13696   0.43071   0.17181   0.00000  Uiso   1.00
H348   H     0.01016   0.46447   0.20410   0.00000  Uiso   1.00
H349   H     0.04780   0.78559   0.26971   0.00000  Uiso   1.00
H350   H     0.22550   0.30726   0.10282   0.00000  Uiso   1.00
H351   H     0.95811   0.37846   0.17092   0.00000  Uiso   1.00
H352   H     0.03748   0.05561   0.30928   0.00000  Uiso   1.00
H353   H     0.15532   0.76923   0.99940   0.00000  Uiso   1.00
H354   H     0.22972   0.64527   0.95023   0.00000  Uiso   1.00
H355   H     0.10291   0.67901   0.98253   0.00000  Uiso   1.00
H356   H     0.14055   0.00013   0.04814   0.00000  Uiso   1.00
H357   H     0.30079   0.48139   0.92298   0.00000  Uiso   1.00
H358   H     0.03340   0.55260   0.99109   0.00000  Uiso   1.00
H359   H     0.11277   0.22975   0.12944   0.00000  Uiso   1.00
O360   O     0.31049   0.30908   0.98434   0.00000  Uiso   1.00
O361   O     0.95969   0.40251   0.07370   0.00000  Uiso   1.00
O362   O     0.06382   0.29091   0.25521   0.00000  Uiso   1.00
N363   N     0.23301   0.36527   0.06724   0.00000  Uiso   1.00
N364   N     0.98302   0.43183   0.13091   0.00000  Uiso   1.00
N365   N     0.05722   0.06491   0.26027   0.00000  Uiso   1.00
N366   N     0.27352   0.45898   0.97047   0.00000  Uiso   1.00
N367   N     0.02354   0.52553   0.03414   0.00000  Uiso   1.00
N368   N     0.09773   0.15861   0.16350   0.00000  Uiso   1.00
