data_job_02982
_audit_creation_date              2018-12-19
_audit_creation_method            'Materials Studio'
_symmetry_space_group_name_H-M    'P1'
_symmetry_Int_Tables_number       1
_symmetry_cell_setting            triclinic
loop_
_symmetry_equiv_pos_as_xyz
  x,y,z
_cell_length_a                    22.8964
_cell_length_b                    11.7732
_cell_length_c                    25.9607
_cell_angle_alpha                 90.0000
_cell_angle_beta                  90.0000
_cell_angle_gamma                 90.0000
loop_
_atom_site_label
_atom_site_type_symbol
_atom_site_fract_x
_atom_site_fract_y
_atom_site_fract_z
_atom_site_U_iso_or_equiv
_atom_site_adp_type
_atom_site_occupancy
C1     C     0.38395   0.23090   0.65325   0.00000  Uiso   1.00
C2     C     0.39712   0.35742   0.64846   0.00000  Uiso   1.00
C3     C     0.40221   0.43338   0.68909   0.00000  Uiso   1.00
C4     C     0.41441   0.54560   0.67668   0.00000  Uiso   1.00
C5     C     0.43379   0.73677   0.67703   0.00000  Uiso   1.00
C6     C     0.32957   0.20969   0.62073   0.00000  Uiso   1.00
C7     C     0.27788   0.16142   0.63804   0.00000  Uiso   1.00
C8     C     0.23322   0.14927   0.60229   0.00000  Uiso   1.00
C9     C     0.14774   0.11100   0.55957   0.00000  Uiso   1.00
C10    C     0.43379   0.16961   0.62595   0.00000  Uiso   1.00
C11    C     0.46971   0.08761   0.64766   0.00000  Uiso   1.00
C12    C     0.51279   0.04169   0.61629   0.00000  Uiso   1.00
C13    C     0.58913   0.94119   0.58169   0.00000  Uiso   1.00
C14    C     0.39656   0.29515   0.55896   0.00000  Uiso   1.00
C15    C     0.40396   0.39232   0.59724   0.00000  Uiso   1.00
C16    C     0.41616   0.50446   0.58477   0.00000  Uiso   1.00
C17    C     0.42127   0.58057   0.62538   0.00000  Uiso   1.00
C18    C     0.33642   0.24459   0.56951   0.00000  Uiso   1.00
C19    C     0.29183   0.23250   0.53372   0.00000  Uiso   1.00
C20    C     0.24007   0.18423   0.55098   0.00000  Uiso   1.00
C21    C     0.44064   0.20451   0.57474   0.00000  Uiso   1.00
C22    C     0.48366   0.15870   0.54333   0.00000  Uiso   1.00
C23    C     0.51965   0.07665   0.56499   0.00000  Uiso   1.00
H24    H     0.37861   0.20372   0.69312   0.00000  Uiso   1.00
H25    H     0.39690   0.40634   0.72872   0.00000  Uiso   1.00
H26    H     0.27259   0.13441   0.67768   0.00000  Uiso   1.00
H27    H     0.46440   0.06062   0.68729   0.00000  Uiso   1.00
H28    H     0.42018   0.64637   0.74560   0.00000  Uiso   1.00
H29    H     0.15807   0.07296   0.63797   0.00000  Uiso   1.00
H30    H     0.56253   0.91736   0.65824   0.00000  Uiso   1.00
H31    H     0.40189   0.32231   0.51909   0.00000  Uiso   1.00
H32    H     0.42146   0.53144   0.54513   0.00000  Uiso   1.00
H33    H     0.29714   0.25951   0.49409   0.00000  Uiso   1.00
H34    H     0.48895   0.18572   0.50370   0.00000  Uiso   1.00
H35    H     0.44011   0.74791   0.59659   0.00000  Uiso   1.00
H36    H     0.17799   0.17449   0.48896   0.00000  Uiso   1.00
H37    H     0.58246   0.01890   0.50923   0.00000  Uiso   1.00
O38    O     0.44258   0.83258   0.69137   0.00000  Uiso   1.00
O39    O     0.09870   0.08026   0.55016   0.00000  Uiso   1.00
O40    O     0.62935   0.87613   0.57675   0.00000  Uiso   1.00
N41    N     0.42220   0.64156   0.70696   0.00000  Uiso   1.00
N42    N     0.17713   0.10547   0.60633   0.00000  Uiso   1.00
N43    N     0.55526   0.95998   0.62528   0.00000  Uiso   1.00
N44    N     0.43292   0.69620   0.62678   0.00000  Uiso   1.00
N45    N     0.18785   0.16011   0.52615   0.00000  Uiso   1.00
N46    N     0.56599   0.01462   0.54510   0.00000  Uiso   1.00
C47    C     0.11605   0.76910   0.65325   0.00000  Uiso   1.00
C48    C     0.10288   0.64258   0.64846   0.00000  Uiso   1.00
C49    C     0.09779   0.56662   0.68909   0.00000  Uiso   1.00
C50    C     0.08559   0.45440   0.67668   0.00000  Uiso   1.00
C51    C     0.06621   0.26323   0.67703   0.00000  Uiso   1.00
C52    C     0.17043   0.79031   0.62073   0.00000  Uiso   1.00
C53    C     0.22212   0.83858   0.63804   0.00000  Uiso   1.00
C54    C     0.26678   0.85073   0.60229   0.00000  Uiso   1.00
C55    C     0.35226   0.88900   0.55957   0.00000  Uiso   1.00
C56    C     0.06621   0.83039   0.62595   0.00000  Uiso   1.00
C57    C     0.03029   0.91239   0.64766   0.00000  Uiso   1.00
C58    C     0.98721   0.95831   0.61629   0.00000  Uiso   1.00
C59    C     0.91087   0.05881   0.58169   0.00000  Uiso   1.00
C60    C     0.10344   0.70485   0.55896   0.00000  Uiso   1.00
C61    C     0.09604   0.60768   0.59724   0.00000  Uiso   1.00
C62    C     0.08384   0.49554   0.58477   0.00000  Uiso   1.00
C63    C     0.07873   0.41943   0.62538   0.00000  Uiso   1.00
C64    C     0.16358   0.75541   0.56951   0.00000  Uiso   1.00
C65    C     0.20817   0.76750   0.53372   0.00000  Uiso   1.00
C66    C     0.25993   0.81577   0.55098   0.00000  Uiso   1.00
C67    C     0.05936   0.79549   0.57474   0.00000  Uiso   1.00
C68    C     0.01634   0.84130   0.54333   0.00000  Uiso   1.00
C69    C     0.98035   0.92335   0.56499   0.00000  Uiso   1.00
H70    H     0.12139   0.79628   0.69312   0.00000  Uiso   1.00
H71    H     0.10310   0.59366   0.72872   0.00000  Uiso   1.00
H72    H     0.22741   0.86559   0.67768   0.00000  Uiso   1.00
H73    H     0.03560   0.93938   0.68729   0.00000  Uiso   1.00
H74    H     0.07982   0.35363   0.74560   0.00000  Uiso   1.00
H75    H     0.34193   0.92704   0.63797   0.00000  Uiso   1.00
H76    H     0.93747   0.08264   0.65824   0.00000  Uiso   1.00
H77    H     0.09811   0.67769   0.51909   0.00000  Uiso   1.00
H78    H     0.07854   0.46856   0.54513   0.00000  Uiso   1.00
H79    H     0.20286   0.74049   0.49409   0.00000  Uiso   1.00
H80    H     0.01105   0.81428   0.50370   0.00000  Uiso   1.00
H81    H     0.05989   0.25209   0.59659   0.00000  Uiso   1.00
H82    H     0.32201   0.82551   0.48896   0.00000  Uiso   1.00
H83    H     0.91754   0.98110   0.50923   0.00000  Uiso   1.00
O84    O     0.05742   0.16742   0.69137   0.00000  Uiso   1.00
O85    O     0.40130   0.91974   0.55016   0.00000  Uiso   1.00
O86    O     0.87065   0.12387   0.57675   0.00000  Uiso   1.00
N87    N     0.07780   0.35844   0.70696   0.00000  Uiso   1.00
N88    N     0.32287   0.89453   0.60633   0.00000  Uiso   1.00
N89    N     0.94474   0.04002   0.62528   0.00000  Uiso   1.00
N90    N     0.06708   0.30380   0.62678   0.00000  Uiso   1.00
N91    N     0.31215   0.83989   0.52615   0.00000  Uiso   1.00
N92    N     0.93401   0.98538   0.54510   0.00000  Uiso   1.00
C93    C     0.11605   0.73090   0.84675   0.00000  Uiso   1.00
C94    C     0.10288   0.85742   0.85154   0.00000  Uiso   1.00
C95    C     0.09779   0.93338   0.81091   0.00000  Uiso   1.00
C96    C     0.08559   0.04560   0.82332   0.00000  Uiso   1.00
C97    C     0.06621   0.23677   0.82297   0.00000  Uiso   1.00
C98    C     0.17043   0.70969   0.87927   0.00000  Uiso   1.00
C99    C     0.22212   0.66142   0.86196   0.00000  Uiso   1.00
C100   C     0.26678   0.64927   0.89771   0.00000  Uiso   1.00
C101   C     0.35226   0.61100   0.94043   0.00000  Uiso   1.00
C102   C     0.06621   0.66961   0.87405   0.00000  Uiso   1.00
C103   C     0.03029   0.58761   0.85234   0.00000  Uiso   1.00
C104   C     0.98721   0.54169   0.88371   0.00000  Uiso   1.00
C105   C     0.91087   0.44119   0.91831   0.00000  Uiso   1.00
C106   C     0.10344   0.79515   0.94104   0.00000  Uiso   1.00
C107   C     0.09604   0.89232   0.90276   0.00000  Uiso   1.00
C108   C     0.08384   0.00446   0.91523   0.00000  Uiso   1.00
C109   C     0.07873   0.08057   0.87462   0.00000  Uiso   1.00
C110   C     0.16358   0.74459   0.93049   0.00000  Uiso   1.00
C111   C     0.20817   0.73250   0.96628   0.00000  Uiso   1.00
C112   C     0.25993   0.68423   0.94902   0.00000  Uiso   1.00
C113   C     0.05936   0.70451   0.92526   0.00000  Uiso   1.00
C114   C     0.01634   0.65870   0.95667   0.00000  Uiso   1.00
C115   C     0.98035   0.57665   0.93501   0.00000  Uiso   1.00
H116   H     0.12139   0.70372   0.80688   0.00000  Uiso   1.00
H117   H     0.10310   0.90634   0.77128   0.00000  Uiso   1.00
H118   H     0.22741   0.63441   0.82232   0.00000  Uiso   1.00
H119   H     0.03560   0.56062   0.81271   0.00000  Uiso   1.00
H120   H     0.07982   0.14637   0.75440   0.00000  Uiso   1.00
H121   H     0.34193   0.57296   0.86203   0.00000  Uiso   1.00
H122   H     0.93747   0.41736   0.84176   0.00000  Uiso   1.00
H123   H     0.09811   0.82231   0.98091   0.00000  Uiso   1.00
H124   H     0.07854   0.03144   0.95487   0.00000  Uiso   1.00
H125   H     0.20286   0.75951   0.00591   0.00000  Uiso   1.00
H126   H     0.01105   0.68572   0.99630   0.00000  Uiso   1.00
H127   H     0.05989   0.24791   0.90341   0.00000  Uiso   1.00
H128   H     0.32201   0.67449   0.01104   0.00000  Uiso   1.00
H129   H     0.91754   0.51890   0.99077   0.00000  Uiso   1.00
O130   O     0.05742   0.33258   0.80863   0.00000  Uiso   1.00
O131   O     0.40130   0.58026   0.94984   0.00000  Uiso   1.00
O132   O     0.87065   0.37613   0.92325   0.00000  Uiso   1.00
N133   N     0.07780   0.14156   0.79304   0.00000  Uiso   1.00
N134   N     0.32287   0.60547   0.89367   0.00000  Uiso   1.00
N135   N     0.94474   0.45998   0.87472   0.00000  Uiso   1.00
N136   N     0.06708   0.19620   0.87322   0.00000  Uiso   1.00
N137   N     0.31215   0.66011   0.97385   0.00000  Uiso   1.00
N138   N     0.93401   0.51462   0.95490   0.00000  Uiso   1.00
C139   C     0.38395   0.26910   0.84675   0.00000  Uiso   1.00
C140   C     0.39712   0.14258   0.85154   0.00000  Uiso   1.00
C141   C     0.40221   0.06662   0.81091   0.00000  Uiso   1.00
C142   C     0.41441   0.95440   0.82332   0.00000  Uiso   1.00
C143   C     0.43379   0.76323   0.82297   0.00000  Uiso   1.00
C144   C     0.32957   0.29031   0.87927   0.00000  Uiso   1.00
C145   C     0.27788   0.33858   0.86196   0.00000  Uiso   1.00
C146   C     0.23322   0.35073   0.89771   0.00000  Uiso   1.00
C147   C     0.14774   0.38900   0.94043   0.00000  Uiso   1.00
C148   C     0.43379   0.33039   0.87405   0.00000  Uiso   1.00
C149   C     0.46971   0.41239   0.85234   0.00000  Uiso   1.00
C150   C     0.51279   0.45831   0.88371   0.00000  Uiso   1.00
C151   C     0.58913   0.55881   0.91831   0.00000  Uiso   1.00
C152   C     0.39656   0.20485   0.94104   0.00000  Uiso   1.00
C153   C     0.40396   0.10768   0.90276   0.00000  Uiso   1.00
C154   C     0.41616   0.99554   0.91523   0.00000  Uiso   1.00
C155   C     0.42127   0.91943   0.87462   0.00000  Uiso   1.00
C156   C     0.33642   0.25541   0.93049   0.00000  Uiso   1.00
C157   C     0.29183   0.26750   0.96628   0.00000  Uiso   1.00
C158   C     0.24007   0.31577   0.94902   0.00000  Uiso   1.00
C159   C     0.44064   0.29549   0.92526   0.00000  Uiso   1.00
C160   C     0.48366   0.34130   0.95667   0.00000  Uiso   1.00
C161   C     0.51965   0.42335   0.93501   0.00000  Uiso   1.00
H162   H     0.37861   0.29628   0.80688   0.00000  Uiso   1.00
H163   H     0.39690   0.09366   0.77128   0.00000  Uiso   1.00
H164   H     0.27259   0.36559   0.82232   0.00000  Uiso   1.00
H165   H     0.46440   0.43938   0.81271   0.00000  Uiso   1.00
H166   H     0.42018   0.85363   0.75440   0.00000  Uiso   1.00
H167   H     0.15807   0.42704   0.86203   0.00000  Uiso   1.00
H168   H     0.56253   0.58264   0.84176   0.00000  Uiso   1.00
H169   H     0.40189   0.17769   0.98091   0.00000  Uiso   1.00
H170   H     0.42146   0.96856   0.95487   0.00000  Uiso   1.00
H171   H     0.29714   0.24049   0.00591   0.00000  Uiso   1.00
H172   H     0.48895   0.31428   0.99630   0.00000  Uiso   1.00
H173   H     0.44011   0.75209   0.90341   0.00000  Uiso   1.00
H174   H     0.17799   0.32551   0.01104   0.00000  Uiso   1.00
H175   H     0.58246   0.48110   0.99077   0.00000  Uiso   1.00
O176   O     0.44258   0.66742   0.80863   0.00000  Uiso   1.00
O177   O     0.09870   0.41974   0.94984   0.00000  Uiso   1.00
O178   O     0.62935   0.62387   0.92325   0.00000  Uiso   1.00
N179   N     0.42220   0.85844   0.79304   0.00000  Uiso   1.00
N180   N     0.17713   0.39453   0.89367   0.00000  Uiso   1.00
N181   N     0.55526   0.54002   0.87472   0.00000  Uiso   1.00
N182   N     0.43292   0.80380   0.87322   0.00000  Uiso   1.00
N183   N     0.18785   0.33989   0.97385   0.00000  Uiso   1.00
N184   N     0.56599   0.48538   0.95490   0.00000  Uiso   1.00
C185   C     0.61605   0.76910   0.34675   0.00000  Uiso   1.00
C186   C     0.60288   0.64258   0.35154   0.00000  Uiso   1.00
C187   C     0.59779   0.56662   0.31091   0.00000  Uiso   1.00
C188   C     0.58559   0.45440   0.32332   0.00000  Uiso   1.00
C189   C     0.56621   0.26323   0.32297   0.00000  Uiso   1.00
C190   C     0.67043   0.79031   0.37927   0.00000  Uiso   1.00
C191   C     0.72212   0.83858   0.36196   0.00000  Uiso   1.00
C192   C     0.76678   0.85073   0.39771   0.00000  Uiso   1.00
C193   C     0.85226   0.88900   0.44043   0.00000  Uiso   1.00
C194   C     0.56621   0.83039   0.37405   0.00000  Uiso   1.00
C195   C     0.53029   0.91239   0.35234   0.00000  Uiso   1.00
C196   C     0.48721   0.95831   0.38371   0.00000  Uiso   1.00
C197   C     0.41087   0.05881   0.41831   0.00000  Uiso   1.00
C198   C     0.60344   0.70485   0.44104   0.00000  Uiso   1.00
C199   C     0.59604   0.60768   0.40276   0.00000  Uiso   1.00
C200   C     0.58384   0.49554   0.41523   0.00000  Uiso   1.00
C201   C     0.57873   0.41943   0.37462   0.00000  Uiso   1.00
C202   C     0.66358   0.75541   0.43049   0.00000  Uiso   1.00
C203   C     0.70817   0.76750   0.46628   0.00000  Uiso   1.00
C204   C     0.75993   0.81577   0.44902   0.00000  Uiso   1.00
C205   C     0.55936   0.79549   0.42526   0.00000  Uiso   1.00
C206   C     0.51634   0.84130   0.45667   0.00000  Uiso   1.00
C207   C     0.48035   0.92335   0.43501   0.00000  Uiso   1.00
H208   H     0.62139   0.79628   0.30688   0.00000  Uiso   1.00
H209   H     0.60310   0.59366   0.27128   0.00000  Uiso   1.00
H210   H     0.72741   0.86559   0.32232   0.00000  Uiso   1.00
H211   H     0.53560   0.93938   0.31271   0.00000  Uiso   1.00
H212   H     0.57982   0.35363   0.25440   0.00000  Uiso   1.00
H213   H     0.84193   0.92704   0.36203   0.00000  Uiso   1.00
H214   H     0.43747   0.08264   0.34176   0.00000  Uiso   1.00
H215   H     0.59811   0.67769   0.48091   0.00000  Uiso   1.00
H216   H     0.57854   0.46856   0.45487   0.00000  Uiso   1.00
H217   H     0.70286   0.74049   0.50591   0.00000  Uiso   1.00
H218   H     0.51105   0.81428   0.49630   0.00000  Uiso   1.00
H219   H     0.55989   0.25209   0.40341   0.00000  Uiso   1.00
H220   H     0.82201   0.82551   0.51104   0.00000  Uiso   1.00
H221   H     0.41754   0.98110   0.49077   0.00000  Uiso   1.00
O222   O     0.55742   0.16742   0.30863   0.00000  Uiso   1.00
O223   O     0.90130   0.91974   0.44984   0.00000  Uiso   1.00
O224   O     0.37065   0.12387   0.42325   0.00000  Uiso   1.00
N225   N     0.57780   0.35844   0.29304   0.00000  Uiso   1.00
N226   N     0.82287   0.89453   0.39367   0.00000  Uiso   1.00
N227   N     0.44474   0.04002   0.37472   0.00000  Uiso   1.00
N228   N     0.56708   0.30380   0.37322   0.00000  Uiso   1.00
N229   N     0.81215   0.83989   0.47385   0.00000  Uiso   1.00
N230   N     0.43401   0.98538   0.45490   0.00000  Uiso   1.00
C231   C     0.88395   0.23090   0.34675   0.00000  Uiso   1.00
C232   C     0.89712   0.35742   0.35154   0.00000  Uiso   1.00
C233   C     0.90221   0.43338   0.31091   0.00000  Uiso   1.00
C234   C     0.91441   0.54560   0.32332   0.00000  Uiso   1.00
C235   C     0.93379   0.73677   0.32297   0.00000  Uiso   1.00
C236   C     0.82957   0.20969   0.37927   0.00000  Uiso   1.00
C237   C     0.77788   0.16142   0.36196   0.00000  Uiso   1.00
C238   C     0.73322   0.14927   0.39771   0.00000  Uiso   1.00
C239   C     0.64774   0.11100   0.44043   0.00000  Uiso   1.00
C240   C     0.93379   0.16961   0.37405   0.00000  Uiso   1.00
C241   C     0.96971   0.08761   0.35234   0.00000  Uiso   1.00
C242   C     0.01279   0.04169   0.38371   0.00000  Uiso   1.00
C243   C     0.08913   0.94119   0.41831   0.00000  Uiso   1.00
C244   C     0.89656   0.29515   0.44104   0.00000  Uiso   1.00
C245   C     0.90396   0.39232   0.40276   0.00000  Uiso   1.00
C246   C     0.91616   0.50446   0.41523   0.00000  Uiso   1.00
C247   C     0.92127   0.58057   0.37462   0.00000  Uiso   1.00
C248   C     0.83642   0.24459   0.43049   0.00000  Uiso   1.00
C249   C     0.79183   0.23250   0.46628   0.00000  Uiso   1.00
C250   C     0.74007   0.18423   0.44902   0.00000  Uiso   1.00
C251   C     0.94064   0.20451   0.42526   0.00000  Uiso   1.00
C252   C     0.98366   0.15870   0.45667   0.00000  Uiso   1.00
C253   C     0.01965   0.07665   0.43501   0.00000  Uiso   1.00
H254   H     0.87861   0.20372   0.30688   0.00000  Uiso   1.00
H255   H     0.89690   0.40634   0.27128   0.00000  Uiso   1.00
H256   H     0.77259   0.13441   0.32232   0.00000  Uiso   1.00
H257   H     0.96440   0.06062   0.31271   0.00000  Uiso   1.00
H258   H     0.92018   0.64637   0.25440   0.00000  Uiso   1.00
H259   H     0.65807   0.07296   0.36203   0.00000  Uiso   1.00
H260   H     0.06253   0.91736   0.34176   0.00000  Uiso   1.00
H261   H     0.90189   0.32231   0.48091   0.00000  Uiso   1.00
H262   H     0.92146   0.53144   0.45487   0.00000  Uiso   1.00
H263   H     0.79714   0.25951   0.50591   0.00000  Uiso   1.00
H264   H     0.98895   0.18572   0.49630   0.00000  Uiso   1.00
H265   H     0.94011   0.74791   0.40341   0.00000  Uiso   1.00
H266   H     0.67799   0.17449   0.51104   0.00000  Uiso   1.00
H267   H     0.08246   0.01890   0.49077   0.00000  Uiso   1.00
O268   O     0.94258   0.83258   0.30863   0.00000  Uiso   1.00
O269   O     0.59870   0.08026   0.44984   0.00000  Uiso   1.00
O270   O     0.12935   0.87613   0.42325   0.00000  Uiso   1.00
N271   N     0.92220   0.64156   0.29304   0.00000  Uiso   1.00
N272   N     0.67713   0.10547   0.39367   0.00000  Uiso   1.00
N273   N     0.05526   0.95998   0.37472   0.00000  Uiso   1.00
N274   N     0.93292   0.69620   0.37322   0.00000  Uiso   1.00
N275   N     0.68785   0.16011   0.47385   0.00000  Uiso   1.00
N276   N     0.06599   0.01462   0.45490   0.00000  Uiso   1.00
C277   C     0.88395   0.26910   0.15325   0.00000  Uiso   1.00
C278   C     0.89712   0.14258   0.14846   0.00000  Uiso   1.00
C279   C     0.90221   0.06662   0.18909   0.00000  Uiso   1.00
C280   C     0.91441   0.95440   0.17668   0.00000  Uiso   1.00
C281   C     0.93379   0.76323   0.17703   0.00000  Uiso   1.00
C282   C     0.82957   0.29031   0.12073   0.00000  Uiso   1.00
C283   C     0.77788   0.33858   0.13804   0.00000  Uiso   1.00
C284   C     0.73322   0.35073   0.10229   0.00000  Uiso   1.00
C285   C     0.64774   0.38900   0.05957   0.00000  Uiso   1.00
C286   C     0.93379   0.33039   0.12595   0.00000  Uiso   1.00
C287   C     0.96971   0.41239   0.14766   0.00000  Uiso   1.00
C288   C     0.01279   0.45831   0.11629   0.00000  Uiso   1.00
C289   C     0.08913   0.55881   0.08169   0.00000  Uiso   1.00
C290   C     0.89656   0.20485   0.05896   0.00000  Uiso   1.00
C291   C     0.90396   0.10768   0.09724   0.00000  Uiso   1.00
C292   C     0.91616   0.99554   0.08477   0.00000  Uiso   1.00
C293   C     0.92127   0.91943   0.12538   0.00000  Uiso   1.00
C294   C     0.83642   0.25541   0.06951   0.00000  Uiso   1.00
C295   C     0.79183   0.26750   0.03372   0.00000  Uiso   1.00
C296   C     0.74007   0.31577   0.05098   0.00000  Uiso   1.00
C297   C     0.94064   0.29549   0.07474   0.00000  Uiso   1.00
C298   C     0.98366   0.34130   0.04333   0.00000  Uiso   1.00
C299   C     0.01965   0.42335   0.06499   0.00000  Uiso   1.00
H300   H     0.87861   0.29628   0.19312   0.00000  Uiso   1.00
H301   H     0.89690   0.09366   0.22872   0.00000  Uiso   1.00
H302   H     0.77259   0.36559   0.17768   0.00000  Uiso   1.00
H303   H     0.96440   0.43938   0.18729   0.00000  Uiso   1.00
H304   H     0.92018   0.85363   0.24560   0.00000  Uiso   1.00
H305   H     0.65807   0.42704   0.13797   0.00000  Uiso   1.00
H306   H     0.06253   0.58264   0.15824   0.00000  Uiso   1.00
H307   H     0.90189   0.17769   0.01909   0.00000  Uiso   1.00
H308   H     0.92146   0.96856   0.04513   0.00000  Uiso   1.00
H309   H     0.79714   0.24049   0.99409   0.00000  Uiso   1.00
H310   H     0.98895   0.31428   0.00370   0.00000  Uiso   1.00
H311   H     0.94011   0.75209   0.09659   0.00000  Uiso   1.00
H312   H     0.67799   0.32551   0.98896   0.00000  Uiso   1.00
H313   H     0.08246   0.48110   0.00923   0.00000  Uiso   1.00
O314   O     0.94258   0.66742   0.19137   0.00000  Uiso   1.00
O315   O     0.59870   0.41974   0.05016   0.00000  Uiso   1.00
O316   O     0.12935   0.62387   0.07675   0.00000  Uiso   1.00
N317   N     0.92220   0.85844   0.20696   0.00000  Uiso   1.00
N318   N     0.67713   0.39453   0.10633   0.00000  Uiso   1.00
N319   N     0.05526   0.54002   0.12528   0.00000  Uiso   1.00
N320   N     0.93292   0.80380   0.12678   0.00000  Uiso   1.00
N321   N     0.68785   0.33989   0.02615   0.00000  Uiso   1.00
N322   N     0.06599   0.48538   0.04510   0.00000  Uiso   1.00
C323   C     0.61605   0.73090   0.15325   0.00000  Uiso   1.00
C324   C     0.60288   0.85742   0.14846   0.00000  Uiso   1.00
C325   C     0.59779   0.93338   0.18909   0.00000  Uiso   1.00
C326   C     0.58559   0.04560   0.17668   0.00000  Uiso   1.00
C327   C     0.56621   0.23677   0.17703   0.00000  Uiso   1.00
C328   C     0.67043   0.70969   0.12073   0.00000  Uiso   1.00
C329   C     0.72212   0.66142   0.13804   0.00000  Uiso   1.00
C330   C     0.76678   0.64927   0.10229   0.00000  Uiso   1.00
C331   C     0.85226   0.61100   0.05957   0.00000  Uiso   1.00
C332   C     0.56621   0.66961   0.12595   0.00000  Uiso   1.00
C333   C     0.53029   0.58761   0.14766   0.00000  Uiso   1.00
C334   C     0.48721   0.54169   0.11629   0.00000  Uiso   1.00
C335   C     0.41087   0.44119   0.08169   0.00000  Uiso   1.00
C336   C     0.60344   0.79515   0.05896   0.00000  Uiso   1.00
C337   C     0.59604   0.89232   0.09724   0.00000  Uiso   1.00
C338   C     0.58384   0.00446   0.08477   0.00000  Uiso   1.00
C339   C     0.57873   0.08057   0.12538   0.00000  Uiso   1.00
C340   C     0.66358   0.74459   0.06951   0.00000  Uiso   1.00
C341   C     0.70817   0.73250   0.03372   0.00000  Uiso   1.00
C342   C     0.75993   0.68423   0.05098   0.00000  Uiso   1.00
C343   C     0.55936   0.70451   0.07474   0.00000  Uiso   1.00
C344   C     0.51634   0.65870   0.04333   0.00000  Uiso   1.00
C345   C     0.48035   0.57665   0.06499   0.00000  Uiso   1.00
H346   H     0.62139   0.70372   0.19312   0.00000  Uiso   1.00
H347   H     0.60310   0.90634   0.22872   0.00000  Uiso   1.00
H348   H     0.72741   0.63441   0.17768   0.00000  Uiso   1.00
H349   H     0.53560   0.56062   0.18729   0.00000  Uiso   1.00
H350   H     0.57982   0.14637   0.24560   0.00000  Uiso   1.00
H351   H     0.84193   0.57296   0.13797   0.00000  Uiso   1.00
H352   H     0.43747   0.41736   0.15824   0.00000  Uiso   1.00
H353   H     0.59811   0.82231   0.01909   0.00000  Uiso   1.00
H354   H     0.57854   0.03144   0.04513   0.00000  Uiso   1.00
H355   H     0.70286   0.75951   0.99409   0.00000  Uiso   1.00
H356   H     0.51105   0.68572   0.00370   0.00000  Uiso   1.00
H357   H     0.55989   0.24791   0.09659   0.00000  Uiso   1.00
H358   H     0.82201   0.67449   0.98896   0.00000  Uiso   1.00
H359   H     0.41754   0.51890   0.00923   0.00000  Uiso   1.00
O360   O     0.55742   0.33258   0.19137   0.00000  Uiso   1.00
O361   O     0.90130   0.58026   0.05016   0.00000  Uiso   1.00
O362   O     0.37065   0.37613   0.07675   0.00000  Uiso   1.00
N363   N     0.57780   0.14156   0.20696   0.00000  Uiso   1.00
N364   N     0.82287   0.60547   0.10633   0.00000  Uiso   1.00
N365   N     0.44474   0.45998   0.12528   0.00000  Uiso   1.00
N366   N     0.56708   0.19620   0.12678   0.00000  Uiso   1.00
N367   N     0.81215   0.66011   0.02615   0.00000  Uiso   1.00
N368   N     0.43401   0.51462   0.04510   0.00000  Uiso   1.00
