data_job_03606
_audit_creation_date              2018-12-19
_audit_creation_method            'Materials Studio'
_symmetry_space_group_name_H-M    'P1'
_symmetry_Int_Tables_number       1
_symmetry_cell_setting            triclinic
loop_
_symmetry_equiv_pos_as_xyz
  x,y,z
_cell_length_a                    18.0598
_cell_length_b                    23.3425
_cell_length_c                    13.2024
_cell_angle_alpha                 90.0000
_cell_angle_beta                  138.5370
_cell_angle_gamma                 90.0000
loop_
_atom_site_label
_atom_site_type_symbol
_atom_site_fract_x
_atom_site_fract_y
_atom_site_fract_z
_atom_site_U_iso_or_equiv
_atom_site_adp_type
_atom_site_occupancy
C1     C     0.21547   0.11823   0.48956   0.00000  Uiso   1.00
C2     C     0.27254   0.16993   0.59614   0.00000  Uiso   1.00
C3     C     0.32130   0.21515   0.59411   0.00000  Uiso   1.00
C4     C     0.36921   0.25835   0.70104   0.00000  Uiso   1.00
C5     C     0.45801   0.33893   0.85059   0.00000  Uiso   1.00
C6     C     0.27529   0.06563   0.59282   0.00000  Uiso   1.00
C7     C     0.32634   0.02315   0.58796   0.00000  Uiso   1.00
C8     C     0.37656   0.97854   0.69208   0.00000  Uiso   1.00
C9     C     0.46955   0.89717   0.83639   0.00000  Uiso   1.00
C10    C     0.09749   0.11658   0.41235   0.00000  Uiso   1.00
C11    C     0.99905   0.11692   0.25576   0.00000  Uiso   1.00
C12    C     0.89957   0.11520   0.20794   0.00000  Uiso   1.00
C13    C     0.71651   0.11293   0.07206   0.00000  Uiso   1.00
C14    C     0.21385   0.11453   0.68307   0.00000  Uiso   1.00
C15    C     0.27166   0.16792   0.70125   0.00000  Uiso   1.00
C16    C     0.31950   0.21107   0.80821   0.00000  Uiso   1.00
C17    C     0.36833   0.25635   0.80633   0.00000  Uiso   1.00
C18    C     0.27441   0.06362   0.69792   0.00000  Uiso   1.00
C19    C     0.32455   0.01907   0.80206   0.00000  Uiso   1.00
C20    C     0.37568   0.97653   0.79738   0.00000  Uiso   1.00
C21    C     0.09661   0.11458   0.51746   0.00000  Uiso   1.00
C22    C     0.99726   0.11284   0.46987   0.00000  Uiso   1.00
C23    C     0.89869   0.11319   0.31324   0.00000  Uiso   1.00
H24    H     0.21616   0.11978   0.40774   0.00000  Uiso   1.00
H25    H     0.32198   0.21669   0.51276   0.00000  Uiso   1.00
H26    H     0.32700   0.02471   0.50660   0.00000  Uiso   1.00
H27    H     0.99977   0.11848   0.17446   0.00000  Uiso   1.00
H28    H     0.43893   0.32323   0.67559   0.00000  Uiso   1.00
H29    H     0.44951   0.91843   0.66257   0.00000  Uiso   1.00
H30    H     0.75947   0.11614   0.96218   0.00000  Uiso   1.00
H31    H     0.21316   0.11297   0.76491   0.00000  Uiso   1.00
H32    H     0.31881   0.20950   0.88953   0.00000  Uiso   1.00
H33    H     0.32384   0.01753   0.88338   0.00000  Uiso   1.00
H34    H     0.99661   0.11129   0.55124   0.00000  Uiso   1.00
H35    H     0.43637   0.31740   0.98139   0.00000  Uiso   1.00
H36    H     0.44694   0.91259   0.96837   0.00000  Uiso   1.00
H37    H     0.75690   0.11031   0.26799   0.00000  Uiso   1.00
O38    O     0.50724   0.38393   0.90406   0.00000  Uiso   1.00
O39    O     0.52109   0.85284   0.88696   0.00000  Uiso   1.00
O40    O     0.61578   0.11224   0.96807   0.00000  Uiso   1.00
N41    N     0.42381   0.30861   0.73043   0.00000  Uiso   1.00
N42    N     0.43372   0.93015   0.71828   0.00000  Uiso   1.00
N43    N     0.78858   0.11499   0.06348   0.00000  Uiso   1.00
N44    N     0.42243   0.30548   0.89499   0.00000  Uiso   1.00
N45    N     0.43234   0.92702   0.88283   0.00000  Uiso   1.00
N46    N     0.78720   0.11185   0.22803   0.00000  Uiso   1.00
C47    C     0.78453   0.61823   0.01044   0.00000  Uiso   1.00
C48    C     0.72746   0.66993   0.90386   0.00000  Uiso   1.00
C49    C     0.67870   0.71515   0.90589   0.00000  Uiso   1.00
C50    C     0.63079   0.75835   0.79896   0.00000  Uiso   1.00
C51    C     0.54199   0.83893   0.64941   0.00000  Uiso   1.00
C52    C     0.72471   0.56563   0.90718   0.00000  Uiso   1.00
C53    C     0.67366   0.52315   0.91204   0.00000  Uiso   1.00
C54    C     0.62344   0.47854   0.80792   0.00000  Uiso   1.00
C55    C     0.53045   0.39717   0.66361   0.00000  Uiso   1.00
C56    C     0.90251   0.61658   0.08765   0.00000  Uiso   1.00
C57    C     0.00095   0.61692   0.24424   0.00000  Uiso   1.00
C58    C     0.10043   0.61520   0.29206   0.00000  Uiso   1.00
C59    C     0.28349   0.61293   0.42794   0.00000  Uiso   1.00
C60    C     0.78615   0.61453   0.81693   0.00000  Uiso   1.00
C61    C     0.72834   0.66792   0.79875   0.00000  Uiso   1.00
C62    C     0.68050   0.71107   0.69179   0.00000  Uiso   1.00
C63    C     0.63167   0.75635   0.69367   0.00000  Uiso   1.00
C64    C     0.72559   0.56362   0.80208   0.00000  Uiso   1.00
C65    C     0.67545   0.51907   0.69794   0.00000  Uiso   1.00
C66    C     0.62432   0.47653   0.70262   0.00000  Uiso   1.00
C67    C     0.90339   0.61458   0.98254   0.00000  Uiso   1.00
C68    C     0.00274   0.61284   0.03013   0.00000  Uiso   1.00
C69    C     0.10131   0.61319   0.18676   0.00000  Uiso   1.00
H70    H     0.78384   0.61978   0.09226   0.00000  Uiso   1.00
H71    H     0.67802   0.71669   0.98724   0.00000  Uiso   1.00
H72    H     0.67300   0.52471   0.99340   0.00000  Uiso   1.00
H73    H     0.00023   0.61848   0.32554   0.00000  Uiso   1.00
H74    H     0.56107   0.82323   0.82441   0.00000  Uiso   1.00
H75    H     0.55049   0.41843   0.83743   0.00000  Uiso   1.00
H76    H     0.24053   0.61614   0.53782   0.00000  Uiso   1.00
H77    H     0.78684   0.61297   0.73509   0.00000  Uiso   1.00
H78    H     0.68119   0.70950   0.61047   0.00000  Uiso   1.00
H79    H     0.67616   0.51753   0.61662   0.00000  Uiso   1.00
H80    H     0.00339   0.61129   0.94876   0.00000  Uiso   1.00
H81    H     0.56363   0.81740   0.51861   0.00000  Uiso   1.00
H82    H     0.55306   0.41259   0.53163   0.00000  Uiso   1.00
H83    H     0.24310   0.61031   0.23201   0.00000  Uiso   1.00
O84    O     0.49276   0.88393   0.59594   0.00000  Uiso   1.00
O85    O     0.47891   0.35284   0.61304   0.00000  Uiso   1.00
O86    O     0.38422   0.61224   0.53193   0.00000  Uiso   1.00
N87    N     0.57619   0.80861   0.76957   0.00000  Uiso   1.00
N88    N     0.56628   0.43015   0.78172   0.00000  Uiso   1.00
N89    N     0.21142   0.61499   0.43652   0.00000  Uiso   1.00
N90    N     0.57757   0.80548   0.60501   0.00000  Uiso   1.00
N91    N     0.56766   0.42702   0.61717   0.00000  Uiso   1.00
N92    N     0.21280   0.61185   0.27197   0.00000  Uiso   1.00
C93    C     0.78453   0.88177   0.51044   0.00000  Uiso   1.00
C94    C     0.72746   0.83007   0.40386   0.00000  Uiso   1.00
C95    C     0.67870   0.78485   0.40589   0.00000  Uiso   1.00
C96    C     0.63079   0.74165   0.29896   0.00000  Uiso   1.00
C97    C     0.54199   0.66107   0.14941   0.00000  Uiso   1.00
C98    C     0.72471   0.93437   0.40718   0.00000  Uiso   1.00
C99    C     0.67366   0.97685   0.41204   0.00000  Uiso   1.00
C100   C     0.62344   0.02146   0.30792   0.00000  Uiso   1.00
C101   C     0.53045   0.10283   0.16361   0.00000  Uiso   1.00
C102   C     0.90251   0.88342   0.58765   0.00000  Uiso   1.00
C103   C     0.00095   0.88308   0.74424   0.00000  Uiso   1.00
C104   C     0.10043   0.88480   0.79206   0.00000  Uiso   1.00
C105   C     0.28349   0.88707   0.92794   0.00000  Uiso   1.00
C106   C     0.78615   0.88547   0.31693   0.00000  Uiso   1.00
C107   C     0.72834   0.83208   0.29875   0.00000  Uiso   1.00
C108   C     0.68050   0.78893   0.19179   0.00000  Uiso   1.00
C109   C     0.63167   0.74365   0.19367   0.00000  Uiso   1.00
C110   C     0.72559   0.93638   0.30208   0.00000  Uiso   1.00
C111   C     0.67545   0.98093   0.19794   0.00000  Uiso   1.00
C112   C     0.62432   0.02347   0.20262   0.00000  Uiso   1.00
C113   C     0.90339   0.88542   0.48254   0.00000  Uiso   1.00
C114   C     0.00274   0.88716   0.53013   0.00000  Uiso   1.00
C115   C     0.10131   0.88681   0.68676   0.00000  Uiso   1.00
H116   H     0.78384   0.88022   0.59226   0.00000  Uiso   1.00
H117   H     0.67802   0.78331   0.48724   0.00000  Uiso   1.00
H118   H     0.67300   0.97529   0.49340   0.00000  Uiso   1.00
H119   H     0.00023   0.88152   0.82554   0.00000  Uiso   1.00
H120   H     0.56107   0.67677   0.32441   0.00000  Uiso   1.00
H121   H     0.55049   0.08157   0.33743   0.00000  Uiso   1.00
H122   H     0.24053   0.88386   0.03782   0.00000  Uiso   1.00
H123   H     0.78684   0.88703   0.23509   0.00000  Uiso   1.00
H124   H     0.68119   0.79050   0.11047   0.00000  Uiso   1.00
H125   H     0.67616   0.98247   0.11662   0.00000  Uiso   1.00
H126   H     0.00339   0.88871   0.44876   0.00000  Uiso   1.00
H127   H     0.56363   0.68260   0.01861   0.00000  Uiso   1.00
H128   H     0.55306   0.08741   0.03163   0.00000  Uiso   1.00
H129   H     0.24310   0.88969   0.73201   0.00000  Uiso   1.00
O130   O     0.49276   0.61607   0.09594   0.00000  Uiso   1.00
O131   O     0.47891   0.14716   0.11304   0.00000  Uiso   1.00
O132   O     0.38422   0.88776   0.03193   0.00000  Uiso   1.00
N133   N     0.57619   0.69139   0.26957   0.00000  Uiso   1.00
N134   N     0.56628   0.06985   0.28172   0.00000  Uiso   1.00
N135   N     0.21142   0.88501   0.93652   0.00000  Uiso   1.00
N136   N     0.57757   0.69452   0.10501   0.00000  Uiso   1.00
N137   N     0.56766   0.07298   0.11717   0.00000  Uiso   1.00
N138   N     0.21280   0.88815   0.77197   0.00000  Uiso   1.00
C139   C     0.21547   0.38177   0.98956   0.00000  Uiso   1.00
C140   C     0.27254   0.33007   0.09614   0.00000  Uiso   1.00
C141   C     0.32130   0.28485   0.09411   0.00000  Uiso   1.00
C142   C     0.36921   0.24165   0.20104   0.00000  Uiso   1.00
C143   C     0.45801   0.16107   0.35059   0.00000  Uiso   1.00
C144   C     0.27529   0.43437   0.09282   0.00000  Uiso   1.00
C145   C     0.32634   0.47685   0.08796   0.00000  Uiso   1.00
C146   C     0.37656   0.52146   0.19208   0.00000  Uiso   1.00
C147   C     0.46955   0.60283   0.33639   0.00000  Uiso   1.00
C148   C     0.09749   0.38342   0.91235   0.00000  Uiso   1.00
C149   C     0.99905   0.38308   0.75576   0.00000  Uiso   1.00
C150   C     0.89957   0.38480   0.70794   0.00000  Uiso   1.00
C151   C     0.71651   0.38707   0.57206   0.00000  Uiso   1.00
C152   C     0.21385   0.38547   0.18307   0.00000  Uiso   1.00
C153   C     0.27166   0.33208   0.20125   0.00000  Uiso   1.00
C154   C     0.31950   0.28893   0.30821   0.00000  Uiso   1.00
C155   C     0.36833   0.24365   0.30633   0.00000  Uiso   1.00
C156   C     0.27441   0.43638   0.19792   0.00000  Uiso   1.00
C157   C     0.32455   0.48093   0.30206   0.00000  Uiso   1.00
C158   C     0.37568   0.52347   0.29738   0.00000  Uiso   1.00
C159   C     0.09661   0.38542   0.01746   0.00000  Uiso   1.00
C160   C     0.99726   0.38716   0.96987   0.00000  Uiso   1.00
C161   C     0.89869   0.38681   0.81324   0.00000  Uiso   1.00
H162   H     0.21616   0.38022   0.90774   0.00000  Uiso   1.00
H163   H     0.32198   0.28331   0.01276   0.00000  Uiso   1.00
H164   H     0.32700   0.47529   0.00660   0.00000  Uiso   1.00
H165   H     0.99977   0.38152   0.67446   0.00000  Uiso   1.00
H166   H     0.43893   0.17677   0.17559   0.00000  Uiso   1.00
H167   H     0.44951   0.58157   0.16257   0.00000  Uiso   1.00
H168   H     0.75947   0.38386   0.46218   0.00000  Uiso   1.00
H169   H     0.21316   0.38703   0.26491   0.00000  Uiso   1.00
H170   H     0.31881   0.29050   0.38953   0.00000  Uiso   1.00
H171   H     0.32384   0.48247   0.38338   0.00000  Uiso   1.00
H172   H     0.99661   0.38871   0.05124   0.00000  Uiso   1.00
H173   H     0.43637   0.18260   0.48139   0.00000  Uiso   1.00
H174   H     0.44694   0.58741   0.46837   0.00000  Uiso   1.00
H175   H     0.75690   0.38969   0.76799   0.00000  Uiso   1.00
O176   O     0.50724   0.11607   0.40406   0.00000  Uiso   1.00
O177   O     0.52109   0.64716   0.38696   0.00000  Uiso   1.00
O178   O     0.61578   0.38776   0.46807   0.00000  Uiso   1.00
N179   N     0.42381   0.19139   0.23043   0.00000  Uiso   1.00
N180   N     0.43372   0.56985   0.21828   0.00000  Uiso   1.00
N181   N     0.78858   0.38501   0.56348   0.00000  Uiso   1.00
N182   N     0.42243   0.19452   0.39499   0.00000  Uiso   1.00
N183   N     0.43234   0.57298   0.38283   0.00000  Uiso   1.00
N184   N     0.78720   0.38815   0.72803   0.00000  Uiso   1.00
