data_job_04736
_audit_creation_date              2018-12-19
_audit_creation_method            'Materials Studio'
_symmetry_space_group_name_H-M    'P1'
_symmetry_Int_Tables_number       1
_symmetry_cell_setting            triclinic
loop_
_symmetry_equiv_pos_as_xyz
  x,y,z
_cell_length_a                    13.9796
_cell_length_b                    12.5491
_cell_length_c                    21.2085
_cell_angle_alpha                 90.0000
_cell_angle_beta                  44.4700
_cell_angle_gamma                 90.0000
loop_
_atom_site_label
_atom_site_type_symbol
_atom_site_fract_x
_atom_site_fract_y
_atom_site_fract_z
_atom_site_U_iso_or_equiv
_atom_site_adp_type
_atom_site_occupancy
C1     C     0.86297   0.75569   0.89179   0.00000  Uiso   1.00
C2     C     0.95631   0.76733   0.90502   0.00000  Uiso   1.00
C3     C     0.09646   0.75103   0.83953   0.00000  Uiso   1.00
C4     C     0.16349   0.76573   0.86503   0.00000  Uiso   1.00
C5     C     0.31919   0.77930   0.87220   0.00000  Uiso   1.00
C6     C     0.78976   0.86227   0.91913   0.00000  Uiso   1.00
C7     C     0.78987   0.92578   0.86551   0.00000  Uiso   1.00
C8     C     0.71667   0.02040   0.90290   0.00000  Uiso   1.00
C9     C     0.61371   0.18133   0.93200   0.00000  Uiso   1.00
C10    C     0.75361   0.67526   0.96205   0.00000  Uiso   1.00
C11    C     0.72330   0.58153   0.94452   0.00000  Uiso   1.00
C12    C     0.61964   0.51871   0.01804   0.00000  Uiso   1.00
C13    C     0.46057   0.38927   0.11378   0.00000  Uiso   1.00
C14    C     0.73276   0.81080   0.05354   0.00000  Uiso   1.00
C15    C     0.88558   0.79727   0.99288   0.00000  Uiso   1.00
C16    C     0.95241   0.81200   0.01849   0.00000  Uiso   1.00
C17    C     0.09264   0.79572   0.95304   0.00000  Uiso   1.00
C18    C     0.71904   0.89220   0.00699   0.00000  Uiso   1.00
C19    C     0.64581   0.98675   0.04447   0.00000  Uiso   1.00
C20    C     0.64582   0.05039   0.99091   0.00000  Uiso   1.00
C21    C     0.68289   0.70519   0.04991   0.00000  Uiso   1.00
C22    C     0.57925   0.64250   0.12347   0.00000  Uiso   1.00
C23    C     0.54879   0.54870   0.10605   0.00000  Uiso   1.00
H24    H     0.91802   0.73240   0.82339   0.00000  Uiso   1.00
H25    H     0.15116   0.72787   0.77154   0.00000  Uiso   1.00
H26    H     0.84460   0.90259   0.79753   0.00000  Uiso   1.00
H27    H     0.77805   0.55840   0.87652   0.00000  Uiso   1.00
H28    H     0.37845   0.73610   0.75280   0.00000  Uiso   1.00
H29    H     0.73201   0.10448   0.80760   0.00000  Uiso   1.00
H30    H     0.59167   0.37868   0.97417   0.00000  Uiso   1.00
H31    H     0.67770   0.83411   0.12194   0.00000  Uiso   1.00
H32    H     0.89765   0.83516   0.08648   0.00000  Uiso   1.00
H33    H     0.59109   0.00988   0.11246   0.00000  Uiso   1.00
H34    H     0.52454   0.66569   0.19145   0.00000  Uiso   1.00
H35    H     0.17270   0.82318   0.00841   0.00000  Uiso   1.00
H36    H     0.52625   0.19157   0.06321   0.00000  Uiso   1.00
H37    H     0.38592   0.46577   0.22978   0.00000  Uiso   1.00
O38    O     0.42461   0.77853   0.85188   0.00000  Uiso   1.00
O39    O     0.57648   0.26183   0.92378   0.00000  Uiso   1.00
O40    O     0.39238   0.30960   0.14232   0.00000  Uiso   1.00
N41    N     0.29984   0.75643   0.81783   0.00000  Uiso   1.00
N42    N     0.69547   0.10085   0.86906   0.00000  Uiso   1.00
N43    N     0.56425   0.42231   0.02479   0.00000  Uiso   1.00
N44    N     0.18912   0.80328   0.95537   0.00000  Uiso   1.00
N45    N     0.58476   0.14771   0.00660   0.00000  Uiso   1.00
N46    N     0.45353   0.46916   0.16233   0.00000  Uiso   1.00
C47    C     0.13703   0.75569   0.60821   0.00000  Uiso   1.00
C48    C     0.04369   0.76733   0.59498   0.00000  Uiso   1.00
C49    C     0.90354   0.75103   0.66047   0.00000  Uiso   1.00
C50    C     0.83651   0.76573   0.63497   0.00000  Uiso   1.00
C51    C     0.68081   0.77930   0.62780   0.00000  Uiso   1.00
C52    C     0.21024   0.86227   0.58087   0.00000  Uiso   1.00
C53    C     0.21013   0.92578   0.63449   0.00000  Uiso   1.00
C54    C     0.28333   0.02040   0.59710   0.00000  Uiso   1.00
C55    C     0.38629   0.18133   0.56800   0.00000  Uiso   1.00
C56    C     0.24639   0.67526   0.53795   0.00000  Uiso   1.00
C57    C     0.27670   0.58153   0.55548   0.00000  Uiso   1.00
C58    C     0.38036   0.51871   0.48196   0.00000  Uiso   1.00
C59    C     0.53943   0.38927   0.38622   0.00000  Uiso   1.00
C60    C     0.26724   0.81080   0.44646   0.00000  Uiso   1.00
C61    C     0.11442   0.79727   0.50712   0.00000  Uiso   1.00
C62    C     0.04759   0.81200   0.48151   0.00000  Uiso   1.00
C63    C     0.90736   0.79572   0.54696   0.00000  Uiso   1.00
C64    C     0.28096   0.89220   0.49301   0.00000  Uiso   1.00
C65    C     0.35419   0.98675   0.45553   0.00000  Uiso   1.00
C66    C     0.35418   0.05039   0.50909   0.00000  Uiso   1.00
C67    C     0.31711   0.70519   0.45009   0.00000  Uiso   1.00
C68    C     0.42075   0.64250   0.37653   0.00000  Uiso   1.00
C69    C     0.45121   0.54870   0.39395   0.00000  Uiso   1.00
H70    H     0.08198   0.73240   0.67661   0.00000  Uiso   1.00
H71    H     0.84884   0.72787   0.72846   0.00000  Uiso   1.00
H72    H     0.15540   0.90259   0.70247   0.00000  Uiso   1.00
H73    H     0.22195   0.55840   0.62348   0.00000  Uiso   1.00
H74    H     0.62155   0.73610   0.74720   0.00000  Uiso   1.00
H75    H     0.26799   0.10448   0.69240   0.00000  Uiso   1.00
H76    H     0.40833   0.37868   0.52583   0.00000  Uiso   1.00
H77    H     0.32230   0.83411   0.37806   0.00000  Uiso   1.00
H78    H     0.10235   0.83516   0.41352   0.00000  Uiso   1.00
H79    H     0.40891   0.00988   0.38754   0.00000  Uiso   1.00
H80    H     0.47546   0.66569   0.30855   0.00000  Uiso   1.00
H81    H     0.82730   0.82318   0.49159   0.00000  Uiso   1.00
H82    H     0.47375   0.19157   0.43679   0.00000  Uiso   1.00
H83    H     0.61408   0.46577   0.27022   0.00000  Uiso   1.00
O84    O     0.57539   0.77853   0.64812   0.00000  Uiso   1.00
O85    O     0.42352   0.26183   0.57622   0.00000  Uiso   1.00
O86    O     0.60762   0.30960   0.35768   0.00000  Uiso   1.00
N87    N     0.70016   0.75643   0.68217   0.00000  Uiso   1.00
N88    N     0.30453   0.10085   0.63094   0.00000  Uiso   1.00
N89    N     0.43575   0.42231   0.47521   0.00000  Uiso   1.00
N90    N     0.81088   0.80328   0.54463   0.00000  Uiso   1.00
N91    N     0.41524   0.14771   0.49340   0.00000  Uiso   1.00
N92    N     0.54647   0.46916   0.33767   0.00000  Uiso   1.00
C93    C     0.13703   0.24431   0.10821   0.00000  Uiso   1.00
C94    C     0.04369   0.23267   0.09498   0.00000  Uiso   1.00
C95    C     0.90354   0.24897   0.16047   0.00000  Uiso   1.00
C96    C     0.83651   0.23427   0.13497   0.00000  Uiso   1.00
C97    C     0.68081   0.22070   0.12780   0.00000  Uiso   1.00
C98    C     0.21024   0.13773   0.08087   0.00000  Uiso   1.00
C99    C     0.21013   0.07422   0.13449   0.00000  Uiso   1.00
C100   C     0.28333   0.97960   0.09710   0.00000  Uiso   1.00
C101   C     0.38629   0.81867   0.06800   0.00000  Uiso   1.00
C102   C     0.24639   0.32474   0.03795   0.00000  Uiso   1.00
C103   C     0.27670   0.41847   0.05548   0.00000  Uiso   1.00
C104   C     0.38036   0.48129   0.98196   0.00000  Uiso   1.00
C105   C     0.53943   0.61073   0.88622   0.00000  Uiso   1.00
C106   C     0.26724   0.18920   0.94646   0.00000  Uiso   1.00
C107   C     0.11442   0.20273   0.00712   0.00000  Uiso   1.00
C108   C     0.04759   0.18800   0.98151   0.00000  Uiso   1.00
C109   C     0.90736   0.20428   0.04696   0.00000  Uiso   1.00
C110   C     0.28096   0.10780   0.99301   0.00000  Uiso   1.00
C111   C     0.35419   0.01325   0.95553   0.00000  Uiso   1.00
C112   C     0.35418   0.94961   0.00909   0.00000  Uiso   1.00
C113   C     0.31711   0.29481   0.95009   0.00000  Uiso   1.00
C114   C     0.42075   0.35750   0.87653   0.00000  Uiso   1.00
C115   C     0.45121   0.45130   0.89395   0.00000  Uiso   1.00
H116   H     0.08198   0.26760   0.17661   0.00000  Uiso   1.00
H117   H     0.84884   0.27213   0.22846   0.00000  Uiso   1.00
H118   H     0.15540   0.09741   0.20247   0.00000  Uiso   1.00
H119   H     0.22195   0.44160   0.12348   0.00000  Uiso   1.00
H120   H     0.62155   0.26390   0.24720   0.00000  Uiso   1.00
H121   H     0.26799   0.89552   0.19240   0.00000  Uiso   1.00
H122   H     0.40833   0.62132   0.02583   0.00000  Uiso   1.00
H123   H     0.32230   0.16589   0.87806   0.00000  Uiso   1.00
H124   H     0.10235   0.16484   0.91352   0.00000  Uiso   1.00
H125   H     0.40891   0.99012   0.88754   0.00000  Uiso   1.00
H126   H     0.47546   0.33431   0.80855   0.00000  Uiso   1.00
H127   H     0.82730   0.17682   0.99159   0.00000  Uiso   1.00
H128   H     0.47375   0.80843   0.93679   0.00000  Uiso   1.00
H129   H     0.61408   0.53423   0.77022   0.00000  Uiso   1.00
O130   O     0.57539   0.22147   0.14812   0.00000  Uiso   1.00
O131   O     0.42352   0.73817   0.07622   0.00000  Uiso   1.00
O132   O     0.60762   0.69040   0.85768   0.00000  Uiso   1.00
N133   N     0.70016   0.24357   0.18217   0.00000  Uiso   1.00
N134   N     0.30453   0.89915   0.13094   0.00000  Uiso   1.00
N135   N     0.43575   0.57769   0.97521   0.00000  Uiso   1.00
N136   N     0.81088   0.19672   0.04463   0.00000  Uiso   1.00
N137   N     0.41524   0.85229   0.99340   0.00000  Uiso   1.00
N138   N     0.54647   0.53084   0.83767   0.00000  Uiso   1.00
C139   C     0.86297   0.24431   0.39179   0.00000  Uiso   1.00
C140   C     0.95631   0.23267   0.40502   0.00000  Uiso   1.00
C141   C     0.09646   0.24897   0.33953   0.00000  Uiso   1.00
C142   C     0.16349   0.23427   0.36503   0.00000  Uiso   1.00
C143   C     0.31919   0.22070   0.37220   0.00000  Uiso   1.00
C144   C     0.78976   0.13773   0.41913   0.00000  Uiso   1.00
C145   C     0.78987   0.07422   0.36551   0.00000  Uiso   1.00
C146   C     0.71667   0.97960   0.40290   0.00000  Uiso   1.00
C147   C     0.61371   0.81867   0.43200   0.00000  Uiso   1.00
C148   C     0.75361   0.32474   0.46205   0.00000  Uiso   1.00
C149   C     0.72330   0.41847   0.44452   0.00000  Uiso   1.00
C150   C     0.61964   0.48129   0.51804   0.00000  Uiso   1.00
C151   C     0.46057   0.61073   0.61378   0.00000  Uiso   1.00
C152   C     0.73276   0.18920   0.55354   0.00000  Uiso   1.00
C153   C     0.88558   0.20273   0.49288   0.00000  Uiso   1.00
C154   C     0.95241   0.18800   0.51849   0.00000  Uiso   1.00
C155   C     0.09264   0.20428   0.45304   0.00000  Uiso   1.00
C156   C     0.71904   0.10780   0.50699   0.00000  Uiso   1.00
C157   C     0.64581   0.01325   0.54447   0.00000  Uiso   1.00
C158   C     0.64582   0.94961   0.49091   0.00000  Uiso   1.00
C159   C     0.68289   0.29481   0.54991   0.00000  Uiso   1.00
C160   C     0.57925   0.35750   0.62347   0.00000  Uiso   1.00
C161   C     0.54879   0.45130   0.60605   0.00000  Uiso   1.00
H162   H     0.91802   0.26760   0.32339   0.00000  Uiso   1.00
H163   H     0.15116   0.27213   0.27154   0.00000  Uiso   1.00
H164   H     0.84460   0.09741   0.29753   0.00000  Uiso   1.00
H165   H     0.77805   0.44160   0.37652   0.00000  Uiso   1.00
H166   H     0.37845   0.26390   0.25280   0.00000  Uiso   1.00
H167   H     0.73201   0.89552   0.30760   0.00000  Uiso   1.00
H168   H     0.59167   0.62132   0.47417   0.00000  Uiso   1.00
H169   H     0.67770   0.16589   0.62194   0.00000  Uiso   1.00
H170   H     0.89765   0.16484   0.58648   0.00000  Uiso   1.00
H171   H     0.59109   0.99012   0.61246   0.00000  Uiso   1.00
H172   H     0.52454   0.33431   0.69145   0.00000  Uiso   1.00
H173   H     0.17270   0.17682   0.50841   0.00000  Uiso   1.00
H174   H     0.52625   0.80843   0.56321   0.00000  Uiso   1.00
H175   H     0.38592   0.53423   0.72978   0.00000  Uiso   1.00
O176   O     0.42461   0.22147   0.35188   0.00000  Uiso   1.00
O177   O     0.57648   0.73817   0.42378   0.00000  Uiso   1.00
O178   O     0.39238   0.69040   0.64232   0.00000  Uiso   1.00
N179   N     0.29984   0.24357   0.31783   0.00000  Uiso   1.00
N180   N     0.69547   0.89915   0.36906   0.00000  Uiso   1.00
N181   N     0.56425   0.57769   0.52479   0.00000  Uiso   1.00
N182   N     0.18912   0.19672   0.45537   0.00000  Uiso   1.00
N183   N     0.58476   0.85229   0.50660   0.00000  Uiso   1.00
N184   N     0.45353   0.53084   0.66233   0.00000  Uiso   1.00
