data_job_01690
_audit_creation_date              2018-12-19
_audit_creation_method            'Materials Studio'
_symmetry_space_group_name_H-M    'P1'
_symmetry_Int_Tables_number       1
_symmetry_cell_setting            triclinic
loop_
_symmetry_equiv_pos_as_xyz
  x,y,z
_cell_length_a                    12.1346
_cell_length_b                    12.1436
_cell_length_c                    12.7064
_cell_angle_alpha                 71.7883
_cell_angle_beta                  71.4617
_cell_angle_gamma                 98.7550
loop_
_atom_site_label
_atom_site_type_symbol
_atom_site_fract_x
_atom_site_fract_y
_atom_site_fract_z
_atom_site_U_iso_or_equiv
_atom_site_adp_type
_atom_site_occupancy
C1     C     0.26551   0.58007   0.35364   0.00000  Uiso   1.00
C2     C     0.37729   0.53890   0.30647   0.00000  Uiso   1.00
C3     C     0.39768   0.43128   0.36458   0.00000  Uiso   1.00
C4     C     0.50556   0.41029   0.30653   0.00000  Uiso   1.00
C5     C     0.66625   0.33360   0.25031   0.00000  Uiso   1.00
C6     C     0.21375   0.60426   0.25654   0.00000  Uiso   1.00
C7     C     0.09664   0.55160   0.27268   0.00000  Uiso   1.00
C8     C     0.06687   0.58565   0.17260   0.00000  Uiso   1.00
C9     C     0.97364   0.61049   0.03889   0.00000  Uiso   1.00
C10    C     0.31194   0.70267   0.35643   0.00000  Uiso   1.00
C11    C     0.27737   0.73276   0.45656   0.00000  Uiso   1.00
C12    C     0.33024   0.84968   0.44058   0.00000  Uiso   1.00
C13    C     0.38947   0.02731   0.46197   0.00000  Uiso   1.00
C14    C     0.42085   0.73419   0.14720   0.00000  Uiso   1.00
C15    C     0.46165   0.62261   0.19433   0.00000  Uiso   1.00
C16    C     0.56954   0.60179   0.13618   0.00000  Uiso   1.00
C17    C     0.59009   0.49416   0.19420   0.00000  Uiso   1.00
C18    C     0.29812   0.68797   0.14441   0.00000  Uiso   1.00
C19    C     0.26850   0.72211   0.04428   0.00000  Uiso   1.00
C20    C     0.15139   0.66951   0.06027   0.00000  Uiso   1.00
C21    C     0.39632   0.78638   0.24431   0.00000  Uiso   1.00
C22    C     0.44923   0.90327   0.22816   0.00000  Uiso   1.00
C23    C     0.41476   0.93354   0.32824   0.00000  Uiso   1.00
H24    H     0.19982   0.51490   0.44093   0.00000  Uiso   1.00
H25    H     0.33236   0.36651   0.45135   0.00000  Uiso   1.00
H26    H     0.03137   0.48683   0.35947   0.00000  Uiso   1.00
H27    H     0.21208   0.66796   0.54332   0.00000  Uiso   1.00
H28    H     0.51649   0.23889   0.41343   0.00000  Uiso   1.00
H29    H     0.88183   0.49261   0.21970   0.00000  Uiso   1.00
H30    H     0.26287   0.87457   0.60739   0.00000  Uiso   1.00
H31    H     0.48653   0.79937   0.05990   0.00000  Uiso   1.00
H32    H     0.63481   0.66659   0.04941   0.00000  Uiso   1.00
H33    H     0.33382   0.78690   0.95753   0.00000  Uiso   1.00
H34    H     0.51452   0.96803   0.14138   0.00000  Uiso   1.00
H35    H     0.76196   0.48244   0.08720   0.00000  Uiso   1.00
H36    H     0.12730   0.73616   0.89347   0.00000  Uiso   1.00
H37    H     0.50835   0.11812   0.28115   0.00000  Uiso   1.00
O38    O     0.73157   0.26817   0.25027   0.00000  Uiso   1.00
O39    O     0.89892   0.60105   0.99612   0.00000  Uiso   1.00
O40    O     0.39884   0.10217   0.50475   0.00000  Uiso   1.00
N41    N     0.55392   0.31445   0.33810   0.00000  Uiso   1.00
N42    N     0.96056   0.55164   0.15697   0.00000  Uiso   1.00
N43    N     0.31678   0.90875   0.51942   0.00000  Uiso   1.00
N44    N     0.68601   0.44550   0.16256   0.00000  Uiso   1.00
N45    N     0.09265   0.68269   0.98143   0.00000  Uiso   1.00
N46    N     0.44887   0.03980   0.34388   0.00000  Uiso   1.00
C47    C     0.73449   0.41993   0.64636   0.00000  Uiso   1.00
C48    C     0.62271   0.46110   0.69353   0.00000  Uiso   1.00
C49    C     0.60232   0.56872   0.63542   0.00000  Uiso   1.00
C50    C     0.49444   0.58971   0.69347   0.00000  Uiso   1.00
C51    C     0.33375   0.66640   0.74969   0.00000  Uiso   1.00
C52    C     0.78625   0.39574   0.74346   0.00000  Uiso   1.00
C53    C     0.90336   0.44840   0.72732   0.00000  Uiso   1.00
C54    C     0.93313   0.41435   0.82740   0.00000  Uiso   1.00
C55    C     0.02636   0.38951   0.96111   0.00000  Uiso   1.00
C56    C     0.68806   0.29733   0.64357   0.00000  Uiso   1.00
C57    C     0.72263   0.26724   0.54344   0.00000  Uiso   1.00
C58    C     0.66976   0.15032   0.55942   0.00000  Uiso   1.00
C59    C     0.61053   0.97269   0.53803   0.00000  Uiso   1.00
C60    C     0.57915   0.26581   0.85280   0.00000  Uiso   1.00
C61    C     0.53835   0.37739   0.80567   0.00000  Uiso   1.00
C62    C     0.43046   0.39821   0.86382   0.00000  Uiso   1.00
C63    C     0.40991   0.50584   0.80580   0.00000  Uiso   1.00
C64    C     0.70188   0.31203   0.85559   0.00000  Uiso   1.00
C65    C     0.73150   0.27789   0.95572   0.00000  Uiso   1.00
C66    C     0.84861   0.33049   0.93973   0.00000  Uiso   1.00
C67    C     0.60368   0.21362   0.75569   0.00000  Uiso   1.00
C68    C     0.55077   0.09673   0.77184   0.00000  Uiso   1.00
C69    C     0.58524   0.06646   0.67176   0.00000  Uiso   1.00
H70    H     0.80018   0.48510   0.55907   0.00000  Uiso   1.00
H71    H     0.66764   0.63349   0.54865   0.00000  Uiso   1.00
H72    H     0.96863   0.51317   0.64053   0.00000  Uiso   1.00
H73    H     0.78792   0.33204   0.45668   0.00000  Uiso   1.00
H74    H     0.48351   0.76111   0.58657   0.00000  Uiso   1.00
H75    H     0.11817   0.50739   0.78030   0.00000  Uiso   1.00
H76    H     0.73713   0.12543   0.39261   0.00000  Uiso   1.00
H77    H     0.51347   0.20063   0.94010   0.00000  Uiso   1.00
H78    H     0.36519   0.33341   0.95059   0.00000  Uiso   1.00
H79    H     0.66618   0.21310   0.04247   0.00000  Uiso   1.00
H80    H     0.48548   0.03197   0.85862   0.00000  Uiso   1.00
H81    H     0.23804   0.51756   0.91280   0.00000  Uiso   1.00
H82    H     0.87270   0.26384   0.10653   0.00000  Uiso   1.00
H83    H     0.49165   0.88188   0.71885   0.00000  Uiso   1.00
O84    O     0.26843   0.73183   0.74973   0.00000  Uiso   1.00
O85    O     0.10108   0.39895   0.00388   0.00000  Uiso   1.00
O86    O     0.60116   0.89783   0.49525   0.00000  Uiso   1.00
N87    N     0.44608   0.68555   0.66190   0.00000  Uiso   1.00
N88    N     0.03944   0.44836   0.84303   0.00000  Uiso   1.00
N89    N     0.68322   0.09125   0.48058   0.00000  Uiso   1.00
N90    N     0.31399   0.55450   0.83744   0.00000  Uiso   1.00
N91    N     0.90735   0.31731   0.01857   0.00000  Uiso   1.00
N92    N     0.55113   0.96020   0.65612   0.00000  Uiso   1.00
