data_job_02374
_audit_creation_date              2018-12-19
_audit_creation_method            'Materials Studio'
_symmetry_space_group_name_H-M    'P1'
_symmetry_Int_Tables_number       1
_symmetry_cell_setting            triclinic
loop_
_symmetry_equiv_pos_as_xyz
  x,y,z
_cell_length_a                    17.3851
_cell_length_b                    22.1167
_cell_length_c                    16.2804
_cell_angle_alpha                 90.0000
_cell_angle_beta                  90.0000
_cell_angle_gamma                 90.0000
loop_
_atom_site_label
_atom_site_type_symbol
_atom_site_fract_x
_atom_site_fract_y
_atom_site_fract_z
_atom_site_U_iso_or_equiv
_atom_site_adp_type
_atom_site_occupancy
C1     C     0.91342   0.71852   0.87993   0.00000  Uiso   1.00
C2     C     0.91694   0.68725   0.79653   0.00000  Uiso   1.00
C3     C     0.98187   0.66123   0.76174   0.00000  Uiso   1.00
C4     C     0.97322   0.63487   0.68490   0.00000  Uiso   1.00
C5     C     0.98950   0.58639   0.56155   0.00000  Uiso   1.00
C6     C     0.88274   0.78198   0.86359   0.00000  Uiso   1.00
C7     C     0.91892   0.83561   0.88521   0.00000  Uiso   1.00
C8     C     0.88147   0.88900   0.86483   0.00000  Uiso   1.00
C9     C     0.84464   0.98760   0.84566   0.00000  Uiso   1.00
C10    C     0.85093   0.68594   0.92853   0.00000  Uiso   1.00
C11    C     0.86034   0.65884   0.00475   0.00000  Uiso   1.00
C12    C     0.79611   0.63137   0.03905   0.00000  Uiso   1.00
C13    C     0.70988   0.58085   0.12069   0.00000  Uiso   1.00
C14    C     0.78260   0.71796   0.80532   0.00000  Uiso   1.00
C15    C     0.84588   0.68695   0.75601   0.00000  Uiso   1.00
C16    C     0.83713   0.66062   0.67920   0.00000  Uiso   1.00
C17    C     0.90203   0.63456   0.64430   0.00000  Uiso   1.00
C18    C     0.81169   0.78169   0.82307   0.00000  Uiso   1.00
C19    C     0.77418   0.83500   0.80266   0.00000  Uiso   1.00
C20    C     0.81029   0.88870   0.82423   0.00000  Uiso   1.00
C21    C     0.77987   0.68564   0.88800   0.00000  Uiso   1.00
C22    C     0.71561   0.65822   0.92220   0.00000  Uiso   1.00
C23    C     0.72493   0.63107   0.99845   0.00000  Uiso   1.00
H24    H     0.96874   0.71876   0.91148   0.00000  Uiso   1.00
H25    H     0.03685   0.66148   0.79312   0.00000  Uiso   1.00
H26    H     0.97390   0.83583   0.91657   0.00000  Uiso   1.00
H27    H     0.91534   0.65908   0.03609   0.00000  Uiso   1.00
H28    H     0.08103   0.59786   0.64402   0.00000  Uiso   1.00
H29    H     0.94829   0.96550   0.90435   0.00000  Uiso   1.00
H30    H     0.82480   0.59278   0.15637   0.00000  Uiso   1.00
H31    H     0.72728   0.71773   0.77377   0.00000  Uiso   1.00
H32    H     0.78214   0.66039   0.64785   0.00000  Uiso   1.00
H33    H     0.71920   0.83475   0.77131   0.00000  Uiso   1.00
H34    H     0.66063   0.65800   0.89082   0.00000  Uiso   1.00
H35    H     0.87430   0.59699   0.52611   0.00000  Uiso   1.00
H36    H     0.74156   0.96462   0.78645   0.00000  Uiso   1.00
H37    H     0.61807   0.59190   0.03846   0.00000  Uiso   1.00
O38    O     0.01811   0.55974   0.50470   0.00000  Uiso   1.00
O39    O     0.84396   0.04207   0.84627   0.00000  Uiso   1.00
O40    O     0.68195   0.55306   0.17691   0.00000  Uiso   1.00
N41    N     0.02484   0.60551   0.63355   0.00000  Uiso   1.00
N42    N     0.90075   0.94923   0.87694   0.00000  Uiso   1.00
N43    N     0.78529   0.60078   0.11257   0.00000  Uiso   1.00
N44    N     0.91360   0.60504   0.57011   0.00000  Uiso   1.00
N45    N     0.78951   0.94876   0.81350   0.00000  Uiso   1.00
N46    N     0.67405   0.60031   0.04912   0.00000  Uiso   1.00
C47    C     0.58658   0.28148   0.37993   0.00000  Uiso   1.00
C48    C     0.58306   0.31275   0.29653   0.00000  Uiso   1.00
C49    C     0.51813   0.33877   0.26174   0.00000  Uiso   1.00
C50    C     0.52678   0.36513   0.18490   0.00000  Uiso   1.00
C51    C     0.51050   0.41361   0.06155   0.00000  Uiso   1.00
C52    C     0.61726   0.21802   0.36359   0.00000  Uiso   1.00
C53    C     0.58108   0.16439   0.38521   0.00000  Uiso   1.00
C54    C     0.61853   0.11100   0.36483   0.00000  Uiso   1.00
C55    C     0.65536   0.01240   0.34566   0.00000  Uiso   1.00
C56    C     0.64907   0.31406   0.42853   0.00000  Uiso   1.00
C57    C     0.63966   0.34116   0.50475   0.00000  Uiso   1.00
C58    C     0.70389   0.36863   0.53905   0.00000  Uiso   1.00
C59    C     0.79012   0.41915   0.62069   0.00000  Uiso   1.00
C60    C     0.71740   0.28204   0.30532   0.00000  Uiso   1.00
C61    C     0.65412   0.31305   0.25601   0.00000  Uiso   1.00
C62    C     0.66287   0.33938   0.17920   0.00000  Uiso   1.00
C63    C     0.59797   0.36544   0.14430   0.00000  Uiso   1.00
C64    C     0.68831   0.21831   0.32307   0.00000  Uiso   1.00
C65    C     0.72582   0.16500   0.30266   0.00000  Uiso   1.00
C66    C     0.68971   0.11130   0.32423   0.00000  Uiso   1.00
C67    C     0.72013   0.31436   0.38800   0.00000  Uiso   1.00
C68    C     0.78439   0.34178   0.42220   0.00000  Uiso   1.00
C69    C     0.77507   0.36893   0.49845   0.00000  Uiso   1.00
H70    H     0.53126   0.28124   0.41148   0.00000  Uiso   1.00
H71    H     0.46315   0.33852   0.29312   0.00000  Uiso   1.00
H72    H     0.52610   0.16417   0.41657   0.00000  Uiso   1.00
H73    H     0.58466   0.34092   0.53609   0.00000  Uiso   1.00
H74    H     0.41897   0.40214   0.14402   0.00000  Uiso   1.00
H75    H     0.55171   0.03450   0.40435   0.00000  Uiso   1.00
H76    H     0.67520   0.40722   0.65637   0.00000  Uiso   1.00
H77    H     0.77272   0.28227   0.27377   0.00000  Uiso   1.00
H78    H     0.71786   0.33961   0.14785   0.00000  Uiso   1.00
H79    H     0.78080   0.16525   0.27131   0.00000  Uiso   1.00
H80    H     0.83937   0.34200   0.39082   0.00000  Uiso   1.00
H81    H     0.62570   0.40301   0.02611   0.00000  Uiso   1.00
H82    H     0.75844   0.03538   0.28645   0.00000  Uiso   1.00
H83    H     0.88193   0.40810   0.53846   0.00000  Uiso   1.00
O84    O     0.48189   0.44026   0.00470   0.00000  Uiso   1.00
O85    O     0.65604   0.95793   0.34627   0.00000  Uiso   1.00
O86    O     0.81805   0.44694   0.67691   0.00000  Uiso   1.00
N87    N     0.47516   0.39449   0.13355   0.00000  Uiso   1.00
N88    N     0.59925   0.05077   0.37694   0.00000  Uiso   1.00
N89    N     0.71471   0.39922   0.61257   0.00000  Uiso   1.00
N90    N     0.58640   0.39496   0.07011   0.00000  Uiso   1.00
N91    N     0.71049   0.05124   0.31350   0.00000  Uiso   1.00
N92    N     0.82595   0.39969   0.54912   0.00000  Uiso   1.00
C93    C     0.08658   0.21852   0.62007   0.00000  Uiso   1.00
C94    C     0.08306   0.18725   0.70347   0.00000  Uiso   1.00
C95    C     0.01813   0.16123   0.73826   0.00000  Uiso   1.00
C96    C     0.02678   0.13487   0.81510   0.00000  Uiso   1.00
C97    C     0.01050   0.08639   0.93845   0.00000  Uiso   1.00
C98    C     0.11726   0.28198   0.63641   0.00000  Uiso   1.00
C99    C     0.08108   0.33561   0.61479   0.00000  Uiso   1.00
C100   C     0.11853   0.38900   0.63517   0.00000  Uiso   1.00
C101   C     0.15536   0.48760   0.65434   0.00000  Uiso   1.00
C102   C     0.14907   0.18594   0.57147   0.00000  Uiso   1.00
C103   C     0.13966   0.15884   0.49525   0.00000  Uiso   1.00
C104   C     0.20389   0.13137   0.46095   0.00000  Uiso   1.00
C105   C     0.29012   0.08085   0.37931   0.00000  Uiso   1.00
C106   C     0.21740   0.21796   0.69468   0.00000  Uiso   1.00
C107   C     0.15412   0.18695   0.74399   0.00000  Uiso   1.00
C108   C     0.16287   0.16062   0.82080   0.00000  Uiso   1.00
C109   C     0.09797   0.13456   0.85570   0.00000  Uiso   1.00
C110   C     0.18831   0.28169   0.67693   0.00000  Uiso   1.00
C111   C     0.22582   0.33500   0.69734   0.00000  Uiso   1.00
C112   C     0.18971   0.38870   0.67577   0.00000  Uiso   1.00
C113   C     0.22013   0.18564   0.61200   0.00000  Uiso   1.00
C114   C     0.28439   0.15822   0.57780   0.00000  Uiso   1.00
C115   C     0.27507   0.13107   0.50155   0.00000  Uiso   1.00
H116   H     0.03126   0.21876   0.58852   0.00000  Uiso   1.00
H117   H     0.96315   0.16148   0.70688   0.00000  Uiso   1.00
H118   H     0.02610   0.33583   0.58343   0.00000  Uiso   1.00
H119   H     0.08466   0.15908   0.46391   0.00000  Uiso   1.00
H120   H     0.91897   0.09786   0.85598   0.00000  Uiso   1.00
H121   H     0.05171   0.46550   0.59565   0.00000  Uiso   1.00
H122   H     0.17520   0.09278   0.34363   0.00000  Uiso   1.00
H123   H     0.27272   0.21773   0.72623   0.00000  Uiso   1.00
H124   H     0.21786   0.16039   0.85215   0.00000  Uiso   1.00
H125   H     0.28080   0.33475   0.72869   0.00000  Uiso   1.00
H126   H     0.33937   0.15800   0.60918   0.00000  Uiso   1.00
H127   H     0.12570   0.09699   0.97389   0.00000  Uiso   1.00
H128   H     0.25844   0.46462   0.71355   0.00000  Uiso   1.00
H129   H     0.38193   0.09190   0.46154   0.00000  Uiso   1.00
O130   O     0.98189   0.05974   0.99530   0.00000  Uiso   1.00
O131   O     0.15604   0.54207   0.65373   0.00000  Uiso   1.00
O132   O     0.31805   0.05306   0.32309   0.00000  Uiso   1.00
N133   N     0.97516   0.10551   0.86645   0.00000  Uiso   1.00
N134   N     0.09925   0.44923   0.62306   0.00000  Uiso   1.00
N135   N     0.21471   0.10078   0.38743   0.00000  Uiso   1.00
N136   N     0.08640   0.10504   0.92989   0.00000  Uiso   1.00
N137   N     0.21049   0.44876   0.68650   0.00000  Uiso   1.00
N138   N     0.32595   0.10031   0.45088   0.00000  Uiso   1.00
C139   C     0.41342   0.78148   0.12007   0.00000  Uiso   1.00
C140   C     0.41694   0.81275   0.20347   0.00000  Uiso   1.00
C141   C     0.48187   0.83877   0.23826   0.00000  Uiso   1.00
C142   C     0.47322   0.86513   0.31510   0.00000  Uiso   1.00
C143   C     0.48950   0.91361   0.43845   0.00000  Uiso   1.00
C144   C     0.38274   0.71802   0.13641   0.00000  Uiso   1.00
C145   C     0.41892   0.66439   0.11479   0.00000  Uiso   1.00
C146   C     0.38147   0.61100   0.13517   0.00000  Uiso   1.00
C147   C     0.34464   0.51240   0.15434   0.00000  Uiso   1.00
C148   C     0.35093   0.81406   0.07147   0.00000  Uiso   1.00
C149   C     0.36034   0.84116   0.99525   0.00000  Uiso   1.00
C150   C     0.29611   0.86863   0.96095   0.00000  Uiso   1.00
C151   C     0.20988   0.91915   0.87931   0.00000  Uiso   1.00
C152   C     0.28260   0.78204   0.19468   0.00000  Uiso   1.00
C153   C     0.34588   0.81305   0.24399   0.00000  Uiso   1.00
C154   C     0.33713   0.83938   0.32080   0.00000  Uiso   1.00
C155   C     0.40203   0.86544   0.35570   0.00000  Uiso   1.00
C156   C     0.31169   0.71831   0.17693   0.00000  Uiso   1.00
C157   C     0.27418   0.66500   0.19734   0.00000  Uiso   1.00
C158   C     0.31029   0.61130   0.17577   0.00000  Uiso   1.00
C159   C     0.27987   0.81436   0.11200   0.00000  Uiso   1.00
C160   C     0.21561   0.84178   0.07780   0.00000  Uiso   1.00
C161   C     0.22493   0.86893   0.00155   0.00000  Uiso   1.00
H162   H     0.46874   0.78124   0.08852   0.00000  Uiso   1.00
H163   H     0.53685   0.83852   0.20688   0.00000  Uiso   1.00
H164   H     0.47390   0.66417   0.08343   0.00000  Uiso   1.00
H165   H     0.41534   0.84092   0.96391   0.00000  Uiso   1.00
H166   H     0.58103   0.90214   0.35598   0.00000  Uiso   1.00
H167   H     0.44829   0.53450   0.09565   0.00000  Uiso   1.00
H168   H     0.32480   0.90722   0.84363   0.00000  Uiso   1.00
H169   H     0.22728   0.78227   0.22623   0.00000  Uiso   1.00
H170   H     0.28214   0.83961   0.35215   0.00000  Uiso   1.00
H171   H     0.21920   0.66525   0.22869   0.00000  Uiso   1.00
H172   H     0.16063   0.84200   0.10918   0.00000  Uiso   1.00
H173   H     0.37430   0.90301   0.47389   0.00000  Uiso   1.00
H174   H     0.24156   0.53538   0.21355   0.00000  Uiso   1.00
H175   H     0.11807   0.90810   0.96154   0.00000  Uiso   1.00
O176   O     0.51811   0.94026   0.49530   0.00000  Uiso   1.00
O177   O     0.34396   0.45793   0.15373   0.00000  Uiso   1.00
O178   O     0.18195   0.94694   0.82309   0.00000  Uiso   1.00
N179   N     0.52484   0.89449   0.36645   0.00000  Uiso   1.00
N180   N     0.40075   0.55077   0.12306   0.00000  Uiso   1.00
N181   N     0.28529   0.89922   0.88743   0.00000  Uiso   1.00
N182   N     0.41360   0.89496   0.42989   0.00000  Uiso   1.00
N183   N     0.28951   0.55124   0.18650   0.00000  Uiso   1.00
N184   N     0.17405   0.89969   0.95088   0.00000  Uiso   1.00
C185   C     0.08658   0.28148   0.12007   0.00000  Uiso   1.00
C186   C     0.08306   0.31275   0.20347   0.00000  Uiso   1.00
C187   C     0.01813   0.33877   0.23826   0.00000  Uiso   1.00
C188   C     0.02678   0.36513   0.31510   0.00000  Uiso   1.00
C189   C     0.01050   0.41361   0.43845   0.00000  Uiso   1.00
C190   C     0.11726   0.21802   0.13641   0.00000  Uiso   1.00
C191   C     0.08108   0.16439   0.11479   0.00000  Uiso   1.00
C192   C     0.11853   0.11100   0.13517   0.00000  Uiso   1.00
C193   C     0.15536   0.01240   0.15434   0.00000  Uiso   1.00
C194   C     0.14907   0.31406   0.07147   0.00000  Uiso   1.00
C195   C     0.13966   0.34116   0.99525   0.00000  Uiso   1.00
C196   C     0.20389   0.36863   0.96095   0.00000  Uiso   1.00
C197   C     0.29012   0.41915   0.87931   0.00000  Uiso   1.00
C198   C     0.21740   0.28204   0.19468   0.00000  Uiso   1.00
C199   C     0.15412   0.31305   0.24399   0.00000  Uiso   1.00
C200   C     0.16287   0.33938   0.32080   0.00000  Uiso   1.00
C201   C     0.09797   0.36544   0.35570   0.00000  Uiso   1.00
C202   C     0.18831   0.21831   0.17693   0.00000  Uiso   1.00
C203   C     0.22582   0.16500   0.19734   0.00000  Uiso   1.00
C204   C     0.18971   0.11130   0.17577   0.00000  Uiso   1.00
C205   C     0.22013   0.31436   0.11200   0.00000  Uiso   1.00
C206   C     0.28439   0.34178   0.07780   0.00000  Uiso   1.00
C207   C     0.27507   0.36893   0.00155   0.00000  Uiso   1.00
H208   H     0.03126   0.28124   0.08852   0.00000  Uiso   1.00
H209   H     0.96315   0.33852   0.20688   0.00000  Uiso   1.00
H210   H     0.02610   0.16417   0.08343   0.00000  Uiso   1.00
H211   H     0.08466   0.34092   0.96391   0.00000  Uiso   1.00
H212   H     0.91897   0.40214   0.35598   0.00000  Uiso   1.00
H213   H     0.05171   0.03450   0.09565   0.00000  Uiso   1.00
H214   H     0.17520   0.40722   0.84363   0.00000  Uiso   1.00
H215   H     0.27272   0.28227   0.22623   0.00000  Uiso   1.00
H216   H     0.21786   0.33961   0.35215   0.00000  Uiso   1.00
H217   H     0.28080   0.16525   0.22869   0.00000  Uiso   1.00
H218   H     0.33937   0.34200   0.10918   0.00000  Uiso   1.00
H219   H     0.12570   0.40301   0.47389   0.00000  Uiso   1.00
H220   H     0.25844   0.03538   0.21355   0.00000  Uiso   1.00
H221   H     0.38193   0.40810   0.96154   0.00000  Uiso   1.00
O222   O     0.98189   0.44026   0.49530   0.00000  Uiso   1.00
O223   O     0.15604   0.95793   0.15373   0.00000  Uiso   1.00
O224   O     0.31805   0.44694   0.82309   0.00000  Uiso   1.00
N225   N     0.97516   0.39449   0.36645   0.00000  Uiso   1.00
N226   N     0.09925   0.05077   0.12306   0.00000  Uiso   1.00
N227   N     0.21471   0.39922   0.88743   0.00000  Uiso   1.00
N228   N     0.08640   0.39496   0.42989   0.00000  Uiso   1.00
N229   N     0.21049   0.05124   0.18650   0.00000  Uiso   1.00
N230   N     0.32595   0.39969   0.95088   0.00000  Uiso   1.00
C231   C     0.41342   0.71852   0.62007   0.00000  Uiso   1.00
C232   C     0.41694   0.68725   0.70347   0.00000  Uiso   1.00
C233   C     0.48187   0.66123   0.73826   0.00000  Uiso   1.00
C234   C     0.47322   0.63487   0.81510   0.00000  Uiso   1.00
C235   C     0.48950   0.58639   0.93845   0.00000  Uiso   1.00
C236   C     0.38274   0.78198   0.63641   0.00000  Uiso   1.00
C237   C     0.41892   0.83561   0.61479   0.00000  Uiso   1.00
C238   C     0.38147   0.88900   0.63517   0.00000  Uiso   1.00
C239   C     0.34464   0.98760   0.65434   0.00000  Uiso   1.00
C240   C     0.35093   0.68594   0.57147   0.00000  Uiso   1.00
C241   C     0.36034   0.65884   0.49525   0.00000  Uiso   1.00
C242   C     0.29611   0.63137   0.46095   0.00000  Uiso   1.00
C243   C     0.20988   0.58085   0.37931   0.00000  Uiso   1.00
C244   C     0.28260   0.71796   0.69468   0.00000  Uiso   1.00
C245   C     0.34588   0.68695   0.74399   0.00000  Uiso   1.00
C246   C     0.33713   0.66062   0.82080   0.00000  Uiso   1.00
C247   C     0.40203   0.63456   0.85570   0.00000  Uiso   1.00
C248   C     0.31169   0.78169   0.67693   0.00000  Uiso   1.00
C249   C     0.27418   0.83500   0.69734   0.00000  Uiso   1.00
C250   C     0.31029   0.88870   0.67577   0.00000  Uiso   1.00
C251   C     0.27987   0.68564   0.61200   0.00000  Uiso   1.00
C252   C     0.21561   0.65822   0.57780   0.00000  Uiso   1.00
C253   C     0.22493   0.63107   0.50155   0.00000  Uiso   1.00
H254   H     0.46874   0.71876   0.58852   0.00000  Uiso   1.00
H255   H     0.53685   0.66148   0.70688   0.00000  Uiso   1.00
H256   H     0.47390   0.83583   0.58343   0.00000  Uiso   1.00
H257   H     0.41534   0.65908   0.46391   0.00000  Uiso   1.00
H258   H     0.58103   0.59786   0.85598   0.00000  Uiso   1.00
H259   H     0.44829   0.96550   0.59565   0.00000  Uiso   1.00
H260   H     0.32480   0.59278   0.34363   0.00000  Uiso   1.00
H261   H     0.22728   0.71773   0.72623   0.00000  Uiso   1.00
H262   H     0.28214   0.66039   0.85215   0.00000  Uiso   1.00
H263   H     0.21920   0.83475   0.72869   0.00000  Uiso   1.00
H264   H     0.16063   0.65800   0.60918   0.00000  Uiso   1.00
H265   H     0.37430   0.59699   0.97389   0.00000  Uiso   1.00
H266   H     0.24156   0.96462   0.71355   0.00000  Uiso   1.00
H267   H     0.11807   0.59190   0.46154   0.00000  Uiso   1.00
O268   O     0.51811   0.55974   0.99530   0.00000  Uiso   1.00
O269   O     0.34396   0.04207   0.65373   0.00000  Uiso   1.00
O270   O     0.18195   0.55306   0.32309   0.00000  Uiso   1.00
N271   N     0.52484   0.60551   0.86645   0.00000  Uiso   1.00
N272   N     0.40075   0.94923   0.62306   0.00000  Uiso   1.00
N273   N     0.28529   0.60078   0.38743   0.00000  Uiso   1.00
N274   N     0.41360   0.60504   0.92989   0.00000  Uiso   1.00
N275   N     0.28951   0.94876   0.68650   0.00000  Uiso   1.00
N276   N     0.17405   0.60031   0.45088   0.00000  Uiso   1.00
C277   C     0.91342   0.78148   0.37993   0.00000  Uiso   1.00
C278   C     0.91694   0.81275   0.29653   0.00000  Uiso   1.00
C279   C     0.98187   0.83877   0.26174   0.00000  Uiso   1.00
C280   C     0.97322   0.86513   0.18490   0.00000  Uiso   1.00
C281   C     0.98950   0.91361   0.06155   0.00000  Uiso   1.00
C282   C     0.88274   0.71802   0.36359   0.00000  Uiso   1.00
C283   C     0.91892   0.66439   0.38521   0.00000  Uiso   1.00
C284   C     0.88147   0.61100   0.36483   0.00000  Uiso   1.00
C285   C     0.84464   0.51240   0.34566   0.00000  Uiso   1.00
C286   C     0.85093   0.81406   0.42853   0.00000  Uiso   1.00
C287   C     0.86034   0.84116   0.50475   0.00000  Uiso   1.00
C288   C     0.79611   0.86863   0.53905   0.00000  Uiso   1.00
C289   C     0.70988   0.91915   0.62069   0.00000  Uiso   1.00
C290   C     0.78260   0.78204   0.30532   0.00000  Uiso   1.00
C291   C     0.84588   0.81305   0.25601   0.00000  Uiso   1.00
C292   C     0.83713   0.83938   0.17920   0.00000  Uiso   1.00
C293   C     0.90203   0.86544   0.14430   0.00000  Uiso   1.00
C294   C     0.81169   0.71831   0.32307   0.00000  Uiso   1.00
C295   C     0.77418   0.66500   0.30266   0.00000  Uiso   1.00
C296   C     0.81029   0.61130   0.32423   0.00000  Uiso   1.00
C297   C     0.77987   0.81436   0.38800   0.00000  Uiso   1.00
C298   C     0.71561   0.84178   0.42220   0.00000  Uiso   1.00
C299   C     0.72493   0.86893   0.49845   0.00000  Uiso   1.00
H300   H     0.96874   0.78124   0.41148   0.00000  Uiso   1.00
H301   H     0.03685   0.83852   0.29312   0.00000  Uiso   1.00
H302   H     0.97390   0.66417   0.41657   0.00000  Uiso   1.00
H303   H     0.91534   0.84092   0.53609   0.00000  Uiso   1.00
H304   H     0.08103   0.90214   0.14402   0.00000  Uiso   1.00
H305   H     0.94829   0.53450   0.40435   0.00000  Uiso   1.00
H306   H     0.82480   0.90722   0.65637   0.00000  Uiso   1.00
H307   H     0.72728   0.78227   0.27377   0.00000  Uiso   1.00
H308   H     0.78214   0.83961   0.14785   0.00000  Uiso   1.00
H309   H     0.71920   0.66525   0.27131   0.00000  Uiso   1.00
H310   H     0.66063   0.84200   0.39082   0.00000  Uiso   1.00
H311   H     0.87430   0.90301   0.02611   0.00000  Uiso   1.00
H312   H     0.74156   0.53538   0.28645   0.00000  Uiso   1.00
H313   H     0.61807   0.90810   0.53846   0.00000  Uiso   1.00
O314   O     0.01811   0.94026   0.00470   0.00000  Uiso   1.00
O315   O     0.84396   0.45793   0.34627   0.00000  Uiso   1.00
O316   O     0.68195   0.94694   0.67691   0.00000  Uiso   1.00
N317   N     0.02484   0.89449   0.13355   0.00000  Uiso   1.00
N318   N     0.90075   0.55077   0.37694   0.00000  Uiso   1.00
N319   N     0.78529   0.89922   0.61257   0.00000  Uiso   1.00
N320   N     0.91360   0.89496   0.07011   0.00000  Uiso   1.00
N321   N     0.78951   0.55124   0.31350   0.00000  Uiso   1.00
N322   N     0.67405   0.89969   0.54912   0.00000  Uiso   1.00
C323   C     0.58658   0.21852   0.87993   0.00000  Uiso   1.00
C324   C     0.58306   0.18725   0.79653   0.00000  Uiso   1.00
C325   C     0.51813   0.16123   0.76174   0.00000  Uiso   1.00
C326   C     0.52678   0.13487   0.68490   0.00000  Uiso   1.00
C327   C     0.51050   0.08639   0.56155   0.00000  Uiso   1.00
C328   C     0.61726   0.28198   0.86359   0.00000  Uiso   1.00
C329   C     0.58108   0.33561   0.88521   0.00000  Uiso   1.00
C330   C     0.61853   0.38900   0.86483   0.00000  Uiso   1.00
C331   C     0.65536   0.48760   0.84566   0.00000  Uiso   1.00
C332   C     0.64907   0.18594   0.92853   0.00000  Uiso   1.00
C333   C     0.63966   0.15884   0.00475   0.00000  Uiso   1.00
C334   C     0.70389   0.13137   0.03905   0.00000  Uiso   1.00
C335   C     0.79012   0.08085   0.12069   0.00000  Uiso   1.00
C336   C     0.71740   0.21796   0.80532   0.00000  Uiso   1.00
C337   C     0.65412   0.18695   0.75601   0.00000  Uiso   1.00
C338   C     0.66287   0.16062   0.67920   0.00000  Uiso   1.00
C339   C     0.59797   0.13456   0.64430   0.00000  Uiso   1.00
C340   C     0.68831   0.28169   0.82307   0.00000  Uiso   1.00
C341   C     0.72582   0.33500   0.80266   0.00000  Uiso   1.00
C342   C     0.68971   0.38870   0.82423   0.00000  Uiso   1.00
C343   C     0.72013   0.18564   0.88800   0.00000  Uiso   1.00
C344   C     0.78439   0.15822   0.92220   0.00000  Uiso   1.00
C345   C     0.77507   0.13107   0.99845   0.00000  Uiso   1.00
H346   H     0.53126   0.21876   0.91148   0.00000  Uiso   1.00
H347   H     0.46315   0.16148   0.79312   0.00000  Uiso   1.00
H348   H     0.52610   0.33583   0.91657   0.00000  Uiso   1.00
H349   H     0.58466   0.15908   0.03609   0.00000  Uiso   1.00
H350   H     0.41897   0.09786   0.64402   0.00000  Uiso   1.00
H351   H     0.55171   0.46550   0.90435   0.00000  Uiso   1.00
H352   H     0.67520   0.09278   0.15637   0.00000  Uiso   1.00
H353   H     0.77272   0.21773   0.77377   0.00000  Uiso   1.00
H354   H     0.71786   0.16039   0.64785   0.00000  Uiso   1.00
H355   H     0.78080   0.33475   0.77131   0.00000  Uiso   1.00
H356   H     0.83937   0.15800   0.89082   0.00000  Uiso   1.00
H357   H     0.62570   0.09699   0.52611   0.00000  Uiso   1.00
H358   H     0.75844   0.46462   0.78645   0.00000  Uiso   1.00
H359   H     0.88193   0.09190   0.03846   0.00000  Uiso   1.00
O360   O     0.48189   0.05974   0.50470   0.00000  Uiso   1.00
O361   O     0.65604   0.54207   0.84627   0.00000  Uiso   1.00
O362   O     0.81805   0.05306   0.17691   0.00000  Uiso   1.00
N363   N     0.47516   0.10551   0.63355   0.00000  Uiso   1.00
N364   N     0.59925   0.44923   0.87694   0.00000  Uiso   1.00
N365   N     0.71471   0.10078   0.11257   0.00000  Uiso   1.00
N366   N     0.58640   0.10504   0.57011   0.00000  Uiso   1.00
N367   N     0.71049   0.44876   0.81350   0.00000  Uiso   1.00
N368   N     0.82595   0.10031   0.04912   0.00000  Uiso   1.00
