data_job_06762
_audit_creation_date              2018-12-19
_audit_creation_method            'Materials Studio'
_symmetry_space_group_name_H-M    'P1'
_symmetry_Int_Tables_number       1
_symmetry_cell_setting            triclinic
loop_
_symmetry_equiv_pos_as_xyz
  x,y,z
_cell_length_a                    20.0767
_cell_length_b                    21.7720
_cell_length_c                    22.6541
_cell_angle_alpha                 110.1220
_cell_angle_beta                  103.5584
_cell_angle_gamma                 66.1229
loop_
_atom_site_label
_atom_site_type_symbol
_atom_site_fract_x
_atom_site_fract_y
_atom_site_fract_z
_atom_site_U_iso_or_equiv
_atom_site_adp_type
_atom_site_occupancy
C1     C     0.76204   0.12636   0.46680   0.00000  Uiso   1.00
C2     C     0.77657   0.17935   0.44657   0.00000  Uiso   1.00
C3     C     0.84495   0.17699   0.44082   0.00000  Uiso   1.00
C4     C     0.84666   0.23040   0.42169   0.00000  Uiso   1.00
C5     C     0.87903   0.30451   0.39227   0.00000  Uiso   1.00
C6     C     0.71889   0.16818   0.52383   0.00000  Uiso   1.00
C7     C     0.73875   0.15641   0.58303   0.00000  Uiso   1.00
C8     C     0.69190   0.20041   0.62893   0.00000  Uiso   1.00
C9     C     0.63468   0.25714   0.71945   0.00000  Uiso   1.00
C10    C     0.70942   0.09945   0.41375   0.00000  Uiso   1.00
C11    C     0.72130   0.02989   0.38039   0.00000  Uiso   1.00
C12    C     0.66647   0.01603   0.33362   0.00000  Uiso   1.00
C13    C     0.59455   0.96606   0.25321   0.00000  Uiso   1.00
C14    C     0.64350   0.22543   0.44307   0.00000  Uiso   1.00
C15    C     0.71219   0.23317   0.43368   0.00000  Uiso   1.00
C16    C     0.71380   0.28660   0.41455   0.00000  Uiso   1.00
C17    C     0.78216   0.28431   0.40877   0.00000  Uiso   1.00
C18    C     0.65450   0.22199   0.51094   0.00000  Uiso   1.00
C19    C     0.60761   0.26602   0.55677   0.00000  Uiso   1.00
C20    C     0.62740   0.25432   0.61602   0.00000  Uiso   1.00
C21    C     0.64503   0.15326   0.40085   0.00000  Uiso   1.00
C22    C     0.59016   0.13951   0.35413   0.00000  Uiso   1.00
C23    C     0.60197   0.06994   0.32070   0.00000  Uiso   1.00
H24    H     0.81216   0.08447   0.47685   0.00000  Uiso   1.00
H25    H     0.89476   0.13534   0.45080   0.00000  Uiso   1.00
H26    H     0.78857   0.11476   0.59299   0.00000  Uiso   1.00
H27    H     0.77113   0.98827   0.39038   0.00000  Uiso   1.00
H28    H     0.95795   0.21548   0.41627   0.00000  Uiso   1.00
H29    H     0.73404   0.17207   0.71607   0.00000  Uiso   1.00
H30    H     0.69726   0.90534   0.28883   0.00000  Uiso   1.00
H31    H     0.59337   0.26733   0.43303   0.00000  Uiso   1.00
H32    H     0.66397   0.32823   0.40458   0.00000  Uiso   1.00
H33    H     0.55778   0.30765   0.54677   0.00000  Uiso   1.00
H34    H     0.54034   0.18116   0.34416   0.00000  Uiso   1.00
H35    H     0.77063   0.37204   0.37876   0.00000  Uiso   1.00
H36    H     0.54672   0.32863   0.67856   0.00000  Uiso   1.00
H37    H     0.50994   0.06190   0.25132   0.00000  Uiso   1.00
O38    O     0.91468   0.33053   0.37961   0.00000  Uiso   1.00
O39    O     0.62091   0.27357   0.77294   0.00000  Uiso   1.00
O40    O     0.57266   0.92363   0.21241   0.00000  Uiso   1.00
N41    N     0.90417   0.24396   0.41133   0.00000  Uiso   1.00
N42    N     0.69484   0.20338   0.69163   0.00000  Uiso   1.00
N43    N     0.66044   0.95401   0.29221   0.00000  Uiso   1.00
N44    N     0.80338   0.32820   0.39115   0.00000  Uiso   1.00
N45    N     0.59404   0.28763   0.67145   0.00000  Uiso   1.00
N46    N     0.55965   0.03825   0.27203   0.00000  Uiso   1.00
C47    C     0.36563   0.96980   0.35935   0.00000  Uiso   1.00
C48    C     0.28339   0.99638   0.33909   0.00000  Uiso   1.00
C49    C     0.24212   0.06200   0.33038   0.00000  Uiso   1.00
C50    C     0.16766   0.07627   0.31177   0.00000  Uiso   1.00
C51    C     0.04482   0.12511   0.28180   0.00000  Uiso   1.00
C52    C     0.37495   0.94783   0.41873   0.00000  Uiso   1.00
C53    C     0.41067   0.97263   0.47697   0.00000  Uiso   1.00
C54    C     0.41330   0.94603   0.52541   0.00000  Uiso   1.00
C55    C     0.43266   0.91945   0.61906   0.00000  Uiso   1.00
C56    C     0.39821   0.90258   0.30822   0.00000  Uiso   1.00
C57    C     0.45351   0.88932   0.27355   0.00000  Uiso   1.00
C58    C     0.47572   0.82461   0.22895   0.00000  Uiso   1.00
C59    C     0.53120   0.72778   0.15101   0.00000  Uiso   1.00
C60    C     0.30678   0.87845   0.34182   0.00000  Uiso   1.00
C61    C     0.25143   0.94676   0.32957   0.00000  Uiso   1.00
C62    C     0.17701   0.96094   0.31097   0.00000  Uiso   1.00
C63    C     0.13564   0.02657   0.30223   0.00000  Uiso   1.00
C64    C     0.34299   0.89822   0.40921   0.00000  Uiso   1.00
C65    C     0.34557   0.87157   0.45757   0.00000  Uiso   1.00
C66    C     0.38128   0.89632   0.51587   0.00000  Uiso   1.00
C67    C     0.36625   0.85296   0.29870   0.00000  Uiso   1.00
C68    C     0.38839   0.78826   0.25415   0.00000  Uiso   1.00
C69    C     0.44371   0.77491   0.21941   0.00000  Uiso   1.00
H70    H     0.39051   0.00843   0.36677   0.00000  Uiso   1.00
H71    H     0.26687   0.10039   0.33776   0.00000  Uiso   1.00
H72    H     0.43541   0.01102   0.48432   0.00000  Uiso   1.00
H73    H     0.47823   0.92773   0.28093   0.00000  Uiso   1.00
H74    H     0.11569   0.18047   0.30141   0.00000  Uiso   1.00
H75    H     0.47108   0.99203   0.61045   0.00000  Uiso   1.00
H76    H     0.56138   0.81639   0.18156   0.00000  Uiso   1.00
H77    H     0.28190   0.83982   0.33440   0.00000  Uiso   1.00
H78    H     0.15229   0.92253   0.30361   0.00000  Uiso   1.00
H79    H     0.32083   0.83317   0.45018   0.00000  Uiso   1.00
H80    H     0.36365   0.74988   0.24679   0.00000  Uiso   1.00
H81    H     0.02270   0.03612   0.27370   0.00000  Uiso   1.00
H82    H     0.37809   0.84767   0.58274   0.00000  Uiso   1.00
H83    H     0.46838   0.67203   0.15385   0.00000  Uiso   1.00
O84    O     0.98589   0.16576   0.26790   0.00000  Uiso   1.00
O85    O     0.45216   0.91851   0.67335   0.00000  Uiso   1.00
O86    O     0.57062   0.68808   0.11065   0.00000  Uiso   1.00
N87    N     0.11160   0.13514   0.29910   0.00000  Uiso   1.00
N88    N     0.44385   0.95897   0.58804   0.00000  Uiso   1.00
N89    N     0.52828   0.79475   0.18708   0.00000  Uiso   1.00
N90    N     0.06155   0.05747   0.28419   0.00000  Uiso   1.00
N91    N     0.39381   0.88129   0.57313   0.00000  Uiso   1.00
N92    N     0.47824   0.71708   0.17216   0.00000  Uiso   1.00
C93    C     0.94156   0.71210   0.46462   0.00000  Uiso   1.00
C94    C     0.91809   0.64901   0.44680   0.00000  Uiso   1.00
C95    C     0.84839   0.65146   0.44848   0.00000  Uiso   1.00
C96    C     0.83800   0.58793   0.43037   0.00000  Uiso   1.00
C97    C     0.79285   0.49964   0.40564   0.00000  Uiso   1.00
C98    C     0.00605   0.70063   0.51601   0.00000  Uiso   1.00
C99    C     0.01029   0.74649   0.57587   0.00000  Uiso   1.00
C100   C     0.07395   0.72642   0.61601   0.00000  Uiso   1.00
C101   C     0.16537   0.71829   0.69871   0.00000  Uiso   1.00
C102   C     0.97285   0.70638   0.40697   0.00000  Uiso   1.00
C103   C     0.94920   0.75708   0.37515   0.00000  Uiso   1.00
C104   C     0.98493   0.74186   0.32350   0.00000  Uiso   1.00
C105   C     0.02481   0.74266   0.23689   0.00000  Uiso   1.00
C106   C     0.04707   0.59493   0.42947   0.00000  Uiso   1.00
C107   C     0.97540   0.58536   0.42772   0.00000  Uiso   1.00
C108   C     0.96512   0.52182   0.40959   0.00000  Uiso   1.00
C109   C     0.89541   0.52417   0.41124   0.00000  Uiso   1.00
C110   C     0.06335   0.63699   0.49692   0.00000  Uiso   1.00
C111   C     0.12702   0.61685   0.53698   0.00000  Uiso   1.00
C112   C     0.13136   0.66266   0.59689   0.00000  Uiso   1.00
C113   C     0.03016   0.64274   0.38788   0.00000  Uiso   1.00
C114   C     0.06593   0.62744   0.33627   0.00000  Uiso   1.00
C115   C     0.04234   0.67810   0.30438   0.00000  Uiso   1.00
H116   H     0.89695   0.76165   0.47948   0.00000  Uiso   1.00
H117   H     0.80405   0.70072   0.46326   0.00000  Uiso   1.00
H118   H     0.96593   0.79574   0.59062   0.00000  Uiso   1.00
H119   H     0.90485   0.80632   0.38994   0.00000  Uiso   1.00
H120   H     0.72634   0.60509   0.43688   0.00000  Uiso   1.00
H121   H     0.06769   0.80545   0.70542   0.00000  Uiso   1.00
H122   H     0.93889   0.82778   0.28224   0.00000  Uiso   1.00
H123   H     0.09169   0.54538   0.41461   0.00000  Uiso   1.00
H124   H     0.00948   0.47258   0.39483   0.00000  Uiso   1.00
H125   H     0.17136   0.56760   0.52219   0.00000  Uiso   1.00
H126   H     0.11028   0.57818   0.32151   0.00000  Uiso   1.00
H127   H     0.89308   0.41992   0.38134   0.00000  Uiso   1.00
H128   H     0.23443   0.62029   0.64988   0.00000  Uiso   1.00
H129   H     0.10562   0.64261   0.22670   0.00000  Uiso   1.00
O130   O     0.75212   0.46852   0.39728   0.00000  Uiso   1.00
O131   O     0.19996   0.73139   0.74960   0.00000  Uiso   1.00
O132   O     0.03097   0.76068   0.19439   0.00000  Uiso   1.00
N133   N     0.77686   0.57151   0.42651   0.00000  Uiso   1.00
N134   N     0.09600   0.75883   0.67759   0.00000  Uiso   1.00
N135   N     0.97559   0.77971   0.28196   0.00000  Uiso   1.00
N136   N     0.86658   0.47187   0.39662   0.00000  Uiso   1.00
N137   N     0.18571   0.65919   0.64770   0.00000  Uiso   1.00
N138   N     0.06531   0.68007   0.25207   0.00000  Uiso   1.00
C139   C     0.83687   0.68703   0.97903   0.00000  Uiso   1.00
C140   C     0.75346   0.71328   0.97425   0.00000  Uiso   1.00
C141   C     0.71298   0.69358   0.00151   0.00000  Uiso   1.00
C142   C     0.63720   0.72353   0.99164   0.00000  Uiso   1.00
C143   C     0.51286   0.75703   0.98969   0.00000  Uiso   1.00
C144   C     0.85792   0.75206   0.00643   0.00000  Uiso   1.00
C145   C     0.90527   0.76495   0.06073   0.00000  Uiso   1.00
C146   C     0.91743   0.82754   0.07793   0.00000  Uiso   1.00
C147   C     0.95531   0.92123   0.12591   0.00000  Uiso   1.00
C148   C     0.85634   0.65621   0.91118   0.00000  Uiso   1.00
C149   C     0.90238   0.58850   0.88541   0.00000  Uiso   1.00
C150   C     0.91322   0.57039   0.82243   0.00000  Uiso   1.00
C151   C     0.94864   0.51524   0.72253   0.00000  Uiso   1.00
C152   C     0.77427   0.77526   0.91301   0.00000  Uiso   1.00
C153   C     0.71946   0.76121   0.93839   0.00000  Uiso   1.00
C154   C     0.64372   0.79120   0.92847   0.00000  Uiso   1.00
C155   C     0.60314   0.77153   0.95571   0.00000  Uiso   1.00
C156   C     0.82392   0.79999   0.97057   0.00000  Uiso   1.00
C157   C     0.83602   0.86257   0.98769   0.00000  Uiso   1.00
C158   C     0.88337   0.87555   0.04201   0.00000  Uiso   1.00
C159   C     0.82234   0.70413   0.87532   0.00000  Uiso   1.00
C160   C     0.83312   0.68612   0.81237   0.00000  Uiso   1.00
C161   C     0.87916   0.61840   0.78650   0.00000  Uiso   1.00
H162   H     0.86335   0.64972   0.00695   0.00000  Uiso   1.00
H163   H     0.73931   0.65649   0.02927   0.00000  Uiso   1.00
H164   H     0.93158   0.72785   0.08847   0.00000  Uiso   1.00
H165   H     0.92868   0.55143   0.91318   0.00000  Uiso   1.00
H166   H     0.58681   0.68515   0.03821   0.00000  Uiso   1.00
H167   H     0.99224   0.83561   0.16303   0.00000  Uiso   1.00
H168   H     0.98613   0.46359   0.79339   0.00000  Uiso   1.00
H169   H     0.74780   0.81257   0.88510   0.00000  Uiso   1.00
H170   H     0.61743   0.82828   0.90072   0.00000  Uiso   1.00
H171   H     0.80970   0.89964   0.95992   0.00000  Uiso   1.00
H172   H     0.80680   0.72322   0.78463   0.00000  Uiso   1.00
H173   H     0.48788   0.82459   0.93388   0.00000  Uiso   1.00
H174   H     0.89331   0.97504   0.05870   0.00000  Uiso   1.00
H175   H     0.88720   0.60302   0.68906   0.00000  Uiso   1.00
O176   O     0.45366   0.76229   0.99854   0.00000  Uiso   1.00
O177   O     0.98558   0.95967   0.16229   0.00000  Uiso   1.00
O178   O     0.97756   0.47158   0.67734   0.00000  Uiso   1.00
N179   N     0.58142   0.71580   0.01150   0.00000  Uiso   1.00
N180   N     0.96046   0.85647   0.12820   0.00000  Uiso   1.00
N181   N     0.95476   0.50867   0.78263   0.00000  Uiso   1.00
N182   N     0.52818   0.79083   0.95536   0.00000  Uiso   1.00
N183   N     0.90723   0.93150   0.07206   0.00000  Uiso   1.00
N184   N     0.90153   0.58370   0.72649   0.00000  Uiso   1.00
C185   C     0.38360   0.41725   0.04723   0.00000  Uiso   1.00
C186   C     0.39363   0.45758   0.00871   0.00000  Uiso   1.00
C187   C     0.34340   0.52017   0.99834   0.00000  Uiso   1.00
C188   C     0.36285   0.54876   0.96181   0.00000  Uiso   1.00
C189   C     0.36821   0.61640   0.90587   0.00000  Uiso   1.00
C190   C     0.44901   0.40866   0.09805   0.00000  Uiso   1.00
C191   C     0.44534   0.43012   0.16279   0.00000  Uiso   1.00
C192   C     0.51140   0.41752   0.20145   0.00000  Uiso   1.00
C193   C     0.60273   0.40917   0.28421   0.00000  Uiso   1.00
C194   C     0.39304   0.34402   0.00309   0.00000  Uiso   1.00
C195   C     0.34232   0.31111   0.98800   0.00000  Uiso   1.00
C196   C     0.36128   0.24407   0.94672   0.00000  Uiso   1.00
C197   C     0.36571   0.13535   0.88203   0.00000  Uiso   1.00
C198   C     0.50746   0.35670   0.00077   0.00000  Uiso   1.00
C199   C     0.46091   0.42469   0.98348   0.00000  Uiso   1.00
C200   C     0.48044   0.45319   0.94695   0.00000  Uiso   1.00
C201   C     0.43025   0.51581   0.93653   0.00000  Uiso   1.00
C202   C     0.51628   0.37578   0.07282   0.00000  Uiso   1.00
C203   C     0.58237   0.36313   0.11139   0.00000  Uiso   1.00
C204   C     0.57880   0.38457   0.17617   0.00000  Uiso   1.00
C205   C     0.46032   0.31113   0.97785   0.00000  Uiso   1.00
C206   C     0.47936   0.24412   0.93659   0.00000  Uiso   1.00
C207   C     0.42867   0.21112   0.92144   0.00000  Uiso   1.00
H208   H     0.33123   0.44285   0.06687   0.00000  Uiso   1.00
H209   H     0.29135   0.54561   0.01789   0.00000  Uiso   1.00
H210   H     0.39327   0.45556   0.18230   0.00000  Uiso   1.00
H211   H     0.29027   0.33657   0.00753   0.00000  Uiso   1.00
H212   H     0.27682   0.64505   0.95246   0.00000  Uiso   1.00
H213   H     0.49171   0.45516   0.29914   0.00000  Uiso   1.00
H214   H     0.27452   0.20424   0.93061   0.00000  Uiso   1.00
H215   H     0.55984   0.33110   0.98113   0.00000  Uiso   1.00
H216   H     0.53251   0.42772   0.92743   0.00000  Uiso   1.00
H217   H     0.63442   0.33768   0.09185   0.00000  Uiso   1.00
H218   H     0.53142   0.21869   0.91708   0.00000  Uiso   1.00
H219   H     0.47255   0.54937   0.87905   0.00000  Uiso   1.00
H220   H     0.68745   0.35948   0.22573   0.00000  Uiso   1.00
H221   H     0.47025   0.10856   0.85719   0.00000  Uiso   1.00
O222   O     0.35259   0.66280   0.88200   0.00000  Uiso   1.00
O223   O     0.63452   0.41366   0.33683   0.00000  Uiso   1.00
O224   O     0.34957   0.08447   0.85331   0.00000  Uiso   1.00
N225   N     0.32663   0.60926   0.94254   0.00000  Uiso   1.00
N226   N     0.52754   0.43174   0.26667   0.00000  Uiso   1.00
N227   N     0.32449   0.19714   0.92213   0.00000  Uiso   1.00
N228   N     0.43195   0.55778   0.90304   0.00000  Uiso   1.00
N229   N     0.63287   0.38025   0.22717   0.00000  Uiso   1.00
N230   N     0.42981   0.14566   0.88263   0.00000  Uiso   1.00
C231   C     0.14663   0.23870   0.05190   0.00000  Uiso   1.00
C232   C     0.18264   0.15965   0.02605   0.00000  Uiso   1.00
C233   C     0.25446   0.12419   0.01175   0.00000  Uiso   1.00
C234   C     0.27699   0.05183   0.98860   0.00000  Uiso   1.00
C235   C     0.34016   0.93449   0.94979   0.00000  Uiso   1.00
C236   C     0.11820   0.25077   0.11324   0.00000  Uiso   1.00
C237   C     0.13583   0.29192   0.17225   0.00000  Uiso   1.00
C238   C     0.10410   0.29627   0.22250   0.00000  Uiso   1.00
C239   C     0.06718   0.32043   0.31905   0.00000  Uiso   1.00
C240   C     0.07896   0.26083   0.00567   0.00000  Uiso   1.00
C241   C     0.06358   0.31046   0.97424   0.00000  Uiso   1.00
C242   C     0.99881   0.32329   0.93393   0.00000  Uiso   1.00
C243   C     0.90096   0.36307   0.86345   0.00000  Uiso   1.00
C244   C     0.05892   0.17325   0.03621   0.00000  Uiso   1.00
C245   C     0.13500   0.12410   0.01753   0.00000  Uiso   1.00
C246   C     0.15742   0.05177   0.99439   0.00000  Uiso   1.00
C247   C     0.22926   0.01621   0.98006   0.00000  Uiso   1.00
C248   C     0.07056   0.21522   0.10472   0.00000  Uiso   1.00
C249   C     0.03879   0.21950   0.15489   0.00000  Uiso   1.00
C250   C     0.05637   0.26065   0.21397   0.00000  Uiso   1.00
C251   C     0.03132   0.22528   0.99714   0.00000  Uiso   1.00
C252   C     0.96655   0.23804   0.95688   0.00000  Uiso   1.00
C253   C     0.95108   0.28767   0.92539   0.00000  Uiso   1.00
H254   H     0.18372   0.26638   0.05854   0.00000  Uiso   1.00
H255   H     0.29132   0.15172   0.01836   0.00000  Uiso   1.00
H256   H     0.17270   0.31943   0.17883   0.00000  Uiso   1.00
H257   H     0.10046   0.33796   0.98084   0.00000  Uiso   1.00
H258   H     0.38960   0.00892   0.97007   0.00000  Uiso   1.00
H259   H     0.13947   0.36257   0.30844   0.00000  Uiso   1.00
H260   H     0.98715   0.40164   0.89095   0.00000  Uiso   1.00
H261   H     0.02183   0.14557   0.02958   0.00000  Uiso   1.00
H262   H     0.12054   0.02427   0.98780   0.00000  Uiso   1.00
H263   H     0.00192   0.19199   0.14828   0.00000  Uiso   1.00
H264   H     0.92969   0.21052   0.95029   0.00000  Uiso   1.00
H265   H     0.25100   0.90548   0.94528   0.00000  Uiso   1.00
H266   H     0.00086   0.25913   0.28365   0.00000  Uiso   1.00
H267   H     0.84854   0.29820   0.86615   0.00000  Uiso   1.00
O268   O     0.38816   0.87959   0.93074   0.00000  Uiso   1.00
O269   O     0.05998   0.34357   0.37466   0.00000  Uiso   1.00
O270   O     0.86015   0.39483   0.82692   0.00000  Uiso   1.00
N271   N     0.34343   0.00122   0.96996   0.00000  Uiso   1.00
N272   N     0.10958   0.33185   0.28631   0.00000  Uiso   1.00
N273   N     0.96716   0.36840   0.89601   0.00000  Uiso   1.00
N274   N     0.26885   0.94556   0.95662   0.00000  Uiso   1.00
N275   N     0.03499   0.27619   0.27297   0.00000  Uiso   1.00
N276   N     0.89258   0.31274   0.88266   0.00000  Uiso   1.00
C277   C     0.16142   0.00899   0.65122   0.00000  Uiso   1.00
C278   C     0.09180   0.03488   0.68250   0.00000  Uiso   1.00
C279   C     0.04712   0.10428   0.70395   0.00000  Uiso   1.00
C280   C     0.98590   0.11714   0.73118   0.00000  Uiso   1.00
C281   C     0.88019   0.16565   0.77888   0.00000  Uiso   1.00
C282   C     0.15020   0.95776   0.58742   0.00000  Uiso   1.00
C283   C     0.15464   0.96232   0.52894   0.00000  Uiso   1.00
C284   C     0.14259   0.91026   0.47613   0.00000  Uiso   1.00
C285   C     0.12761   0.83901   0.37622   0.00000  Uiso   1.00
C286   C     0.22220   0.96541   0.69073   0.00000  Uiso   1.00
C287   C     0.28718   0.97638   0.71910   0.00000  Uiso   1.00
C288   C     0.33576   0.93075   0.75326   0.00000  Uiso   1.00
C289   C     0.43256   0.87138   0.81376   0.00000  Uiso   1.00
C290   C     0.13214   0.90841   0.66143   0.00000  Uiso   1.00
C291   C     0.07589   0.98025   0.68804   0.00000  Uiso   1.00
C292   C     0.01472   0.99301   0.71524   0.00000  Uiso   1.00
C293   C     0.96997   0.06242   0.73674   0.00000  Uiso   1.00
C294   C     0.13430   0.90313   0.59296   0.00000  Uiso   1.00
C295   C     0.12224   0.85105   0.54023   0.00000  Uiso   1.00
C296   C     0.12666   0.85553   0.48168   0.00000  Uiso   1.00
C297   C     0.20629   0.91078   0.69628   0.00000  Uiso   1.00
C298   C     0.25478   0.86512   0.73039   0.00000  Uiso   1.00
C299   C     0.31983   0.87602   0.75881   0.00000  Uiso   1.00
H300   H     0.17380   0.05151   0.64690   0.00000  Uiso   1.00
H301   H     0.05945   0.14654   0.69965   0.00000  Uiso   1.00
H302   H     0.16696   0.00459   0.52466   0.00000  Uiso   1.00
H303   H     0.29947   0.01866   0.71480   0.00000  Uiso   1.00
H304   H     0.92563   0.22780   0.76056   0.00000  Uiso   1.00
H305   H     0.15235   0.92849   0.39159   0.00000  Uiso   1.00
H306   H     0.43178   0.95815   0.79253   0.00000  Uiso   1.00
H307   H     0.11976   0.86588   0.66574   0.00000  Uiso   1.00
H308   H     0.00243   0.95072   0.71953   0.00000  Uiso   1.00
H309   H     0.10994   0.80878   0.54454   0.00000  Uiso   1.00
H310   H     0.24246   0.82285   0.73467   0.00000  Uiso   1.00
H311   H     0.87935   0.06887   0.77668   0.00000  Uiso   1.00
H312   H     0.10607   0.76956   0.40771   0.00000  Uiso   1.00
H313   H     0.38551   0.79922   0.80866   0.00000  Uiso   1.00
O314   O     0.82627   0.20749   0.80364   0.00000  Uiso   1.00
O315   O     0.12373   0.81481   0.31957   0.00000  Uiso   1.00
O316   O     0.49034   0.85372   0.84560   0.00000  Uiso   1.00
N317   N     0.93085   0.17875   0.75698   0.00000  Uiso   1.00
N318   N     0.14280   0.89892   0.41202   0.00000  Uiso   1.00
N319   N     0.40406   0.92664   0.78685   0.00000  Uiso   1.00
N320   N     0.90595   0.09323   0.76566   0.00000  Uiso   1.00
N321   N     0.11790   0.81340   0.42070   0.00000  Uiso   1.00
N322   N     0.37916   0.84112   0.79553   0.00000  Uiso   1.00
C323   C     0.20734   0.40592   0.68002   0.00000  Uiso   1.00
C324   C     0.28175   0.35919   0.70374   0.00000  Uiso   1.00
C325   C     0.29549   0.29770   0.71789   0.00000  Uiso   1.00
C326   C     0.36729   0.26250   0.73894   0.00000  Uiso   1.00
C327   C     0.47433   0.18604   0.77473   0.00000  Uiso   1.00
C328   C     0.21748   0.41219   0.61796   0.00000  Uiso   1.00
C329   C     0.17715   0.39527   0.55998   0.00000  Uiso   1.00
C330   C     0.19485   0.40471   0.50881   0.00000  Uiso   1.00
C331   C     0.20205   0.41059   0.41144   0.00000  Uiso   1.00
C332   C     0.19344   0.47849   0.72673   0.00000  Uiso   1.00
C333   C     0.13291   0.51734   0.76020   0.00000  Uiso   1.00
C334   C     0.13036   0.58260   0.80061   0.00000  Uiso   1.00
C335   C     0.10025   0.69142   0.87212   0.00000  Uiso   1.00
C336   C     0.31044   0.45277   0.69225   0.00000  Uiso   1.00
C337   C     0.33776   0.38463   0.71038   0.00000  Uiso   1.00
C338   C     0.40956   0.34952   0.73142   0.00000  Uiso   1.00
C339   C     0.42340   0.28799   0.74559   0.00000  Uiso   1.00
C340   C     0.27348   0.43763   0.62460   0.00000  Uiso   1.00
C341   C     0.29123   0.44710   0.57351   0.00000  Uiso   1.00
C342   C     0.25095   0.43020   0.51547   0.00000  Uiso   1.00
C343   C     0.24945   0.50394   0.73338   0.00000  Uiso   1.00
C344   C     0.24698   0.56916   0.77374   0.00000  Uiso   1.00
C345   C     0.18646   0.60809   0.80726   0.00000  Uiso   1.00
H346   H     0.16374   0.38611   0.67485   0.00000  Uiso   1.00
H347   H     0.25213   0.27802   0.71274   0.00000  Uiso   1.00
H348   H     0.13382   0.37559   0.55486   0.00000  Uiso   1.00
H349   H     0.08958   0.49763   0.75505   0.00000  Uiso   1.00
H350   H     0.37484   0.16938   0.75765   0.00000  Uiso   1.00
H351   H     0.12534   0.37514   0.42475   0.00000  Uiso   1.00
H352   H     0.03206   0.63248   0.84691   0.00000  Uiso   1.00
H353   H     0.35404   0.47258   0.69742   0.00000  Uiso   1.00
H354   H     0.45289   0.36923   0.73655   0.00000  Uiso   1.00
H355   H     0.33457   0.46679   0.57867   0.00000  Uiso   1.00
H356   H     0.29033   0.58883   0.77886   0.00000  Uiso   1.00
H357   H     0.53778   0.24341   0.77698   0.00000  Uiso   1.00
H358   H     0.28828   0.44916   0.44408   0.00000  Uiso   1.00
H359   H     0.19500   0.70651   0.86623   0.00000  Uiso   1.00
O360   O     0.51790   0.13683   0.79263   0.00000  Uiso   1.00
O361   O     0.19056   0.40679   0.35588   0.00000  Uiso   1.00
O362   O     0.06818   0.74442   0.90974   0.00000  Uiso   1.00
N363   N     0.39962   0.20100   0.75684   0.00000  Uiso   1.00
N364   N     0.16636   0.39335   0.44560   0.00000  Uiso   1.00
N365   N     0.07914   0.63396   0.84027   0.00000  Uiso   1.00
N366   N     0.48730   0.24083   0.76724   0.00000  Uiso   1.00
N367   N     0.25404   0.43319   0.45600   0.00000  Uiso   1.00
N368   N     0.16682   0.67379   0.85067   0.00000  Uiso   1.00
C369   C     0.72599   0.58723   0.61803   0.00000  Uiso   1.00
C370   C     0.73521   0.65634   0.62771   0.00000  Uiso   1.00
C371   C     0.79616   0.66360   0.61616   0.00000  Uiso   1.00
C372   C     0.79394   0.73131   0.62800   0.00000  Uiso   1.00
C373   C     0.81752   0.82975   0.63957   0.00000  Uiso   1.00
C374   C     0.65589   0.58895   0.57325   0.00000  Uiso   1.00
C375   C     0.65015   0.53956   0.51591   0.00000  Uiso   1.00
C376   C     0.58115   0.55054   0.48190   0.00000  Uiso   1.00
C377   C     0.48157   0.54433   0.40894   0.00000  Uiso   1.00
C378   C     0.70991   0.58995   0.68159   0.00000  Uiso   1.00
C379   C     0.74957   0.54139   0.71535   0.00000  Uiso   1.00
C380   C     0.72604   0.55321   0.77255   0.00000  Uiso   1.00
C381   C     0.71033   0.54855   0.86781   0.00000  Uiso   1.00
C382   C     0.61368   0.69456   0.65958   0.00000  Uiso   1.00
C383   C     0.67420   0.71463   0.65028   0.00000  Uiso   1.00
C384   C     0.67189   0.78235   0.66214   0.00000  Uiso   1.00
C385   C     0.73282   0.78972   0.65061   0.00000  Uiso   1.00
C386   C     0.59488   0.64725   0.59581   0.00000  Uiso   1.00
C387   C     0.52588   0.65831   0.56188   0.00000  Uiso   1.00
C388   C     0.52003   0.60894   0.50451   0.00000  Uiso   1.00
C389   C     0.64890   0.64825   0.70416   0.00000  Uiso   1.00
C390   C     0.62530   0.66014   0.76132   0.00000  Uiso   1.00
C391   C     0.66492   0.61161   0.79516   0.00000  Uiso   1.00
H392   H     0.77349   0.54184   0.60045   0.00000  Uiso   1.00
H393   H     0.84336   0.61847   0.59869   0.00000  Uiso   1.00
H394   H     0.69736   0.49444   0.49846   0.00000  Uiso   1.00
H395   H     0.79677   0.49628   0.69786   0.00000  Uiso   1.00
H396   H     0.89390   0.72914   0.60667   0.00000  Uiso   1.00
H397   H     0.58607   0.46761   0.39533   0.00000  Uiso   1.00
H398   H     0.79569   0.47148   0.81582   0.00000  Uiso   1.00
H399   H     0.56618   0.73995   0.67715   0.00000  Uiso   1.00
H400   H     0.62467   0.82746   0.67960   0.00000  Uiso   1.00
H401   H     0.47868   0.70342   0.57937   0.00000  Uiso   1.00
H402   H     0.57809   0.70526   0.77877   0.00000  Uiso   1.00
H403   H     0.71641   0.89876   0.67234   0.00000  Uiso   1.00
H404   H     0.40858   0.63722   0.46100   0.00000  Uiso   1.00
H405   H     0.61820   0.64109   0.88149   0.00000  Uiso   1.00
O406   O     0.84737   0.86794   0.63971   0.00000  Uiso   1.00
O407   O     0.44350   0.52481   0.36245   0.00000  Uiso   1.00
O408   O     0.71852   0.52989   0.91412   0.00000  Uiso   1.00
N409   N     0.84411   0.75705   0.62180   0.00000  Uiso   1.00
N410   N     0.55630   0.51254   0.42421   0.00000  Uiso   1.00
N411   N     0.75227   0.51615   0.81732   0.00000  Uiso   1.00
N412   N     0.74860   0.84832   0.65714   0.00000  Uiso   1.00
N413   N     0.46080   0.60381   0.45955   0.00000  Uiso   1.00
N414   N     0.65676   0.60742   0.85266   0.00000  Uiso   1.00
C415   C     0.75445   0.45990   0.05299   0.00000  Uiso   1.00
C416   C     0.83305   0.45849   0.06678   0.00000  Uiso   1.00
C417   C     0.85960   0.49696   0.04680   0.00000  Uiso   1.00
C418   C     0.93319   0.48833   0.06432   0.00000  Uiso   1.00
C419   C     0.04836   0.49303   0.08021   0.00000  Uiso   1.00
C420   C     0.75935   0.38434   0.02069   0.00000  Uiso   1.00
C421   C     0.72391   0.36048   0.96196   0.00000  Uiso   1.00
C422   C     0.73545   0.28943   0.94070   0.00000  Uiso   1.00
C423   C     0.73615   0.17904   0.88505   0.00000  Uiso   1.00
C424   C     0.72816   0.47947   0.11716   0.00000  Uiso   1.00
C425   C     0.66648   0.53558   0.13954   0.00000  Uiso   1.00
C426   C     0.65176   0.54462   0.19949   0.00000  Uiso   1.00
C427   C     0.60402   0.58192   0.29362   0.00000  Uiso   1.00
C428   C     0.83794   0.37616   0.11965   0.00000  Uiso   1.00
C429   C     0.87840   0.41300   0.10299   0.00000  Uiso   1.00
C430   C     0.95198   0.40432   0.12055   0.00000  Uiso   1.00
C431   C     0.97863   0.44277   0.10060   0.00000  Uiso   1.00
C432   C     0.80470   0.33886   0.05690   0.00000  Uiso   1.00
C433   C     0.81629   0.26784   0.03572   0.00000  Uiso   1.00
C434   C     0.78089   0.24387   0.97697   0.00000  Uiso   1.00
C435   C     0.77351   0.43399   0.15337   0.00000  Uiso   1.00
C436   C     0.75887   0.44294   0.21330   0.00000  Uiso   1.00
C437   C     0.69719   0.49905   0.23576   0.00000  Uiso   1.00
H438   H     0.71914   0.49530   0.02479   0.00000  Uiso   1.00
H439   H     0.82449   0.53214   0.01877   0.00000  Uiso   1.00
H440   H     0.68881   0.39569   0.93395   0.00000  Uiso   1.00
H441   H     0.63140   0.57076   0.11150   0.00000  Uiso   1.00
H442   H     0.96129   0.55291   0.02804   0.00000  Uiso   1.00
H443   H     0.67520   0.26519   0.84921   0.00000  Uiso   1.00
H444   H     0.55413   0.63437   0.22361   0.00000  Uiso   1.00
H445   H     0.87325   0.34075   0.14784   0.00000  Uiso   1.00
H446   H     0.98706   0.36912   0.14857   0.00000  Uiso   1.00
H447   H     0.85139   0.23266   0.06376   0.00000  Uiso   1.00
H448   H     0.79397   0.40773   0.24130   0.00000  Uiso   1.00
H449   H     0.09325   0.42059   0.13339   0.00000  Uiso   1.00
H450   H     0.80715   0.13287   0.95456   0.00000  Uiso   1.00
H451   H     0.68608   0.50205   0.32896   0.00000  Uiso   1.00
O452   O     0.09936   0.50818   0.07896   0.00000  Uiso   1.00
O453   O     0.72401   0.13071   0.84435   0.00000  Uiso   1.00
O454   O     0.56517   0.61506   0.33555   0.00000  Uiso   1.00
N455   N     0.97673   0.51789   0.05275   0.00000  Uiso   1.00
N456   N     0.70926   0.24889   0.88555   0.00000  Uiso   1.00
N457   N     0.59605   0.59403   0.23557   0.00000  Uiso   1.00
N458   N     0.04773   0.44669   0.10943   0.00000  Uiso   1.00
N459   N     0.78026   0.17769   0.94223   0.00000  Uiso   1.00
N460   N     0.66706   0.52283   0.29226   0.00000  Uiso   1.00
C461   C     0.28612   0.81820   0.05137   0.00000  Uiso   1.00
C462   C     0.26296   0.79040   0.09348   0.00000  Uiso   1.00
C463   C     0.29778   0.72459   0.10325   0.00000  Uiso   1.00
C464   C     0.26810   0.70914   0.14349   0.00000  Uiso   1.00
C465   C     0.24159   0.65856   0.20438   0.00000  Uiso   1.00
C466   C     0.21947   0.83992   0.00409   0.00000  Uiso   1.00
C467   C     0.21773   0.81573   0.93871   0.00000  Uiso   1.00
C468   C     0.15144   0.84197   0.90372   0.00000  Uiso   1.00
C469   C     0.05742   0.86830   0.82584   0.00000  Uiso   1.00
C470   C     0.29737   0.88569   0.09360   0.00000  Uiso   1.00
C471   C     0.36112   0.90000   0.10347   0.00000  Uiso   1.00
C472   C     0.36040   0.96478   0.14383   0.00000  Uiso   1.00
C473   C     0.38733   0.06218   0.20492   0.00000  Uiso   1.00
C474   C     0.17148   0.90781   0.10546   0.00000  Uiso   1.00
C475   C     0.20069   0.83907   0.12286   0.00000  Uiso   1.00
C476   C     0.17095   0.82372   0.16310   0.00000  Uiso   1.00
C477   C     0.20572   0.75789   0.17293   0.00000  Uiso   1.00
C478   C     0.15720   0.88858   0.03347   0.00000  Uiso   1.00
C479   C     0.09090   0.91487   0.99857   0.00000  Uiso   1.00
C480   C     0.08905   0.89073   0.93315   0.00000  Uiso   1.00
C481   C     0.23510   0.93436   0.12299   0.00000  Uiso   1.00
C482   C     0.23428   0.99913   0.16333   0.00000  Uiso   1.00
C483   C     0.29802   0.01354   0.17326   0.00000  Uiso   1.00
H484   H     0.33460   0.78031   0.02849   0.00000  Uiso   1.00
H485   H     0.34597   0.68693   0.08049   0.00000  Uiso   1.00
H486   H     0.26593   0.77808   0.91599   0.00000  Uiso   1.00
H487   H     0.40930   0.86233   0.08073   0.00000  Uiso   1.00
H488   H     0.33110   0.60486   0.15109   0.00000  Uiso   1.00
H489   H     0.16234   0.79706   0.80423   0.00000  Uiso   1.00
H490   H     0.46465   0.97471   0.15160   0.00000  Uiso   1.00
H491   H     0.12300   0.94570   0.12834   0.00000  Uiso   1.00
H492   H     0.12276   0.86140   0.18583   0.00000  Uiso   1.00
H493   H     0.04272   0.95253   0.02132   0.00000  Uiso   1.00
H494   H     0.18609   0.03678   0.18606   0.00000  Uiso   1.00
H495   H     0.14993   0.74646   0.23658   0.00000  Uiso   1.00
H496   H     0.98117   0.93865   0.88971   0.00000  Uiso   1.00
H497   H     0.28349   0.11631   0.23709   0.00000  Uiso   1.00
O498   O     0.24416   0.61721   0.22984   0.00000  Uiso   1.00
O499   O     0.02276   0.86937   0.77476   0.00000  Uiso   1.00
O500   O     0.41939   0.10245   0.23051   0.00000  Uiso   1.00
N501   N     0.28850   0.64976   0.16333   0.00000  Uiso   1.00
N502   N     0.13072   0.82944   0.83903   0.00000  Uiso   1.00
N503   N     0.41335   0.99554   0.16379   0.00000  Uiso   1.00
N504   N     0.19102   0.72595   0.20934   0.00000  Uiso   1.00
N505   N     0.03324   0.90563   0.88503   0.00000  Uiso   1.00
N506   N     0.31587   0.07174   0.20979   0.00000  Uiso   1.00
C507   C     0.57155   0.02230   0.04395   0.00000  Uiso   1.00
C508   C     0.52012   0.09647   0.07171   0.00000  Uiso   1.00
C509   C     0.44921   0.11492   0.08467   0.00000  Uiso   1.00
C510   C     0.41109   0.18560   0.10998   0.00000  Uiso   1.00
C511   C     0.32638   0.29311   0.15126   0.00000  Uiso   1.00
C512   C     0.59382   0.02317   0.98443   0.00000  Uiso   1.00
C513   C     0.58489   0.97998   0.92400   0.00000  Uiso   1.00
C514   C     0.60882   0.98895   0.87583   0.00000  Uiso   1.00
C515   C     0.63858   0.98262   0.78160   0.00000  Uiso   1.00
C516   C     0.64073   0.01079   0.09071   0.00000  Uiso   1.00
C517   C     0.67127   0.95719   0.11964   0.00000  Uiso   1.00
C518   C     0.73471   0.95572   0.16095   0.00000  Uiso   1.00
C519   C     0.83732   0.93018   0.23175   0.00000  Uiso   1.00
C520   C     0.62994   0.11501   0.06586   0.00000  Uiso   1.00
C521   C     0.55183   0.14683   0.08361   0.00000  Uiso   1.00
C522   C     0.51381   0.21749   0.10892   0.00000  Uiso   1.00
C523   C     0.44286   0.23604   0.12191   0.00000  Uiso   1.00
C524   C     0.62553   0.07352   0.99633   0.00000  Uiso   1.00
C525   C     0.64948   0.08255   0.94824   0.00000  Uiso   1.00
C526   C     0.64059   0.03939   0.88775   0.00000  Uiso   1.00
C527   C     0.67245   0.06115   0.10262   0.00000  Uiso   1.00
C528   C     0.73586   0.05976   0.14389   0.00000  Uiso   1.00
C529   C     0.76648   0.00617   0.17287   0.00000  Uiso   1.00
H530   H     0.54687   0.98310   0.03468   0.00000  Uiso   1.00
H531   H     0.42469   0.07594   0.07545   0.00000  Uiso   1.00
H532   H     0.56035   0.94102   0.91480   0.00000  Uiso   1.00
H533   H     0.64671   0.91823   0.11042   0.00000  Uiso   1.00
H534   H     0.30320   0.20108   0.12588   0.00000  Uiso   1.00
H535   H     0.58928   0.91657   0.78715   0.00000  Uiso   1.00
H536   H     0.77139   0.86852   0.19964   0.00000  Uiso   1.00
H537   H     0.65463   0.15421   0.07513   0.00000  Uiso   1.00
H538   H     0.53836   0.25645   0.11812   0.00000  Uiso   1.00
H539   H     0.67403   0.12152   0.95747   0.00000  Uiso   1.00
H540   H     0.76038   0.09874   0.15309   0.00000  Uiso   1.00
H541   H     0.39547   0.34759   0.16051   0.00000  Uiso   1.00
H542   H     0.68155   0.06308   0.82178   0.00000  Uiso   1.00
H543   H     0.86365   0.01503   0.23427   0.00000  Uiso   1.00
O544   O     0.27090   0.33850   0.17073   0.00000  Uiso   1.00
O545   O     0.64623   0.96523   0.72633   0.00000  Uiso   1.00
O546   O     0.88515   0.90219   0.26751   0.00000  Uiso   1.00
N547   N     0.34088   0.22153   0.12814   0.00000  Uiso   1.00
N548   N     0.60833   0.95554   0.81144   0.00000  Uiso   1.00
N549   N     0.77860   0.91060   0.19708   0.00000  Uiso   1.00
N550   N     0.39053   0.30036   0.14677   0.00000  Uiso   1.00
N551   N     0.65798   0.03437   0.83008   0.00000  Uiso   1.00
N552   N     0.82825   0.98944   0.21571   0.00000  Uiso   1.00
