data_job_03067
_audit_creation_date              2018-12-19
_audit_creation_method            'Materials Studio'
_symmetry_space_group_name_H-M    'P1'
_symmetry_Int_Tables_number       1
_symmetry_cell_setting            triclinic
loop_
_symmetry_equiv_pos_as_xyz
  x,y,z
_cell_length_a                    29.6141
_cell_length_b                    12.5886
_cell_length_c                    39.3044
_cell_angle_alpha                 90.0000
_cell_angle_beta                  134.8558
_cell_angle_gamma                 90.0000
loop_
_atom_site_label
_atom_site_type_symbol
_atom_site_fract_x
_atom_site_fract_y
_atom_site_fract_z
_atom_site_U_iso_or_equiv
_atom_site_adp_type
_atom_site_occupancy
C1     C     0.42676   0.54524   0.37922   0.00000  Uiso   1.00
C2     C     0.37870   0.46950   0.36974   0.00000  Uiso   1.00
C3     C     0.39340   0.37957   0.39640   0.00000  Uiso   1.00
C4     C     0.34261   0.32072   0.38193   0.00000  Uiso   1.00
C5     C     0.27760   0.19850   0.37324   0.00000  Uiso   1.00
C6     C     0.41065   0.54900   0.33285   0.00000  Uiso   1.00
C7     C     0.45222   0.52593   0.32849   0.00000  Uiso   1.00
C8     C     0.42833   0.53401   0.28296   0.00000  Uiso   1.00
C9     C     0.41294   0.53531   0.21700   0.00000  Uiso   1.00
C10    C     0.41120   0.65518   0.38496   0.00000  Uiso   1.00
C11    C     0.45323   0.72140   0.42441   0.00000  Uiso   1.00
C12    C     0.42980   0.81890   0.42275   0.00000  Uiso   1.00
C13    C     0.41527   0.98505   0.43770   0.00000  Uiso   1.00
C14    C     0.31043   0.60065   0.30610   0.00000  Uiso   1.00
C15    C     0.31551   0.49960   0.33003   0.00000  Uiso   1.00
C16    C     0.26469   0.44087   0.31551   0.00000  Uiso   1.00
C17    C     0.27931   0.35087   0.34214   0.00000  Uiso   1.00
C18    C     0.34747   0.57910   0.29313   0.00000  Uiso   1.00
C19    C     0.32351   0.58723   0.24760   0.00000  Uiso   1.00
C20    C     0.36503   0.56416   0.24317   0.00000  Uiso   1.00
C21    C     0.34801   0.68528   0.34525   0.00000  Uiso   1.00
C22    C     0.32452   0.78270   0.34352   0.00000  Uiso   1.00
C23    C     0.36651   0.84905   0.38296   0.00000  Uiso   1.00
H24    H     0.47595   0.52181   0.41014   0.00000  Uiso   1.00
H25    H     0.44230   0.35630   0.42713   0.00000  Uiso   1.00
H26    H     0.50111   0.50265   0.35924   0.00000  Uiso   1.00
H27    H     0.50212   0.69809   0.45514   0.00000  Uiso   1.00
H28    H     0.37713   0.18605   0.42845   0.00000  Uiso   1.00
H29    H     0.50115   0.49467   0.28529   0.00000  Uiso   1.00
H30    H     0.50328   0.90679   0.48752   0.00000  Uiso   1.00
H31    H     0.26123   0.62408   0.27518   0.00000  Uiso   1.00
H32    H     0.21580   0.46418   0.28477   0.00000  Uiso   1.00
H33    H     0.27461   0.61053   0.21687   0.00000  Uiso   1.00
H34    H     0.27562   0.80596   0.31278   0.00000  Uiso   1.00
H35    H     0.19329   0.27360   0.31290   0.00000  Uiso   1.00
H36    H     0.31731   0.58223   0.16974   0.00000  Uiso   1.00
H37    H     0.31944   0.99434   0.37197   0.00000  Uiso   1.00
O38    O     0.25919   0.12277   0.37941   0.00000  Uiso   1.00
O39    O     0.42191   0.52769   0.19159   0.00000  Uiso   1.00
O40    O     0.42470   0.06837   0.45692   0.00000  Uiso   1.00
N41    N     0.34010   0.22861   0.39995   0.00000  Uiso   1.00
N42    N     0.45604   0.51714   0.26609   0.00000  Uiso   1.00
N43    N     0.45804   0.90245   0.45516   0.00000  Uiso   1.00
N44    N     0.24118   0.27573   0.33777   0.00000  Uiso   1.00
N45    N     0.35712   0.56425   0.20392   0.00000  Uiso   1.00
N46    N     0.35912   0.94956   0.39299   0.00000  Uiso   1.00
C47    C     0.92676   0.04524   0.37922   0.00000  Uiso   1.00
C48    C     0.87870   0.96950   0.36974   0.00000  Uiso   1.00
C49    C     0.89340   0.87957   0.39640   0.00000  Uiso   1.00
C50    C     0.84261   0.82072   0.38193   0.00000  Uiso   1.00
C51    C     0.77760   0.69850   0.37324   0.00000  Uiso   1.00
C52    C     0.91065   0.04900   0.33285   0.00000  Uiso   1.00
C53    C     0.95222   0.02593   0.32849   0.00000  Uiso   1.00
C54    C     0.92833   0.03401   0.28296   0.00000  Uiso   1.00
C55    C     0.91294   0.03531   0.21700   0.00000  Uiso   1.00
C56    C     0.91120   0.15518   0.38496   0.00000  Uiso   1.00
C57    C     0.95323   0.22140   0.42441   0.00000  Uiso   1.00
C58    C     0.92980   0.31890   0.42275   0.00000  Uiso   1.00
C59    C     0.91527   0.48505   0.43770   0.00000  Uiso   1.00
C60    C     0.81043   0.10065   0.30610   0.00000  Uiso   1.00
C61    C     0.81551   0.99960   0.33003   0.00000  Uiso   1.00
C62    C     0.76469   0.94087   0.31551   0.00000  Uiso   1.00
C63    C     0.77931   0.85087   0.34214   0.00000  Uiso   1.00
C64    C     0.84747   0.07910   0.29313   0.00000  Uiso   1.00
C65    C     0.82351   0.08723   0.24760   0.00000  Uiso   1.00
C66    C     0.86503   0.06416   0.24317   0.00000  Uiso   1.00
C67    C     0.84801   0.18528   0.34525   0.00000  Uiso   1.00
C68    C     0.82452   0.28270   0.34352   0.00000  Uiso   1.00
C69    C     0.86651   0.34905   0.38296   0.00000  Uiso   1.00
H70    H     0.97595   0.02181   0.41014   0.00000  Uiso   1.00
H71    H     0.94230   0.85630   0.42713   0.00000  Uiso   1.00
H72    H     0.00111   0.00265   0.35924   0.00000  Uiso   1.00
H73    H     0.00212   0.19809   0.45514   0.00000  Uiso   1.00
H74    H     0.87713   0.68605   0.42845   0.00000  Uiso   1.00
H75    H     0.00115   0.99467   0.28529   0.00000  Uiso   1.00
H76    H     0.00328   0.40679   0.48752   0.00000  Uiso   1.00
H77    H     0.76123   0.12408   0.27518   0.00000  Uiso   1.00
H78    H     0.71580   0.96418   0.28477   0.00000  Uiso   1.00
H79    H     0.77461   0.11053   0.21687   0.00000  Uiso   1.00
H80    H     0.77562   0.30596   0.31278   0.00000  Uiso   1.00
H81    H     0.69329   0.77360   0.31290   0.00000  Uiso   1.00
H82    H     0.81731   0.08223   0.16974   0.00000  Uiso   1.00
H83    H     0.81944   0.49434   0.37197   0.00000  Uiso   1.00
O84    O     0.75919   0.62277   0.37941   0.00000  Uiso   1.00
O85    O     0.92191   0.02769   0.19159   0.00000  Uiso   1.00
O86    O     0.92470   0.56837   0.45692   0.00000  Uiso   1.00
N87    N     0.84010   0.72861   0.39995   0.00000  Uiso   1.00
N88    N     0.95604   0.01714   0.26609   0.00000  Uiso   1.00
N89    N     0.95804   0.40245   0.45516   0.00000  Uiso   1.00
N90    N     0.74118   0.77573   0.33777   0.00000  Uiso   1.00
N91    N     0.85712   0.06425   0.20392   0.00000  Uiso   1.00
N92    N     0.85912   0.44956   0.39299   0.00000  Uiso   1.00
C93    C     0.57324   0.54524   0.12078   0.00000  Uiso   1.00
C94    C     0.62130   0.46950   0.13026   0.00000  Uiso   1.00
C95    C     0.60660   0.37957   0.10360   0.00000  Uiso   1.00
C96    C     0.65739   0.32072   0.11807   0.00000  Uiso   1.00
C97    C     0.72240   0.19850   0.12676   0.00000  Uiso   1.00
C98    C     0.58935   0.54900   0.16715   0.00000  Uiso   1.00
C99    C     0.54778   0.52593   0.17151   0.00000  Uiso   1.00
C100   C     0.57167   0.53401   0.21704   0.00000  Uiso   1.00
C101   C     0.58706   0.53531   0.28300   0.00000  Uiso   1.00
C102   C     0.58880   0.65518   0.11504   0.00000  Uiso   1.00
C103   C     0.54677   0.72140   0.07559   0.00000  Uiso   1.00
C104   C     0.57020   0.81890   0.07725   0.00000  Uiso   1.00
C105   C     0.58473   0.98505   0.06230   0.00000  Uiso   1.00
C106   C     0.68957   0.60065   0.19390   0.00000  Uiso   1.00
C107   C     0.68449   0.49960   0.16997   0.00000  Uiso   1.00
C108   C     0.73531   0.44087   0.18449   0.00000  Uiso   1.00
C109   C     0.72069   0.35087   0.15786   0.00000  Uiso   1.00
C110   C     0.65253   0.57910   0.20687   0.00000  Uiso   1.00
C111   C     0.67649   0.58723   0.25240   0.00000  Uiso   1.00
C112   C     0.63497   0.56416   0.25683   0.00000  Uiso   1.00
C113   C     0.65199   0.68528   0.15475   0.00000  Uiso   1.00
C114   C     0.67548   0.78270   0.15648   0.00000  Uiso   1.00
C115   C     0.63349   0.84905   0.11704   0.00000  Uiso   1.00
H116   H     0.52405   0.52181   0.08986   0.00000  Uiso   1.00
H117   H     0.55770   0.35630   0.07287   0.00000  Uiso   1.00
H118   H     0.49889   0.50265   0.14076   0.00000  Uiso   1.00
H119   H     0.49788   0.69809   0.04486   0.00000  Uiso   1.00
H120   H     0.62287   0.18605   0.07155   0.00000  Uiso   1.00
H121   H     0.49885   0.49467   0.21471   0.00000  Uiso   1.00
H122   H     0.49672   0.90679   0.01248   0.00000  Uiso   1.00
H123   H     0.73877   0.62408   0.22482   0.00000  Uiso   1.00
H124   H     0.78420   0.46418   0.21523   0.00000  Uiso   1.00
H125   H     0.72539   0.61053   0.28313   0.00000  Uiso   1.00
H126   H     0.72438   0.80596   0.18722   0.00000  Uiso   1.00
H127   H     0.80671   0.27360   0.18710   0.00000  Uiso   1.00
H128   H     0.68269   0.58223   0.33026   0.00000  Uiso   1.00
H129   H     0.68056   0.99434   0.12803   0.00000  Uiso   1.00
O130   O     0.74081   0.12277   0.12059   0.00000  Uiso   1.00
O131   O     0.57809   0.52769   0.30841   0.00000  Uiso   1.00
O132   O     0.57530   0.06837   0.04308   0.00000  Uiso   1.00
N133   N     0.65990   0.22861   0.10005   0.00000  Uiso   1.00
N134   N     0.54396   0.51714   0.23391   0.00000  Uiso   1.00
N135   N     0.54196   0.90245   0.04484   0.00000  Uiso   1.00
N136   N     0.75882   0.27573   0.16223   0.00000  Uiso   1.00
N137   N     0.64288   0.56425   0.29608   0.00000  Uiso   1.00
N138   N     0.64088   0.94956   0.10701   0.00000  Uiso   1.00
C139   C     0.07324   0.04524   0.12078   0.00000  Uiso   1.00
C140   C     0.12130   0.96950   0.13026   0.00000  Uiso   1.00
C141   C     0.10660   0.87957   0.10360   0.00000  Uiso   1.00
C142   C     0.15739   0.82072   0.11807   0.00000  Uiso   1.00
C143   C     0.22240   0.69850   0.12676   0.00000  Uiso   1.00
C144   C     0.08935   0.04900   0.16715   0.00000  Uiso   1.00
C145   C     0.04778   0.02593   0.17151   0.00000  Uiso   1.00
C146   C     0.07167   0.03401   0.21704   0.00000  Uiso   1.00
C147   C     0.08706   0.03531   0.28300   0.00000  Uiso   1.00
C148   C     0.08880   0.15518   0.11504   0.00000  Uiso   1.00
C149   C     0.04677   0.22140   0.07559   0.00000  Uiso   1.00
C150   C     0.07020   0.31890   0.07725   0.00000  Uiso   1.00
C151   C     0.08473   0.48505   0.06230   0.00000  Uiso   1.00
C152   C     0.18957   0.10065   0.19390   0.00000  Uiso   1.00
C153   C     0.18449   0.99960   0.16997   0.00000  Uiso   1.00
C154   C     0.23531   0.94087   0.18449   0.00000  Uiso   1.00
C155   C     0.22069   0.85087   0.15786   0.00000  Uiso   1.00
C156   C     0.15253   0.07910   0.20687   0.00000  Uiso   1.00
C157   C     0.17649   0.08723   0.25240   0.00000  Uiso   1.00
C158   C     0.13497   0.06416   0.25683   0.00000  Uiso   1.00
C159   C     0.15199   0.18528   0.15475   0.00000  Uiso   1.00
C160   C     0.17548   0.28270   0.15648   0.00000  Uiso   1.00
C161   C     0.13349   0.34905   0.11704   0.00000  Uiso   1.00
H162   H     0.02405   0.02181   0.08986   0.00000  Uiso   1.00
H163   H     0.05770   0.85630   0.07287   0.00000  Uiso   1.00
H164   H     0.99889   0.00265   0.14076   0.00000  Uiso   1.00
H165   H     0.99788   0.19809   0.04486   0.00000  Uiso   1.00
H166   H     0.12287   0.68605   0.07155   0.00000  Uiso   1.00
H167   H     0.99885   0.99467   0.21471   0.00000  Uiso   1.00
H168   H     0.99672   0.40679   0.01248   0.00000  Uiso   1.00
H169   H     0.23877   0.12408   0.22482   0.00000  Uiso   1.00
H170   H     0.28420   0.96418   0.21523   0.00000  Uiso   1.00
H171   H     0.22539   0.11053   0.28313   0.00000  Uiso   1.00
H172   H     0.22438   0.30596   0.18722   0.00000  Uiso   1.00
H173   H     0.30671   0.77360   0.18710   0.00000  Uiso   1.00
H174   H     0.18269   0.08223   0.33026   0.00000  Uiso   1.00
H175   H     0.18056   0.49434   0.12803   0.00000  Uiso   1.00
O176   O     0.24081   0.62277   0.12059   0.00000  Uiso   1.00
O177   O     0.07809   0.02769   0.30841   0.00000  Uiso   1.00
O178   O     0.07530   0.56837   0.04308   0.00000  Uiso   1.00
N179   N     0.15990   0.72861   0.10005   0.00000  Uiso   1.00
N180   N     0.04396   0.01714   0.23391   0.00000  Uiso   1.00
N181   N     0.04196   0.40245   0.04484   0.00000  Uiso   1.00
N182   N     0.25882   0.77573   0.16223   0.00000  Uiso   1.00
N183   N     0.14288   0.06425   0.29608   0.00000  Uiso   1.00
N184   N     0.14088   0.44956   0.10701   0.00000  Uiso   1.00
C185   C     0.57324   0.45476   0.62078   0.00000  Uiso   1.00
C186   C     0.62130   0.53050   0.63026   0.00000  Uiso   1.00
C187   C     0.60660   0.62043   0.60360   0.00000  Uiso   1.00
C188   C     0.65739   0.67928   0.61807   0.00000  Uiso   1.00
C189   C     0.72240   0.80150   0.62676   0.00000  Uiso   1.00
C190   C     0.58935   0.45100   0.66715   0.00000  Uiso   1.00
C191   C     0.54778   0.47407   0.67151   0.00000  Uiso   1.00
C192   C     0.57167   0.46599   0.71704   0.00000  Uiso   1.00
C193   C     0.58706   0.46469   0.78300   0.00000  Uiso   1.00
C194   C     0.58880   0.34482   0.61504   0.00000  Uiso   1.00
C195   C     0.54677   0.27860   0.57559   0.00000  Uiso   1.00
C196   C     0.57020   0.18110   0.57725   0.00000  Uiso   1.00
C197   C     0.58473   0.01495   0.56230   0.00000  Uiso   1.00
C198   C     0.68957   0.39935   0.69390   0.00000  Uiso   1.00
C199   C     0.68449   0.50040   0.66997   0.00000  Uiso   1.00
C200   C     0.73531   0.55913   0.68449   0.00000  Uiso   1.00
C201   C     0.72069   0.64913   0.65786   0.00000  Uiso   1.00
C202   C     0.65253   0.42090   0.70687   0.00000  Uiso   1.00
C203   C     0.67649   0.41277   0.75240   0.00000  Uiso   1.00
C204   C     0.63497   0.43584   0.75683   0.00000  Uiso   1.00
C205   C     0.65199   0.31472   0.65475   0.00000  Uiso   1.00
C206   C     0.67548   0.21730   0.65648   0.00000  Uiso   1.00
C207   C     0.63349   0.15095   0.61704   0.00000  Uiso   1.00
H208   H     0.52405   0.47819   0.58986   0.00000  Uiso   1.00
H209   H     0.55770   0.64370   0.57287   0.00000  Uiso   1.00
H210   H     0.49889   0.49735   0.64076   0.00000  Uiso   1.00
H211   H     0.49788   0.30191   0.54486   0.00000  Uiso   1.00
H212   H     0.62287   0.81395   0.57155   0.00000  Uiso   1.00
H213   H     0.49885   0.50533   0.71471   0.00000  Uiso   1.00
H214   H     0.49672   0.09321   0.51248   0.00000  Uiso   1.00
H215   H     0.73877   0.37592   0.72482   0.00000  Uiso   1.00
H216   H     0.78420   0.53582   0.71523   0.00000  Uiso   1.00
H217   H     0.72539   0.38947   0.78313   0.00000  Uiso   1.00
H218   H     0.72438   0.19404   0.68722   0.00000  Uiso   1.00
H219   H     0.80671   0.72640   0.68710   0.00000  Uiso   1.00
H220   H     0.68269   0.41777   0.83026   0.00000  Uiso   1.00
H221   H     0.68056   0.00566   0.62803   0.00000  Uiso   1.00
O222   O     0.74081   0.87723   0.62059   0.00000  Uiso   1.00
O223   O     0.57809   0.47231   0.80841   0.00000  Uiso   1.00
O224   O     0.57530   0.93163   0.54308   0.00000  Uiso   1.00
N225   N     0.65990   0.77139   0.60005   0.00000  Uiso   1.00
N226   N     0.54396   0.48286   0.73391   0.00000  Uiso   1.00
N227   N     0.54196   0.09755   0.54484   0.00000  Uiso   1.00
N228   N     0.75882   0.72427   0.66223   0.00000  Uiso   1.00
N229   N     0.64288   0.43575   0.79608   0.00000  Uiso   1.00
N230   N     0.64088   0.05044   0.60701   0.00000  Uiso   1.00
C231   C     0.07324   0.95476   0.62078   0.00000  Uiso   1.00
C232   C     0.12130   0.03050   0.63026   0.00000  Uiso   1.00
C233   C     0.10660   0.12043   0.60360   0.00000  Uiso   1.00
C234   C     0.15739   0.17928   0.61807   0.00000  Uiso   1.00
C235   C     0.22240   0.30150   0.62676   0.00000  Uiso   1.00
C236   C     0.08935   0.95100   0.66715   0.00000  Uiso   1.00
C237   C     0.04778   0.97407   0.67151   0.00000  Uiso   1.00
C238   C     0.07167   0.96599   0.71704   0.00000  Uiso   1.00
C239   C     0.08706   0.96469   0.78300   0.00000  Uiso   1.00
C240   C     0.08880   0.84482   0.61504   0.00000  Uiso   1.00
C241   C     0.04677   0.77860   0.57559   0.00000  Uiso   1.00
C242   C     0.07020   0.68110   0.57725   0.00000  Uiso   1.00
C243   C     0.08473   0.51495   0.56230   0.00000  Uiso   1.00
C244   C     0.18957   0.89935   0.69390   0.00000  Uiso   1.00
C245   C     0.18449   0.00040   0.66997   0.00000  Uiso   1.00
C246   C     0.23531   0.05913   0.68449   0.00000  Uiso   1.00
C247   C     0.22069   0.14913   0.65786   0.00000  Uiso   1.00
C248   C     0.15253   0.92090   0.70687   0.00000  Uiso   1.00
C249   C     0.17649   0.91277   0.75240   0.00000  Uiso   1.00
C250   C     0.13497   0.93584   0.75683   0.00000  Uiso   1.00
C251   C     0.15199   0.81472   0.65475   0.00000  Uiso   1.00
C252   C     0.17548   0.71730   0.65648   0.00000  Uiso   1.00
C253   C     0.13349   0.65095   0.61704   0.00000  Uiso   1.00
H254   H     0.02405   0.97819   0.58986   0.00000  Uiso   1.00
H255   H     0.05770   0.14370   0.57287   0.00000  Uiso   1.00
H256   H     0.99889   0.99735   0.64076   0.00000  Uiso   1.00
H257   H     0.99788   0.80191   0.54486   0.00000  Uiso   1.00
H258   H     0.12287   0.31395   0.57155   0.00000  Uiso   1.00
H259   H     0.99885   0.00533   0.71471   0.00000  Uiso   1.00
H260   H     0.99672   0.59321   0.51248   0.00000  Uiso   1.00
H261   H     0.23877   0.87592   0.72482   0.00000  Uiso   1.00
H262   H     0.28420   0.03582   0.71523   0.00000  Uiso   1.00
H263   H     0.22539   0.88947   0.78313   0.00000  Uiso   1.00
H264   H     0.22438   0.69404   0.68722   0.00000  Uiso   1.00
H265   H     0.30671   0.22640   0.68710   0.00000  Uiso   1.00
H266   H     0.18269   0.91777   0.83026   0.00000  Uiso   1.00
H267   H     0.18056   0.50566   0.62803   0.00000  Uiso   1.00
O268   O     0.24081   0.37723   0.62059   0.00000  Uiso   1.00
O269   O     0.07809   0.97231   0.80841   0.00000  Uiso   1.00
O270   O     0.07530   0.43163   0.54308   0.00000  Uiso   1.00
N271   N     0.15990   0.27139   0.60005   0.00000  Uiso   1.00
N272   N     0.04396   0.98286   0.73391   0.00000  Uiso   1.00
N273   N     0.04196   0.59755   0.54484   0.00000  Uiso   1.00
N274   N     0.25882   0.22427   0.66223   0.00000  Uiso   1.00
N275   N     0.14288   0.93575   0.79608   0.00000  Uiso   1.00
N276   N     0.14088   0.55044   0.60701   0.00000  Uiso   1.00
C277   C     0.42676   0.45476   0.87922   0.00000  Uiso   1.00
C278   C     0.37870   0.53050   0.86974   0.00000  Uiso   1.00
C279   C     0.39340   0.62043   0.89640   0.00000  Uiso   1.00
C280   C     0.34261   0.67928   0.88193   0.00000  Uiso   1.00
C281   C     0.27760   0.80150   0.87324   0.00000  Uiso   1.00
C282   C     0.41065   0.45100   0.83285   0.00000  Uiso   1.00
C283   C     0.45222   0.47407   0.82849   0.00000  Uiso   1.00
C284   C     0.42833   0.46599   0.78296   0.00000  Uiso   1.00
C285   C     0.41294   0.46469   0.71700   0.00000  Uiso   1.00
C286   C     0.41120   0.34482   0.88496   0.00000  Uiso   1.00
C287   C     0.45323   0.27860   0.92441   0.00000  Uiso   1.00
C288   C     0.42980   0.18110   0.92275   0.00000  Uiso   1.00
C289   C     0.41527   0.01495   0.93770   0.00000  Uiso   1.00
C290   C     0.31043   0.39935   0.80610   0.00000  Uiso   1.00
C291   C     0.31551   0.50040   0.83003   0.00000  Uiso   1.00
C292   C     0.26469   0.55913   0.81551   0.00000  Uiso   1.00
C293   C     0.27931   0.64913   0.84214   0.00000  Uiso   1.00
C294   C     0.34747   0.42090   0.79313   0.00000  Uiso   1.00
C295   C     0.32351   0.41277   0.74760   0.00000  Uiso   1.00
C296   C     0.36503   0.43584   0.74317   0.00000  Uiso   1.00
C297   C     0.34801   0.31472   0.84525   0.00000  Uiso   1.00
C298   C     0.32452   0.21730   0.84352   0.00000  Uiso   1.00
C299   C     0.36651   0.15095   0.88296   0.00000  Uiso   1.00
H300   H     0.47595   0.47819   0.91014   0.00000  Uiso   1.00
H301   H     0.44230   0.64370   0.92713   0.00000  Uiso   1.00
H302   H     0.50111   0.49735   0.85924   0.00000  Uiso   1.00
H303   H     0.50212   0.30191   0.95514   0.00000  Uiso   1.00
H304   H     0.37713   0.81395   0.92845   0.00000  Uiso   1.00
H305   H     0.50115   0.50533   0.78529   0.00000  Uiso   1.00
H306   H     0.50328   0.09321   0.98752   0.00000  Uiso   1.00
H307   H     0.26123   0.37592   0.77518   0.00000  Uiso   1.00
H308   H     0.21580   0.53582   0.78477   0.00000  Uiso   1.00
H309   H     0.27461   0.38947   0.71687   0.00000  Uiso   1.00
H310   H     0.27562   0.19404   0.81278   0.00000  Uiso   1.00
H311   H     0.19329   0.72640   0.81290   0.00000  Uiso   1.00
H312   H     0.31731   0.41777   0.66974   0.00000  Uiso   1.00
H313   H     0.31944   0.00566   0.87197   0.00000  Uiso   1.00
O314   O     0.25919   0.87723   0.87941   0.00000  Uiso   1.00
O315   O     0.42191   0.47231   0.69159   0.00000  Uiso   1.00
O316   O     0.42470   0.93163   0.95692   0.00000  Uiso   1.00
N317   N     0.34010   0.77139   0.89995   0.00000  Uiso   1.00
N318   N     0.45604   0.48286   0.76609   0.00000  Uiso   1.00
N319   N     0.45804   0.09755   0.95516   0.00000  Uiso   1.00
N320   N     0.24118   0.72427   0.83777   0.00000  Uiso   1.00
N321   N     0.35712   0.43575   0.70392   0.00000  Uiso   1.00
N322   N     0.35912   0.05044   0.89299   0.00000  Uiso   1.00
C323   C     0.92676   0.95476   0.87922   0.00000  Uiso   1.00
C324   C     0.87870   0.03050   0.86974   0.00000  Uiso   1.00
C325   C     0.89340   0.12043   0.89640   0.00000  Uiso   1.00
C326   C     0.84261   0.17928   0.88193   0.00000  Uiso   1.00
C327   C     0.77760   0.30150   0.87324   0.00000  Uiso   1.00
C328   C     0.91065   0.95100   0.83285   0.00000  Uiso   1.00
C329   C     0.95222   0.97407   0.82849   0.00000  Uiso   1.00
C330   C     0.92833   0.96599   0.78296   0.00000  Uiso   1.00
C331   C     0.91294   0.96469   0.71700   0.00000  Uiso   1.00
C332   C     0.91120   0.84482   0.88496   0.00000  Uiso   1.00
C333   C     0.95323   0.77860   0.92441   0.00000  Uiso   1.00
C334   C     0.92980   0.68110   0.92275   0.00000  Uiso   1.00
C335   C     0.91527   0.51495   0.93770   0.00000  Uiso   1.00
C336   C     0.81043   0.89935   0.80610   0.00000  Uiso   1.00
C337   C     0.81551   0.00040   0.83003   0.00000  Uiso   1.00
C338   C     0.76469   0.05913   0.81551   0.00000  Uiso   1.00
C339   C     0.77931   0.14913   0.84214   0.00000  Uiso   1.00
C340   C     0.84747   0.92090   0.79313   0.00000  Uiso   1.00
C341   C     0.82351   0.91277   0.74760   0.00000  Uiso   1.00
C342   C     0.86503   0.93584   0.74317   0.00000  Uiso   1.00
C343   C     0.84801   0.81472   0.84525   0.00000  Uiso   1.00
C344   C     0.82452   0.71730   0.84352   0.00000  Uiso   1.00
C345   C     0.86651   0.65095   0.88296   0.00000  Uiso   1.00
H346   H     0.97595   0.97819   0.91014   0.00000  Uiso   1.00
H347   H     0.94230   0.14370   0.92713   0.00000  Uiso   1.00
H348   H     0.00111   0.99735   0.85924   0.00000  Uiso   1.00
H349   H     0.00212   0.80191   0.95514   0.00000  Uiso   1.00
H350   H     0.87713   0.31395   0.92845   0.00000  Uiso   1.00
H351   H     0.00115   0.00533   0.78529   0.00000  Uiso   1.00
H352   H     0.00328   0.59321   0.98752   0.00000  Uiso   1.00
H353   H     0.76123   0.87592   0.77518   0.00000  Uiso   1.00
H354   H     0.71580   0.03582   0.78477   0.00000  Uiso   1.00
H355   H     0.77461   0.88947   0.71687   0.00000  Uiso   1.00
H356   H     0.77562   0.69404   0.81278   0.00000  Uiso   1.00
H357   H     0.69329   0.22640   0.81290   0.00000  Uiso   1.00
H358   H     0.81731   0.91777   0.66974   0.00000  Uiso   1.00
H359   H     0.81944   0.50566   0.87197   0.00000  Uiso   1.00
O360   O     0.75919   0.37723   0.87941   0.00000  Uiso   1.00
O361   O     0.92191   0.97231   0.69159   0.00000  Uiso   1.00
O362   O     0.92470   0.43163   0.95692   0.00000  Uiso   1.00
N363   N     0.84010   0.27139   0.89995   0.00000  Uiso   1.00
N364   N     0.95604   0.98286   0.76609   0.00000  Uiso   1.00
N365   N     0.95804   0.59755   0.95516   0.00000  Uiso   1.00
N366   N     0.74118   0.22427   0.83777   0.00000  Uiso   1.00
N367   N     0.85712   0.93575   0.70392   0.00000  Uiso   1.00
N368   N     0.85912   0.55044   0.89299   0.00000  Uiso   1.00
