data_job_00341
_audit_creation_date              2018-12-19
_audit_creation_method            'Materials Studio'
_symmetry_space_group_name_H-M    'P1'
_symmetry_Int_Tables_number       1
_symmetry_cell_setting            triclinic
loop_
_symmetry_equiv_pos_as_xyz
  x,y,z
_cell_length_a                    20.9031
_cell_length_b                    13.4024
_cell_length_c                    16.4912
_cell_angle_alpha                 90.0000
_cell_angle_beta                  94.0783
_cell_angle_gamma                 90.0000
loop_
_atom_site_label
_atom_site_type_symbol
_atom_site_fract_x
_atom_site_fract_y
_atom_site_fract_z
_atom_site_U_iso_or_equiv
_atom_site_adp_type
_atom_site_occupancy
C1     C     0.15940   0.66973   0.76418   0.00000  Uiso   1.00
C2     C     0.11812   0.75476   0.79286   0.00000  Uiso   1.00
C3     C     0.07151   0.74648   0.84836   0.00000  Uiso   1.00
C4     C     0.03898   0.83302   0.86661   0.00000  Uiso   1.00
C5     C     0.97277   0.95114   0.91658   0.00000  Uiso   1.00
C6     C     0.14845   0.66754   0.67179   0.00000  Uiso   1.00
C7     C     0.12737   0.58592   0.62549   0.00000  Uiso   1.00
C8     C     0.12038   0.59904   0.54181   0.00000  Uiso   1.00
C9     C     0.10132   0.58172   0.40381   0.00000  Uiso   1.00
C10    C     0.22883   0.70229   0.78247   0.00000  Uiso   1.00
C11    C     0.27533   0.64987   0.82922   0.00000  Uiso   1.00
C12    C     0.33601   0.69224   0.83872   0.00000  Uiso   1.00
C13    C     0.44175   0.72888   0.87258   0.00000  Uiso   1.00
C14    C     0.18450   0.83816   0.69790   0.00000  Uiso   1.00
C15    C     0.13175   0.84625   0.75685   0.00000  Uiso   1.00
C16    C     0.09928   0.93283   0.77503   0.00000  Uiso   1.00
C17    C     0.05263   0.92468   0.83054   0.00000  Uiso   1.00
C18    C     0.16208   0.75903   0.63578   0.00000  Uiso   1.00
C19    C     0.15513   0.77227   0.55215   0.00000  Uiso   1.00
C20    C     0.13403   0.69069   0.50574   0.00000  Uiso   1.00
C21    C     0.24246   0.79378   0.74647   0.00000  Uiso   1.00
C22    C     0.30309   0.83623   0.75589   0.00000  Uiso   1.00
C23    C     0.34967   0.78389   0.80265   0.00000  Uiso   1.00
H24    H     0.14879   0.59850   0.79221   0.00000  Uiso   1.00
H25    H     0.06097   0.67566   0.87620   0.00000  Uiso   1.00
H26    H     0.11683   0.51513   0.65337   0.00000  Uiso   1.00
H27    H     0.26476   0.57908   0.85707   0.00000  Uiso   1.00
H28    H     0.96961   0.80155   0.95343   0.00000  Uiso   1.00
H29    H     0.08740   0.46305   0.48357   0.00000  Uiso   1.00
H30    H     0.39935   0.59790   0.91311   0.00000  Uiso   1.00
H31    H     0.19511   0.90939   0.66987   0.00000  Uiso   1.00
H32    H     0.10983   0.00362   0.74715   0.00000  Uiso   1.00
H33    H     0.16569   0.84308   0.52431   0.00000  Uiso   1.00
H34    H     0.31362   0.90703   0.72802   0.00000  Uiso   1.00
H35    H     0.00926   0.06773   0.84869   0.00000  Uiso   1.00
H36    H     0.12705   0.72922   0.37882   0.00000  Uiso   1.00
H37    H     0.43900   0.86408   0.80837   0.00000  Uiso   1.00
O38    O     0.93249   0.99101   0.95409   0.00000  Uiso   1.00
O39    O     0.08703   0.54690   0.33764   0.00000  Uiso   1.00
O40    O     0.49630   0.72382   0.90120   0.00000  Uiso   1.00
N41    N     0.99065   0.85127   0.91819   0.00000  Uiso   1.00
N42    N     0.10077   0.53479   0.47889   0.00000  Uiso   1.00
N43    N     0.39242   0.66085   0.88046   0.00000  Uiso   1.00
N44    N     0.01199   0.99450   0.86182   0.00000  Uiso   1.00
N45    N     0.12211   0.67802   0.42253   0.00000  Uiso   1.00
N46    N     0.41376   0.80408   0.82410   0.00000  Uiso   1.00
C47    C     0.65940   0.16973   0.76418   0.00000  Uiso   1.00
C48    C     0.61812   0.25476   0.79286   0.00000  Uiso   1.00
C49    C     0.57151   0.24648   0.84836   0.00000  Uiso   1.00
C50    C     0.53898   0.33302   0.86661   0.00000  Uiso   1.00
C51    C     0.47277   0.45114   0.91658   0.00000  Uiso   1.00
C52    C     0.64845   0.16754   0.67179   0.00000  Uiso   1.00
C53    C     0.62737   0.08592   0.62549   0.00000  Uiso   1.00
C54    C     0.62038   0.09904   0.54181   0.00000  Uiso   1.00
C55    C     0.60132   0.08172   0.40381   0.00000  Uiso   1.00
C56    C     0.72883   0.20229   0.78247   0.00000  Uiso   1.00
C57    C     0.77533   0.14987   0.82922   0.00000  Uiso   1.00
C58    C     0.83601   0.19224   0.83872   0.00000  Uiso   1.00
C59    C     0.94175   0.22888   0.87258   0.00000  Uiso   1.00
C60    C     0.68450   0.33816   0.69790   0.00000  Uiso   1.00
C61    C     0.63175   0.34625   0.75685   0.00000  Uiso   1.00
C62    C     0.59928   0.43283   0.77503   0.00000  Uiso   1.00
C63    C     0.55263   0.42468   0.83054   0.00000  Uiso   1.00
C64    C     0.66208   0.25903   0.63578   0.00000  Uiso   1.00
C65    C     0.65513   0.27227   0.55215   0.00000  Uiso   1.00
C66    C     0.63403   0.19069   0.50574   0.00000  Uiso   1.00
C67    C     0.74246   0.29378   0.74647   0.00000  Uiso   1.00
C68    C     0.80309   0.33623   0.75589   0.00000  Uiso   1.00
C69    C     0.84967   0.28389   0.80265   0.00000  Uiso   1.00
H70    H     0.64879   0.09850   0.79221   0.00000  Uiso   1.00
H71    H     0.56097   0.17566   0.87620   0.00000  Uiso   1.00
H72    H     0.61683   0.01513   0.65337   0.00000  Uiso   1.00
H73    H     0.76476   0.07908   0.85707   0.00000  Uiso   1.00
H74    H     0.46961   0.30155   0.95343   0.00000  Uiso   1.00
H75    H     0.58740   0.96305   0.48357   0.00000  Uiso   1.00
H76    H     0.89935   0.09790   0.91311   0.00000  Uiso   1.00
H77    H     0.69511   0.40939   0.66987   0.00000  Uiso   1.00
H78    H     0.60983   0.50362   0.74715   0.00000  Uiso   1.00
H79    H     0.66569   0.34308   0.52431   0.00000  Uiso   1.00
H80    H     0.81362   0.40703   0.72802   0.00000  Uiso   1.00
H81    H     0.50926   0.56773   0.84869   0.00000  Uiso   1.00
H82    H     0.62705   0.22922   0.37882   0.00000  Uiso   1.00
H83    H     0.93900   0.36408   0.80837   0.00000  Uiso   1.00
O84    O     0.43249   0.49101   0.95409   0.00000  Uiso   1.00
O85    O     0.58703   0.04690   0.33764   0.00000  Uiso   1.00
O86    O     0.99630   0.22382   0.90120   0.00000  Uiso   1.00
N87    N     0.49065   0.35127   0.91819   0.00000  Uiso   1.00
N88    N     0.60077   0.03479   0.47889   0.00000  Uiso   1.00
N89    N     0.89242   0.16085   0.88046   0.00000  Uiso   1.00
N90    N     0.51199   0.49450   0.86182   0.00000  Uiso   1.00
N91    N     0.62211   0.17802   0.42253   0.00000  Uiso   1.00
N92    N     0.91376   0.30408   0.82410   0.00000  Uiso   1.00
C93    C     0.84060   0.66973   0.73582   0.00000  Uiso   1.00
C94    C     0.88188   0.75476   0.70714   0.00000  Uiso   1.00
C95    C     0.92849   0.74648   0.65164   0.00000  Uiso   1.00
C96    C     0.96102   0.83302   0.63339   0.00000  Uiso   1.00
C97    C     0.02723   0.95114   0.58342   0.00000  Uiso   1.00
C98    C     0.85155   0.66754   0.82821   0.00000  Uiso   1.00
C99    C     0.87263   0.58592   0.87451   0.00000  Uiso   1.00
C100   C     0.87962   0.59904   0.95819   0.00000  Uiso   1.00
C101   C     0.89868   0.58172   0.09619   0.00000  Uiso   1.00
C102   C     0.77117   0.70229   0.71753   0.00000  Uiso   1.00
C103   C     0.72467   0.64987   0.67078   0.00000  Uiso   1.00
C104   C     0.66399   0.69224   0.66128   0.00000  Uiso   1.00
C105   C     0.55825   0.72888   0.62742   0.00000  Uiso   1.00
C106   C     0.81550   0.83816   0.80210   0.00000  Uiso   1.00
C107   C     0.86825   0.84625   0.74315   0.00000  Uiso   1.00
C108   C     0.90072   0.93283   0.72497   0.00000  Uiso   1.00
C109   C     0.94737   0.92468   0.66946   0.00000  Uiso   1.00
C110   C     0.83792   0.75903   0.86422   0.00000  Uiso   1.00
C111   C     0.84487   0.77227   0.94785   0.00000  Uiso   1.00
C112   C     0.86597   0.69069   0.99426   0.00000  Uiso   1.00
C113   C     0.75754   0.79378   0.75353   0.00000  Uiso   1.00
C114   C     0.69691   0.83623   0.74411   0.00000  Uiso   1.00
C115   C     0.65033   0.78389   0.69735   0.00000  Uiso   1.00
H116   H     0.85121   0.59850   0.70779   0.00000  Uiso   1.00
H117   H     0.93903   0.67566   0.62380   0.00000  Uiso   1.00
H118   H     0.88317   0.51513   0.84663   0.00000  Uiso   1.00
H119   H     0.73524   0.57908   0.64293   0.00000  Uiso   1.00
H120   H     0.03039   0.80155   0.54657   0.00000  Uiso   1.00
H121   H     0.91260   0.46305   0.01643   0.00000  Uiso   1.00
H122   H     0.60065   0.59790   0.58689   0.00000  Uiso   1.00
H123   H     0.80489   0.90939   0.83013   0.00000  Uiso   1.00
H124   H     0.89017   0.00362   0.75285   0.00000  Uiso   1.00
H125   H     0.83431   0.84308   0.97569   0.00000  Uiso   1.00
H126   H     0.68638   0.90703   0.77198   0.00000  Uiso   1.00
H127   H     0.99074   0.06773   0.65131   0.00000  Uiso   1.00
H128   H     0.87295   0.72922   0.12118   0.00000  Uiso   1.00
H129   H     0.56100   0.86408   0.69163   0.00000  Uiso   1.00
O130   O     0.06751   0.99101   0.54591   0.00000  Uiso   1.00
O131   O     0.91297   0.54690   0.16236   0.00000  Uiso   1.00
O132   O     0.50370   0.72382   0.59880   0.00000  Uiso   1.00
N133   N     0.00935   0.85127   0.58181   0.00000  Uiso   1.00
N134   N     0.89923   0.53479   0.02111   0.00000  Uiso   1.00
N135   N     0.60758   0.66085   0.61954   0.00000  Uiso   1.00
N136   N     0.98801   0.99450   0.63818   0.00000  Uiso   1.00
N137   N     0.87789   0.67802   0.07747   0.00000  Uiso   1.00
N138   N     0.58624   0.80408   0.67590   0.00000  Uiso   1.00
C139   C     0.34060   0.16973   0.73582   0.00000  Uiso   1.00
C140   C     0.38188   0.25476   0.70714   0.00000  Uiso   1.00
C141   C     0.42849   0.24648   0.65164   0.00000  Uiso   1.00
C142   C     0.46102   0.33302   0.63339   0.00000  Uiso   1.00
C143   C     0.52723   0.45114   0.58342   0.00000  Uiso   1.00
C144   C     0.35155   0.16754   0.82821   0.00000  Uiso   1.00
C145   C     0.37263   0.08592   0.87451   0.00000  Uiso   1.00
C146   C     0.37962   0.09904   0.95819   0.00000  Uiso   1.00
C147   C     0.39868   0.08172   0.09619   0.00000  Uiso   1.00
C148   C     0.27117   0.20229   0.71753   0.00000  Uiso   1.00
C149   C     0.22467   0.14987   0.67078   0.00000  Uiso   1.00
C150   C     0.16399   0.19224   0.66128   0.00000  Uiso   1.00
C151   C     0.05825   0.22888   0.62742   0.00000  Uiso   1.00
C152   C     0.31550   0.33816   0.80210   0.00000  Uiso   1.00
C153   C     0.36825   0.34625   0.74315   0.00000  Uiso   1.00
C154   C     0.40072   0.43283   0.72497   0.00000  Uiso   1.00
C155   C     0.44737   0.42468   0.66946   0.00000  Uiso   1.00
C156   C     0.33792   0.25903   0.86422   0.00000  Uiso   1.00
C157   C     0.34487   0.27227   0.94785   0.00000  Uiso   1.00
C158   C     0.36597   0.19069   0.99426   0.00000  Uiso   1.00
C159   C     0.25754   0.29378   0.75353   0.00000  Uiso   1.00
C160   C     0.19691   0.33623   0.74411   0.00000  Uiso   1.00
C161   C     0.15033   0.28389   0.69735   0.00000  Uiso   1.00
H162   H     0.35121   0.09850   0.70779   0.00000  Uiso   1.00
H163   H     0.43903   0.17566   0.62380   0.00000  Uiso   1.00
H164   H     0.38317   0.01513   0.84663   0.00000  Uiso   1.00
H165   H     0.23524   0.07908   0.64293   0.00000  Uiso   1.00
H166   H     0.53039   0.30155   0.54657   0.00000  Uiso   1.00
H167   H     0.41260   0.96305   0.01643   0.00000  Uiso   1.00
H168   H     0.10065   0.09790   0.58689   0.00000  Uiso   1.00
H169   H     0.30489   0.40939   0.83013   0.00000  Uiso   1.00
H170   H     0.39017   0.50362   0.75285   0.00000  Uiso   1.00
H171   H     0.33431   0.34308   0.97569   0.00000  Uiso   1.00
H172   H     0.18638   0.40703   0.77198   0.00000  Uiso   1.00
H173   H     0.49074   0.56773   0.65131   0.00000  Uiso   1.00
H174   H     0.37295   0.22922   0.12118   0.00000  Uiso   1.00
H175   H     0.06100   0.36408   0.69163   0.00000  Uiso   1.00
O176   O     0.56751   0.49101   0.54591   0.00000  Uiso   1.00
O177   O     0.41297   0.04690   0.16236   0.00000  Uiso   1.00
O178   O     0.00370   0.22382   0.59880   0.00000  Uiso   1.00
N179   N     0.50935   0.35127   0.58181   0.00000  Uiso   1.00
N180   N     0.39923   0.03479   0.02111   0.00000  Uiso   1.00
N181   N     0.10758   0.16085   0.61954   0.00000  Uiso   1.00
N182   N     0.48801   0.49450   0.63818   0.00000  Uiso   1.00
N183   N     0.37789   0.17802   0.07747   0.00000  Uiso   1.00
N184   N     0.08624   0.30408   0.67590   0.00000  Uiso   1.00
C185   C     0.84060   0.33027   0.23582   0.00000  Uiso   1.00
C186   C     0.88188   0.24524   0.20714   0.00000  Uiso   1.00
C187   C     0.92849   0.25352   0.15164   0.00000  Uiso   1.00
C188   C     0.96102   0.16698   0.13339   0.00000  Uiso   1.00
C189   C     0.02723   0.04886   0.08342   0.00000  Uiso   1.00
C190   C     0.85155   0.33246   0.32821   0.00000  Uiso   1.00
C191   C     0.87263   0.41408   0.37451   0.00000  Uiso   1.00
C192   C     0.87962   0.40096   0.45819   0.00000  Uiso   1.00
C193   C     0.89868   0.41828   0.59619   0.00000  Uiso   1.00
C194   C     0.77117   0.29771   0.21753   0.00000  Uiso   1.00
C195   C     0.72467   0.35013   0.17078   0.00000  Uiso   1.00
C196   C     0.66399   0.30776   0.16128   0.00000  Uiso   1.00
C197   C     0.55825   0.27112   0.12742   0.00000  Uiso   1.00
C198   C     0.81550   0.16184   0.30210   0.00000  Uiso   1.00
C199   C     0.86825   0.15375   0.24315   0.00000  Uiso   1.00
C200   C     0.90072   0.06717   0.22497   0.00000  Uiso   1.00
C201   C     0.94737   0.07532   0.16946   0.00000  Uiso   1.00
C202   C     0.83792   0.24097   0.36422   0.00000  Uiso   1.00
C203   C     0.84487   0.22773   0.44785   0.00000  Uiso   1.00
C204   C     0.86597   0.30931   0.49426   0.00000  Uiso   1.00
C205   C     0.75754   0.20622   0.25353   0.00000  Uiso   1.00
C206   C     0.69691   0.16377   0.24411   0.00000  Uiso   1.00
C207   C     0.65033   0.21611   0.19735   0.00000  Uiso   1.00
H208   H     0.85121   0.40150   0.20779   0.00000  Uiso   1.00
H209   H     0.93903   0.32434   0.12380   0.00000  Uiso   1.00
H210   H     0.88317   0.48487   0.34663   0.00000  Uiso   1.00
H211   H     0.73524   0.42092   0.14293   0.00000  Uiso   1.00
H212   H     0.03039   0.19845   0.04657   0.00000  Uiso   1.00
H213   H     0.91260   0.53695   0.51643   0.00000  Uiso   1.00
H214   H     0.60065   0.40210   0.08689   0.00000  Uiso   1.00
H215   H     0.80489   0.09061   0.33013   0.00000  Uiso   1.00
H216   H     0.89017   0.99638   0.25285   0.00000  Uiso   1.00
H217   H     0.83431   0.15692   0.47569   0.00000  Uiso   1.00
H218   H     0.68638   0.09297   0.27198   0.00000  Uiso   1.00
H219   H     0.99074   0.93227   0.15131   0.00000  Uiso   1.00
H220   H     0.87295   0.27078   0.62118   0.00000  Uiso   1.00
H221   H     0.56100   0.13592   0.19163   0.00000  Uiso   1.00
O222   O     0.06751   0.00899   0.04591   0.00000  Uiso   1.00
O223   O     0.91297   0.45310   0.66236   0.00000  Uiso   1.00
O224   O     0.50370   0.27618   0.09880   0.00000  Uiso   1.00
N225   N     0.00935   0.14873   0.08181   0.00000  Uiso   1.00
N226   N     0.89923   0.46521   0.52111   0.00000  Uiso   1.00
N227   N     0.60758   0.33915   0.11954   0.00000  Uiso   1.00
N228   N     0.98801   0.00550   0.13818   0.00000  Uiso   1.00
N229   N     0.87789   0.32198   0.57747   0.00000  Uiso   1.00
N230   N     0.58624   0.19592   0.17590   0.00000  Uiso   1.00
C231   C     0.34060   0.83027   0.23582   0.00000  Uiso   1.00
C232   C     0.38188   0.74524   0.20714   0.00000  Uiso   1.00
C233   C     0.42849   0.75352   0.15164   0.00000  Uiso   1.00
C234   C     0.46102   0.66698   0.13339   0.00000  Uiso   1.00
C235   C     0.52723   0.54886   0.08342   0.00000  Uiso   1.00
C236   C     0.35155   0.83246   0.32821   0.00000  Uiso   1.00
C237   C     0.37263   0.91408   0.37451   0.00000  Uiso   1.00
C238   C     0.37962   0.90096   0.45819   0.00000  Uiso   1.00
C239   C     0.39868   0.91828   0.59619   0.00000  Uiso   1.00
C240   C     0.27117   0.79771   0.21753   0.00000  Uiso   1.00
C241   C     0.22467   0.85013   0.17078   0.00000  Uiso   1.00
C242   C     0.16399   0.80776   0.16128   0.00000  Uiso   1.00
C243   C     0.05825   0.77112   0.12742   0.00000  Uiso   1.00
C244   C     0.31550   0.66184   0.30210   0.00000  Uiso   1.00
C245   C     0.36825   0.65375   0.24315   0.00000  Uiso   1.00
C246   C     0.40072   0.56717   0.22497   0.00000  Uiso   1.00
C247   C     0.44737   0.57532   0.16946   0.00000  Uiso   1.00
C248   C     0.33792   0.74097   0.36422   0.00000  Uiso   1.00
C249   C     0.34487   0.72773   0.44785   0.00000  Uiso   1.00
C250   C     0.36597   0.80931   0.49426   0.00000  Uiso   1.00
C251   C     0.25754   0.70622   0.25353   0.00000  Uiso   1.00
C252   C     0.19691   0.66377   0.24411   0.00000  Uiso   1.00
C253   C     0.15033   0.71611   0.19735   0.00000  Uiso   1.00
H254   H     0.35121   0.90150   0.20779   0.00000  Uiso   1.00
H255   H     0.43903   0.82434   0.12380   0.00000  Uiso   1.00
H256   H     0.38317   0.98487   0.34663   0.00000  Uiso   1.00
H257   H     0.23524   0.92092   0.14293   0.00000  Uiso   1.00
H258   H     0.53039   0.69845   0.04657   0.00000  Uiso   1.00
H259   H     0.41260   0.03695   0.51643   0.00000  Uiso   1.00
H260   H     0.10065   0.90210   0.08689   0.00000  Uiso   1.00
H261   H     0.30489   0.59061   0.33013   0.00000  Uiso   1.00
H262   H     0.39017   0.49638   0.25285   0.00000  Uiso   1.00
H263   H     0.33431   0.65692   0.47569   0.00000  Uiso   1.00
H264   H     0.18638   0.59297   0.27198   0.00000  Uiso   1.00
H265   H     0.49074   0.43227   0.15131   0.00000  Uiso   1.00
H266   H     0.37295   0.77078   0.62118   0.00000  Uiso   1.00
H267   H     0.06100   0.63592   0.19163   0.00000  Uiso   1.00
O268   O     0.56751   0.50899   0.04591   0.00000  Uiso   1.00
O269   O     0.41297   0.95310   0.66236   0.00000  Uiso   1.00
O270   O     0.00370   0.77618   0.09880   0.00000  Uiso   1.00
N271   N     0.50935   0.64873   0.08181   0.00000  Uiso   1.00
N272   N     0.39923   0.96521   0.52111   0.00000  Uiso   1.00
N273   N     0.10758   0.83915   0.11954   0.00000  Uiso   1.00
N274   N     0.48801   0.50550   0.13818   0.00000  Uiso   1.00
N275   N     0.37789   0.82198   0.57747   0.00000  Uiso   1.00
N276   N     0.08624   0.69592   0.17590   0.00000  Uiso   1.00
C277   C     0.15940   0.33027   0.26418   0.00000  Uiso   1.00
C278   C     0.11812   0.24524   0.29286   0.00000  Uiso   1.00
C279   C     0.07151   0.25352   0.34836   0.00000  Uiso   1.00
C280   C     0.03898   0.16698   0.36661   0.00000  Uiso   1.00
C281   C     0.97277   0.04886   0.41658   0.00000  Uiso   1.00
C282   C     0.14845   0.33246   0.17179   0.00000  Uiso   1.00
C283   C     0.12737   0.41408   0.12549   0.00000  Uiso   1.00
C284   C     0.12038   0.40096   0.04181   0.00000  Uiso   1.00
C285   C     0.10132   0.41828   0.90381   0.00000  Uiso   1.00
C286   C     0.22883   0.29771   0.28247   0.00000  Uiso   1.00
C287   C     0.27533   0.35013   0.32922   0.00000  Uiso   1.00
C288   C     0.33601   0.30776   0.33872   0.00000  Uiso   1.00
C289   C     0.44175   0.27112   0.37258   0.00000  Uiso   1.00
C290   C     0.18450   0.16184   0.19790   0.00000  Uiso   1.00
C291   C     0.13175   0.15375   0.25685   0.00000  Uiso   1.00
C292   C     0.09928   0.06717   0.27503   0.00000  Uiso   1.00
C293   C     0.05263   0.07532   0.33054   0.00000  Uiso   1.00
C294   C     0.16208   0.24097   0.13578   0.00000  Uiso   1.00
C295   C     0.15513   0.22773   0.05215   0.00000  Uiso   1.00
C296   C     0.13403   0.30931   0.00574   0.00000  Uiso   1.00
C297   C     0.24246   0.20622   0.24647   0.00000  Uiso   1.00
C298   C     0.30309   0.16377   0.25589   0.00000  Uiso   1.00
C299   C     0.34967   0.21611   0.30265   0.00000  Uiso   1.00
H300   H     0.14879   0.40150   0.29221   0.00000  Uiso   1.00
H301   H     0.06097   0.32434   0.37620   0.00000  Uiso   1.00
H302   H     0.11683   0.48487   0.15337   0.00000  Uiso   1.00
H303   H     0.26476   0.42092   0.35707   0.00000  Uiso   1.00
H304   H     0.96961   0.19845   0.45343   0.00000  Uiso   1.00
H305   H     0.08740   0.53695   0.98357   0.00000  Uiso   1.00
H306   H     0.39935   0.40210   0.41311   0.00000  Uiso   1.00
H307   H     0.19511   0.09061   0.16987   0.00000  Uiso   1.00
H308   H     0.10983   0.99638   0.24715   0.00000  Uiso   1.00
H309   H     0.16569   0.15692   0.02431   0.00000  Uiso   1.00
H310   H     0.31362   0.09297   0.22802   0.00000  Uiso   1.00
H311   H     0.00926   0.93227   0.34869   0.00000  Uiso   1.00
H312   H     0.12705   0.27078   0.87882   0.00000  Uiso   1.00
H313   H     0.43900   0.13592   0.30837   0.00000  Uiso   1.00
O314   O     0.93249   0.00899   0.45409   0.00000  Uiso   1.00
O315   O     0.08703   0.45310   0.83764   0.00000  Uiso   1.00
O316   O     0.49630   0.27618   0.40120   0.00000  Uiso   1.00
N317   N     0.99065   0.14873   0.41819   0.00000  Uiso   1.00
N318   N     0.10077   0.46521   0.97889   0.00000  Uiso   1.00
N319   N     0.39242   0.33915   0.38046   0.00000  Uiso   1.00
N320   N     0.01199   0.00550   0.36182   0.00000  Uiso   1.00
N321   N     0.12211   0.32198   0.92253   0.00000  Uiso   1.00
N322   N     0.41376   0.19592   0.32410   0.00000  Uiso   1.00
C323   C     0.65940   0.83027   0.26418   0.00000  Uiso   1.00
C324   C     0.61812   0.74524   0.29286   0.00000  Uiso   1.00
C325   C     0.57151   0.75352   0.34836   0.00000  Uiso   1.00
C326   C     0.53898   0.66698   0.36661   0.00000  Uiso   1.00
C327   C     0.47277   0.54886   0.41658   0.00000  Uiso   1.00
C328   C     0.64845   0.83246   0.17179   0.00000  Uiso   1.00
C329   C     0.62737   0.91408   0.12549   0.00000  Uiso   1.00
C330   C     0.62038   0.90096   0.04181   0.00000  Uiso   1.00
C331   C     0.60132   0.91828   0.90381   0.00000  Uiso   1.00
C332   C     0.72883   0.79771   0.28247   0.00000  Uiso   1.00
C333   C     0.77533   0.85013   0.32922   0.00000  Uiso   1.00
C334   C     0.83601   0.80776   0.33872   0.00000  Uiso   1.00
C335   C     0.94175   0.77112   0.37258   0.00000  Uiso   1.00
C336   C     0.68450   0.66184   0.19790   0.00000  Uiso   1.00
C337   C     0.63175   0.65375   0.25685   0.00000  Uiso   1.00
C338   C     0.59928   0.56717   0.27503   0.00000  Uiso   1.00
C339   C     0.55263   0.57532   0.33054   0.00000  Uiso   1.00
C340   C     0.66208   0.74097   0.13578   0.00000  Uiso   1.00
C341   C     0.65513   0.72773   0.05215   0.00000  Uiso   1.00
C342   C     0.63403   0.80931   0.00574   0.00000  Uiso   1.00
C343   C     0.74246   0.70622   0.24647   0.00000  Uiso   1.00
C344   C     0.80309   0.66377   0.25589   0.00000  Uiso   1.00
C345   C     0.84967   0.71611   0.30265   0.00000  Uiso   1.00
H346   H     0.64879   0.90150   0.29221   0.00000  Uiso   1.00
H347   H     0.56097   0.82434   0.37620   0.00000  Uiso   1.00
H348   H     0.61683   0.98487   0.15337   0.00000  Uiso   1.00
H349   H     0.76476   0.92092   0.35707   0.00000  Uiso   1.00
H350   H     0.46961   0.69845   0.45343   0.00000  Uiso   1.00
H351   H     0.58740   0.03695   0.98357   0.00000  Uiso   1.00
H352   H     0.89935   0.90210   0.41311   0.00000  Uiso   1.00
H353   H     0.69511   0.59061   0.16987   0.00000  Uiso   1.00
H354   H     0.60983   0.49638   0.24715   0.00000  Uiso   1.00
H355   H     0.66569   0.65692   0.02431   0.00000  Uiso   1.00
H356   H     0.81362   0.59297   0.22802   0.00000  Uiso   1.00
H357   H     0.50926   0.43227   0.34869   0.00000  Uiso   1.00
H358   H     0.62705   0.77078   0.87882   0.00000  Uiso   1.00
H359   H     0.93900   0.63592   0.30837   0.00000  Uiso   1.00
O360   O     0.43249   0.50899   0.45409   0.00000  Uiso   1.00
O361   O     0.58703   0.95310   0.83764   0.00000  Uiso   1.00
O362   O     0.99630   0.77618   0.40120   0.00000  Uiso   1.00
N363   N     0.49065   0.64873   0.41819   0.00000  Uiso   1.00
N364   N     0.60077   0.96521   0.97889   0.00000  Uiso   1.00
N365   N     0.89242   0.83915   0.38046   0.00000  Uiso   1.00
N366   N     0.51199   0.50550   0.36182   0.00000  Uiso   1.00
N367   N     0.62211   0.82198   0.92253   0.00000  Uiso   1.00
N368   N     0.91376   0.69592   0.32410   0.00000  Uiso   1.00
