data_job_01001
_audit_creation_date              2018-12-19
_audit_creation_method            'Materials Studio'
_symmetry_space_group_name_H-M    'P1'
_symmetry_Int_Tables_number       1
_symmetry_cell_setting            triclinic
loop_
_symmetry_equiv_pos_as_xyz
  x,y,z
_cell_length_a                    23.0396
_cell_length_b                    11.5042
_cell_length_c                    17.4320
_cell_angle_alpha                 90.0000
_cell_angle_beta                  152.0477
_cell_angle_gamma                 90.0000
loop_
_atom_site_label
_atom_site_type_symbol
_atom_site_fract_x
_atom_site_fract_y
_atom_site_fract_z
_atom_site_U_iso_or_equiv
_atom_site_adp_type
_atom_site_occupancy
C1     C     0.38265   0.27975   0.07145   0.00000  Uiso   1.00
C2     C     0.28542   0.37563   0.95346   0.00000  Uiso   1.00
C3     C     0.30149   0.48991   0.99569   0.00000  Uiso   1.00
C4     C     0.20129   0.56432   0.86984   0.00000  Uiso   1.00
C5     C     0.06735   0.71905   0.71131   0.00000  Uiso   1.00
C6     C     0.32415   0.18184   0.04966   0.00000  Uiso   1.00
C7     C     0.37281   0.13317   0.17279   0.00000  Uiso   1.00
C8     C     0.30521   0.04442   0.12792   0.00000  Uiso   1.00
C9     C     0.23145   0.89823   0.11877   0.00000  Uiso   1.00
C10    C     0.39683   0.23307   0.00661   0.00000  Uiso   1.00
C11    C     0.50661   0.22745   0.09355   0.00000  Uiso   1.00
C12    C     0.50021   0.18181   0.01245   0.00000  Uiso   1.00
C13    C     0.53931   0.11517   0.93646   0.00000  Uiso   1.00
C14    C     0.17609   0.20867   0.77285   0.00000  Uiso   1.00
C15    C     0.17322   0.33702   0.79127   0.00000  Uiso   1.00
C16    C     0.07296   0.41127   0.66532   0.00000  Uiso   1.00
C17    C     0.08889   0.52564   0.70736   0.00000  Uiso   1.00
C18    C     0.21196   0.14323   0.88748   0.00000  Uiso   1.00
C19    C     0.14428   0.05452   0.84242   0.00000  Uiso   1.00
C20    C     0.19281   0.00574   0.96545   0.00000  Uiso   1.00
C21    C     0.28464   0.19446   0.84442   0.00000  Uiso   1.00
C22    C     0.27807   0.14881   0.76318   0.00000  Uiso   1.00
C23    C     0.38781   0.14313   0.84997   0.00000  Uiso   1.00
H24    H     0.46999   0.30981   0.19772   0.00000  Uiso   1.00
H25    H     0.38833   0.51976   0.12122   0.00000  Uiso   1.00
H26    H     0.45963   0.16306   0.29829   0.00000  Uiso   1.00
H27    H     0.59341   0.25734   0.21905   0.00000  Uiso   1.00
H28    H     0.24830   0.73549   0.96489   0.00000  Uiso   1.00
H29    H     0.39867   0.98335   0.33826   0.00000  Uiso   1.00
H30    H     0.68076   0.18214   0.17119   0.00000  Uiso   1.00
H31    H     0.08874   0.17860   0.64658   0.00000  Uiso   1.00
H32    H     0.98616   0.38136   0.53983   0.00000  Uiso   1.00
H33    H     0.05746   0.02466   0.71690   0.00000  Uiso   1.00
H34    H     0.19124   0.11894   0.63767   0.00000  Uiso   1.00
H35    H     0.92188   0.62316   0.49301   0.00000  Uiso   1.00
H36    H     0.07225   0.87101   0.86639   0.00000  Uiso   1.00
H37    H     0.35434   0.06981   0.69931   0.00000  Uiso   1.00
O38    O     0.02447   0.81506   0.66868   0.00000  Uiso   1.00
O39    O     0.22176   0.82827   0.15854   0.00000  Uiso   1.00
O40    O     0.59186   0.08909   0.93933   0.00000  Uiso   1.00
N41    N     0.18556   0.68123   0.86848   0.00000  Uiso   1.00
N42    N     0.32614   0.97804   0.21755   0.00000  Uiso   1.00
N43    N     0.58988   0.16386   0.06137   0.00000  Uiso   1.00
N44    N     0.00992   0.62079   0.61456   0.00000  Uiso   1.00
N45    N     0.15050   0.91760   0.96364   0.00000  Uiso   1.00
N46    N     0.41424   0.10342   0.80745   0.00000  Uiso   1.00
C47    C     0.61735   0.77975   0.42855   0.00000  Uiso   1.00
C48    C     0.71458   0.87563   0.54654   0.00000  Uiso   1.00
C49    C     0.69851   0.98991   0.50431   0.00000  Uiso   1.00
C50    C     0.79871   0.06432   0.63016   0.00000  Uiso   1.00
C51    C     0.93265   0.21905   0.78869   0.00000  Uiso   1.00
C52    C     0.67585   0.68184   0.45034   0.00000  Uiso   1.00
C53    C     0.62719   0.63317   0.32721   0.00000  Uiso   1.00
C54    C     0.69479   0.54442   0.37208   0.00000  Uiso   1.00
C55    C     0.76855   0.39823   0.38123   0.00000  Uiso   1.00
C56    C     0.60317   0.73307   0.49339   0.00000  Uiso   1.00
C57    C     0.49339   0.72745   0.40645   0.00000  Uiso   1.00
C58    C     0.49979   0.68181   0.48755   0.00000  Uiso   1.00
C59    C     0.46069   0.61517   0.56354   0.00000  Uiso   1.00
C60    C     0.82391   0.70867   0.72715   0.00000  Uiso   1.00
C61    C     0.82678   0.83702   0.70873   0.00000  Uiso   1.00
C62    C     0.92704   0.91127   0.83468   0.00000  Uiso   1.00
C63    C     0.91111   0.02564   0.79264   0.00000  Uiso   1.00
C64    C     0.78804   0.64323   0.61252   0.00000  Uiso   1.00
C65    C     0.85572   0.55452   0.65758   0.00000  Uiso   1.00
C66    C     0.80719   0.50574   0.53455   0.00000  Uiso   1.00
C67    C     0.71536   0.69446   0.65558   0.00000  Uiso   1.00
C68    C     0.72193   0.64881   0.73682   0.00000  Uiso   1.00
C69    C     0.61219   0.64313   0.65003   0.00000  Uiso   1.00
H70    H     0.53001   0.80981   0.30228   0.00000  Uiso   1.00
H71    H     0.61167   0.01976   0.37878   0.00000  Uiso   1.00
H72    H     0.54037   0.66306   0.20171   0.00000  Uiso   1.00
H73    H     0.40659   0.75734   0.28095   0.00000  Uiso   1.00
H74    H     0.75170   0.23549   0.53511   0.00000  Uiso   1.00
H75    H     0.60133   0.48335   0.16174   0.00000  Uiso   1.00
H76    H     0.31924   0.68214   0.32881   0.00000  Uiso   1.00
H77    H     0.91126   0.67860   0.85342   0.00000  Uiso   1.00
H78    H     0.01384   0.88136   0.96017   0.00000  Uiso   1.00
H79    H     0.94254   0.52466   0.78310   0.00000  Uiso   1.00
H80    H     0.80876   0.61894   0.86233   0.00000  Uiso   1.00
H81    H     0.07812   0.12316   0.00699   0.00000  Uiso   1.00
H82    H     0.92775   0.37101   0.63361   0.00000  Uiso   1.00
H83    H     0.64566   0.56981   0.80069   0.00000  Uiso   1.00
O84    O     0.97553   0.31506   0.83132   0.00000  Uiso   1.00
O85    O     0.77824   0.32827   0.34146   0.00000  Uiso   1.00
O86    O     0.40814   0.58909   0.56067   0.00000  Uiso   1.00
N87    N     0.81444   0.18123   0.63152   0.00000  Uiso   1.00
N88    N     0.67386   0.47804   0.28245   0.00000  Uiso   1.00
N89    N     0.41012   0.66386   0.43863   0.00000  Uiso   1.00
N90    N     0.99008   0.12079   0.88544   0.00000  Uiso   1.00
N91    N     0.84950   0.41760   0.53636   0.00000  Uiso   1.00
N92    N     0.58576   0.60342   0.69255   0.00000  Uiso   1.00
C93    C     0.61735   0.72025   0.92855   0.00000  Uiso   1.00
C94    C     0.71458   0.62437   0.04654   0.00000  Uiso   1.00
C95    C     0.69851   0.51009   0.00431   0.00000  Uiso   1.00
C96    C     0.79871   0.43568   0.13016   0.00000  Uiso   1.00
C97    C     0.93265   0.28095   0.28869   0.00000  Uiso   1.00
C98    C     0.67585   0.81816   0.95034   0.00000  Uiso   1.00
C99    C     0.62719   0.86683   0.82721   0.00000  Uiso   1.00
C100   C     0.69479   0.95558   0.87208   0.00000  Uiso   1.00
C101   C     0.76855   0.10177   0.88123   0.00000  Uiso   1.00
C102   C     0.60317   0.76693   0.99339   0.00000  Uiso   1.00
C103   C     0.49339   0.77255   0.90645   0.00000  Uiso   1.00
C104   C     0.49979   0.81819   0.98755   0.00000  Uiso   1.00
C105   C     0.46069   0.88483   0.06354   0.00000  Uiso   1.00
C106   C     0.82391   0.79133   0.22715   0.00000  Uiso   1.00
C107   C     0.82678   0.66298   0.20873   0.00000  Uiso   1.00
C108   C     0.92704   0.58873   0.33468   0.00000  Uiso   1.00
C109   C     0.91111   0.47436   0.29264   0.00000  Uiso   1.00
C110   C     0.78804   0.85677   0.11252   0.00000  Uiso   1.00
C111   C     0.85572   0.94548   0.15758   0.00000  Uiso   1.00
C112   C     0.80719   0.99426   0.03455   0.00000  Uiso   1.00
C113   C     0.71536   0.80554   0.15558   0.00000  Uiso   1.00
C114   C     0.72193   0.85119   0.23682   0.00000  Uiso   1.00
C115   C     0.61219   0.85687   0.15003   0.00000  Uiso   1.00
H116   H     0.53001   0.69019   0.80228   0.00000  Uiso   1.00
H117   H     0.61167   0.48024   0.87878   0.00000  Uiso   1.00
H118   H     0.54037   0.83694   0.70171   0.00000  Uiso   1.00
H119   H     0.40659   0.74266   0.78095   0.00000  Uiso   1.00
H120   H     0.75170   0.26451   0.03511   0.00000  Uiso   1.00
H121   H     0.60133   0.01665   0.66174   0.00000  Uiso   1.00
H122   H     0.31924   0.81786   0.82881   0.00000  Uiso   1.00
H123   H     0.91126   0.82140   0.35342   0.00000  Uiso   1.00
H124   H     0.01384   0.61864   0.46017   0.00000  Uiso   1.00
H125   H     0.94254   0.97534   0.28310   0.00000  Uiso   1.00
H126   H     0.80876   0.88106   0.36233   0.00000  Uiso   1.00
H127   H     0.07812   0.37684   0.50699   0.00000  Uiso   1.00
H128   H     0.92775   0.12899   0.13361   0.00000  Uiso   1.00
H129   H     0.64566   0.93019   0.30069   0.00000  Uiso   1.00
O130   O     0.97553   0.18494   0.33132   0.00000  Uiso   1.00
O131   O     0.77824   0.17173   0.84146   0.00000  Uiso   1.00
O132   O     0.40814   0.91091   0.06067   0.00000  Uiso   1.00
N133   N     0.81444   0.31877   0.13152   0.00000  Uiso   1.00
N134   N     0.67386   0.02196   0.78245   0.00000  Uiso   1.00
N135   N     0.41012   0.83614   0.93863   0.00000  Uiso   1.00
N136   N     0.99008   0.37921   0.38544   0.00000  Uiso   1.00
N137   N     0.84950   0.08240   0.03636   0.00000  Uiso   1.00
N138   N     0.58576   0.89658   0.19255   0.00000  Uiso   1.00
C139   C     0.38265   0.22025   0.57145   0.00000  Uiso   1.00
C140   C     0.28542   0.12437   0.45346   0.00000  Uiso   1.00
C141   C     0.30149   0.01009   0.49569   0.00000  Uiso   1.00
C142   C     0.20129   0.93568   0.36984   0.00000  Uiso   1.00
C143   C     0.06735   0.78095   0.21131   0.00000  Uiso   1.00
C144   C     0.32415   0.31816   0.54966   0.00000  Uiso   1.00
C145   C     0.37281   0.36683   0.67279   0.00000  Uiso   1.00
C146   C     0.30521   0.45558   0.62792   0.00000  Uiso   1.00
C147   C     0.23145   0.60177   0.61877   0.00000  Uiso   1.00
C148   C     0.39683   0.26693   0.50661   0.00000  Uiso   1.00
C149   C     0.50661   0.27255   0.59355   0.00000  Uiso   1.00
C150   C     0.50021   0.31819   0.51245   0.00000  Uiso   1.00
C151   C     0.53931   0.38483   0.43646   0.00000  Uiso   1.00
C152   C     0.17609   0.29133   0.27285   0.00000  Uiso   1.00
C153   C     0.17322   0.16298   0.29127   0.00000  Uiso   1.00
C154   C     0.07296   0.08873   0.16532   0.00000  Uiso   1.00
C155   C     0.08889   0.97436   0.20736   0.00000  Uiso   1.00
C156   C     0.21196   0.35677   0.38748   0.00000  Uiso   1.00
C157   C     0.14428   0.44548   0.34242   0.00000  Uiso   1.00
C158   C     0.19281   0.49426   0.46545   0.00000  Uiso   1.00
C159   C     0.28464   0.30554   0.34442   0.00000  Uiso   1.00
C160   C     0.27807   0.35119   0.26318   0.00000  Uiso   1.00
C161   C     0.38781   0.35687   0.34997   0.00000  Uiso   1.00
H162   H     0.46999   0.19019   0.69772   0.00000  Uiso   1.00
H163   H     0.38833   0.98024   0.62122   0.00000  Uiso   1.00
H164   H     0.45963   0.33694   0.79829   0.00000  Uiso   1.00
H165   H     0.59341   0.24266   0.71905   0.00000  Uiso   1.00
H166   H     0.24830   0.76451   0.46489   0.00000  Uiso   1.00
H167   H     0.39867   0.51665   0.83826   0.00000  Uiso   1.00
H168   H     0.68076   0.31786   0.67119   0.00000  Uiso   1.00
H169   H     0.08874   0.32140   0.14658   0.00000  Uiso   1.00
H170   H     0.98616   0.11864   0.03983   0.00000  Uiso   1.00
H171   H     0.05746   0.47534   0.21690   0.00000  Uiso   1.00
H172   H     0.19124   0.38106   0.13767   0.00000  Uiso   1.00
H173   H     0.92188   0.87684   0.99301   0.00000  Uiso   1.00
H174   H     0.07225   0.62899   0.36639   0.00000  Uiso   1.00
H175   H     0.35434   0.43019   0.19931   0.00000  Uiso   1.00
O176   O     0.02447   0.68494   0.16868   0.00000  Uiso   1.00
O177   O     0.22176   0.67173   0.65854   0.00000  Uiso   1.00
O178   O     0.59186   0.41091   0.43933   0.00000  Uiso   1.00
N179   N     0.18556   0.81877   0.36848   0.00000  Uiso   1.00
N180   N     0.32614   0.52196   0.71755   0.00000  Uiso   1.00
N181   N     0.58988   0.33614   0.56137   0.00000  Uiso   1.00
N182   N     0.00992   0.87921   0.11456   0.00000  Uiso   1.00
N183   N     0.15050   0.58240   0.46364   0.00000  Uiso   1.00
N184   N     0.41424   0.39658   0.30745   0.00000  Uiso   1.00
