data_job_04825
_audit_creation_date              2018-12-19
_audit_creation_method            'Materials Studio'
_symmetry_space_group_name_H-M    'P1'
_symmetry_Int_Tables_number       1
_symmetry_cell_setting            triclinic
loop_
_symmetry_equiv_pos_as_xyz
  x,y,z
_cell_length_a                    14.9723
_cell_length_b                    19.2011
_cell_length_c                    16.3985
_cell_angle_alpha                 90.0000
_cell_angle_beta                  90.0000
_cell_angle_gamma                 90.0000
loop_
_atom_site_label
_atom_site_type_symbol
_atom_site_fract_x
_atom_site_fract_y
_atom_site_fract_z
_atom_site_U_iso_or_equiv
_atom_site_adp_type
_atom_site_occupancy
C1     C     0.95578   0.55780   0.82571   0.00000  Uiso   1.00
C2     C     0.04233   0.56244   0.87443   0.00000  Uiso   1.00
C3     C     0.05228   0.59422   0.94989   0.00000  Uiso   1.00
C4     C     0.13692   0.59291   0.98443   0.00000  Uiso   1.00
C5     C     0.26036   0.60501   0.06608   0.00000  Uiso   1.00
C6     C     0.97582   0.59015   0.74278   0.00000  Uiso   1.00
C7     C     0.92984   0.64523   0.70755   0.00000  Uiso   1.00
C8     C     0.95849   0.66724   0.63126   0.00000  Uiso   1.00
C9     C     0.97863   0.72234   0.50850   0.00000  Uiso   1.00
C10    C     0.94009   0.48049   0.81000   0.00000  Uiso   1.00
C11    C     0.86406   0.44335   0.83126   0.00000  Uiso   1.00
C12    C     0.86262   0.37304   0.81154   0.00000  Uiso   1.00
C13    C     0.82729   0.25786   0.79314   0.00000  Uiso   1.00
C14    C     0.08843   0.49896   0.75286   0.00000  Uiso   1.00
C15    C     0.11438   0.53048   0.83486   0.00000  Uiso   1.00
C16    C     0.19903   0.52912   0.86930   0.00000  Uiso   1.00
C17    C     0.20910   0.56089   0.94480   0.00000  Uiso   1.00
C18    C     0.04787   0.55820   0.70321   0.00000  Uiso   1.00
C19    C     0.07659   0.58013   0.62695   0.00000  Uiso   1.00
C20    C     0.03067   0.63523   0.59162   0.00000  Uiso   1.00
C21    C     0.01214   0.44853   0.77043   0.00000  Uiso   1.00
C22    C     0.01082   0.37826   0.75067   0.00000  Uiso   1.00
C23    C     0.93480   0.34102   0.77190   0.00000  Uiso   1.00
H24    H     0.89969   0.58268   0.85651   0.00000  Uiso   1.00
H25    H     0.99650   0.61895   0.98049   0.00000  Uiso   1.00
H26    H     0.87408   0.66995   0.73818   0.00000  Uiso   1.00
H27    H     0.80832   0.46810   0.86188   0.00000  Uiso   1.00
H28    H     0.13562   0.64510   0.10048   0.00000  Uiso   1.00
H29    H     0.87747   0.75260   0.58955   0.00000  Uiso   1.00
H30    H     0.73878   0.32698   0.85038   0.00000  Uiso   1.00
H31    H     0.14452   0.47408   0.72205   0.00000  Uiso   1.00
H32    H     0.25477   0.50439   0.83866   0.00000  Uiso   1.00
H33    H     0.13235   0.55538   0.59635   0.00000  Uiso   1.00
H34    H     0.06658   0.35354   0.72005   0.00000  Uiso   1.00
H35    H     0.34524   0.55211   0.98537   0.00000  Uiso   1.00
H36    H     0.08708   0.65962   0.47443   0.00000  Uiso   1.00
H37    H     0.94840   0.23399   0.73527   0.00000  Uiso   1.00
O38    O     0.30855   0.62052   0.12204   0.00000  Uiso   1.00
O39    O     0.96984   0.76156   0.45172   0.00000  Uiso   1.00
O40    O     0.78790   0.20315   0.79393   0.00000  Uiso   1.00
N41    N     0.16982   0.61904   0.05740   0.00000  Uiso   1.00
N42    N     0.92847   0.71956   0.57971   0.00000  Uiso   1.00
N43    N     0.79880   0.32164   0.82355   0.00000  Uiso   1.00
N44    N     0.28262   0.56901   0.99545   0.00000  Uiso   1.00
N45    N     0.04126   0.66953   0.51777   0.00000  Uiso   1.00
N46    N     0.91160   0.27161   0.76160   0.00000  Uiso   1.00
C47    C     0.04568   0.43875   0.24681   0.00000  Uiso   1.00
C48    C     0.95896   0.43410   0.19836   0.00000  Uiso   1.00
C49    C     0.94873   0.40227   0.12295   0.00000  Uiso   1.00
C50    C     0.86396   0.40357   0.08866   0.00000  Uiso   1.00
C51    C     0.74023   0.39145   0.00739   0.00000  Uiso   1.00
C52    C     0.02592   0.40646   0.32983   0.00000  Uiso   1.00
C53    C     0.07201   0.35140   0.36498   0.00000  Uiso   1.00
C54    C     0.04362   0.32944   0.44137   0.00000  Uiso   1.00
C55    C     0.02390   0.27444   0.56425   0.00000  Uiso   1.00
C56    C     0.06145   0.51607   0.26241   0.00000  Uiso   1.00
C57    C     0.13743   0.55317   0.24088   0.00000  Uiso   1.00
C58    C     0.13897   0.62350   0.26053   0.00000  Uiso   1.00
C59    C     0.17441   0.73869   0.27872   0.00000  Uiso   1.00
C60    C     0.91332   0.49767   0.32000   0.00000  Uiso   1.00
C61    C     0.88706   0.46610   0.23811   0.00000  Uiso   1.00
C62    C     0.80229   0.46746   0.20393   0.00000  Uiso   1.00
C63    C     0.79194   0.43564   0.12848   0.00000  Uiso   1.00
C64    C     0.95403   0.43846   0.36959   0.00000  Uiso   1.00
C65    C     0.92557   0.41658   0.44595   0.00000  Uiso   1.00
C66    C     0.97160   0.36150   0.48120   0.00000  Uiso   1.00
C67    C     0.98956   0.54808   0.30216   0.00000  Uiso   1.00
C68    C     0.99098   0.61836   0.32185   0.00000  Uiso   1.00
C69    C     0.06694   0.65556   0.30036   0.00000  Uiso   1.00
H70    H     0.10165   0.41383   0.21587   0.00000  Uiso   1.00
H71    H     0.00438   0.37750   0.09221   0.00000  Uiso   1.00
H72    H     0.12765   0.32664   0.33420   0.00000  Uiso   1.00
H73    H     0.19305   0.52839   0.21012   0.00000  Uiso   1.00
H74    H     0.86483   0.35131   0.97266   0.00000  Uiso   1.00
H75    H     0.12477   0.24409   0.48292   0.00000  Uiso   1.00
H76    H     0.26268   0.66950   0.22128   0.00000  Uiso   1.00
H77    H     0.85735   0.52259   0.35095   0.00000  Uiso   1.00
H78    H     0.74667   0.49223   0.23470   0.00000  Uiso   1.00
H79    H     0.86994   0.44137   0.47670   0.00000  Uiso   1.00
H80    H     0.93534   0.64311   0.35262   0.00000  Uiso   1.00
H81    H     0.65566   0.44442   0.08831   0.00000  Uiso   1.00
H82    H     0.91560   0.33720   0.59858   0.00000  Uiso   1.00
H83    H     0.05351   0.76262   0.33693   0.00000  Uiso   1.00
O84    O     0.69184   0.37591   0.95159   0.00000  Uiso   1.00
O85    O     0.03288   0.23525   0.62104   0.00000  Uiso   1.00
O86    O     0.21381   0.79338   0.27776   0.00000  Uiso   1.00
N87    N     0.83079   0.37740   0.01582   0.00000  Uiso   1.00
N88    N     0.07381   0.27715   0.49288   0.00000  Uiso   1.00
N89    N     0.20276   0.67487   0.24829   0.00000  Uiso   1.00
N90    N     0.71824   0.42751   0.07806   0.00000  Uiso   1.00
N91    N     0.96126   0.32725   0.55511   0.00000  Uiso   1.00
N92    N     0.09021   0.72498   0.31052   0.00000  Uiso   1.00
C93    C     0.54422   0.44220   0.32571   0.00000  Uiso   1.00
C94    C     0.45767   0.43756   0.37443   0.00000  Uiso   1.00
C95    C     0.44772   0.40578   0.44989   0.00000  Uiso   1.00
C96    C     0.36308   0.40709   0.48443   0.00000  Uiso   1.00
C97    C     0.23964   0.39499   0.56608   0.00000  Uiso   1.00
C98    C     0.52418   0.40985   0.24278   0.00000  Uiso   1.00
C99    C     0.57016   0.35477   0.20755   0.00000  Uiso   1.00
C100   C     0.54151   0.33276   0.13126   0.00000  Uiso   1.00
C101   C     0.52137   0.27766   0.00850   0.00000  Uiso   1.00
C102   C     0.55991   0.51951   0.31000   0.00000  Uiso   1.00
C103   C     0.63594   0.55665   0.33126   0.00000  Uiso   1.00
C104   C     0.63738   0.62696   0.31154   0.00000  Uiso   1.00
C105   C     0.67271   0.74214   0.29314   0.00000  Uiso   1.00
C106   C     0.41157   0.50104   0.25286   0.00000  Uiso   1.00
C107   C     0.38562   0.46952   0.33486   0.00000  Uiso   1.00
C108   C     0.30097   0.47088   0.36930   0.00000  Uiso   1.00
C109   C     0.29090   0.43911   0.44480   0.00000  Uiso   1.00
C110   C     0.45213   0.44180   0.20321   0.00000  Uiso   1.00
C111   C     0.42341   0.41987   0.12695   0.00000  Uiso   1.00
C112   C     0.46933   0.36477   0.09162   0.00000  Uiso   1.00
C113   C     0.48786   0.55147   0.27043   0.00000  Uiso   1.00
C114   C     0.48918   0.62174   0.25067   0.00000  Uiso   1.00
C115   C     0.56520   0.65898   0.27190   0.00000  Uiso   1.00
H116   H     0.60031   0.41732   0.35651   0.00000  Uiso   1.00
H117   H     0.50350   0.38105   0.48049   0.00000  Uiso   1.00
H118   H     0.62592   0.33005   0.23818   0.00000  Uiso   1.00
H119   H     0.69168   0.53190   0.36188   0.00000  Uiso   1.00
H120   H     0.36438   0.35490   0.60048   0.00000  Uiso   1.00
H121   H     0.62253   0.24740   0.08955   0.00000  Uiso   1.00
H122   H     0.76122   0.67302   0.35038   0.00000  Uiso   1.00
H123   H     0.35548   0.52592   0.22205   0.00000  Uiso   1.00
H124   H     0.24523   0.49561   0.33866   0.00000  Uiso   1.00
H125   H     0.36765   0.44462   0.09635   0.00000  Uiso   1.00
H126   H     0.43342   0.64646   0.22005   0.00000  Uiso   1.00
H127   H     0.15476   0.44789   0.48537   0.00000  Uiso   1.00
H128   H     0.41292   0.34038   0.97443   0.00000  Uiso   1.00
H129   H     0.55160   0.76601   0.23527   0.00000  Uiso   1.00
O130   O     0.19145   0.37948   0.62204   0.00000  Uiso   1.00
O131   O     0.53016   0.23844   0.95172   0.00000  Uiso   1.00
O132   O     0.71210   0.79685   0.29393   0.00000  Uiso   1.00
N133   N     0.33018   0.38096   0.55740   0.00000  Uiso   1.00
N134   N     0.57153   0.28044   0.07971   0.00000  Uiso   1.00
N135   N     0.70120   0.67836   0.32355   0.00000  Uiso   1.00
N136   N     0.21738   0.43099   0.49545   0.00000  Uiso   1.00
N137   N     0.45874   0.33047   0.01777   0.00000  Uiso   1.00
N138   N     0.58840   0.72839   0.26160   0.00000  Uiso   1.00
C139   C     0.45432   0.56125   0.74681   0.00000  Uiso   1.00
C140   C     0.54104   0.56590   0.69836   0.00000  Uiso   1.00
C141   C     0.55127   0.59773   0.62295   0.00000  Uiso   1.00
C142   C     0.63604   0.59643   0.58866   0.00000  Uiso   1.00
C143   C     0.75977   0.60855   0.50739   0.00000  Uiso   1.00
C144   C     0.47408   0.59354   0.82983   0.00000  Uiso   1.00
C145   C     0.42799   0.64860   0.86498   0.00000  Uiso   1.00
C146   C     0.45638   0.67056   0.94137   0.00000  Uiso   1.00
C147   C     0.47610   0.72556   0.06425   0.00000  Uiso   1.00
C148   C     0.43855   0.48393   0.76241   0.00000  Uiso   1.00
C149   C     0.36257   0.44683   0.74088   0.00000  Uiso   1.00
C150   C     0.36103   0.37650   0.76053   0.00000  Uiso   1.00
C151   C     0.32559   0.26131   0.77872   0.00000  Uiso   1.00
C152   C     0.58668   0.50233   0.82000   0.00000  Uiso   1.00
C153   C     0.61294   0.53390   0.73811   0.00000  Uiso   1.00
C154   C     0.69771   0.53254   0.70393   0.00000  Uiso   1.00
C155   C     0.70806   0.56436   0.62848   0.00000  Uiso   1.00
C156   C     0.54597   0.56154   0.86959   0.00000  Uiso   1.00
C157   C     0.57443   0.58342   0.94595   0.00000  Uiso   1.00
C158   C     0.52840   0.63850   0.98120   0.00000  Uiso   1.00
C159   C     0.51044   0.45192   0.80216   0.00000  Uiso   1.00
C160   C     0.50902   0.38164   0.82185   0.00000  Uiso   1.00
C161   C     0.43306   0.34444   0.80036   0.00000  Uiso   1.00
H162   H     0.39835   0.58617   0.71587   0.00000  Uiso   1.00
H163   H     0.49562   0.62250   0.59221   0.00000  Uiso   1.00
H164   H     0.37235   0.67336   0.83420   0.00000  Uiso   1.00
H165   H     0.30695   0.47161   0.71012   0.00000  Uiso   1.00
H166   H     0.63517   0.64869   0.47266   0.00000  Uiso   1.00
H167   H     0.37523   0.75591   0.98292   0.00000  Uiso   1.00
H168   H     0.23732   0.33050   0.72128   0.00000  Uiso   1.00
H169   H     0.64265   0.47741   0.85095   0.00000  Uiso   1.00
H170   H     0.75333   0.50777   0.73470   0.00000  Uiso   1.00
H171   H     0.63006   0.55863   0.97670   0.00000  Uiso   1.00
H172   H     0.56466   0.35689   0.85262   0.00000  Uiso   1.00
H173   H     0.84434   0.55558   0.58831   0.00000  Uiso   1.00
H174   H     0.58440   0.66280   0.09858   0.00000  Uiso   1.00
H175   H     0.44649   0.23738   0.83693   0.00000  Uiso   1.00
O176   O     0.80816   0.62409   0.45159   0.00000  Uiso   1.00
O177   O     0.46712   0.76475   0.12104   0.00000  Uiso   1.00
O178   O     0.28619   0.20662   0.77776   0.00000  Uiso   1.00
N179   N     0.66921   0.62260   0.51582   0.00000  Uiso   1.00
N180   N     0.42619   0.72285   0.99288   0.00000  Uiso   1.00
N181   N     0.29724   0.32513   0.74829   0.00000  Uiso   1.00
N182   N     0.78176   0.57249   0.57806   0.00000  Uiso   1.00
N183   N     0.53874   0.67275   0.05511   0.00000  Uiso   1.00
N184   N     0.40979   0.27502   0.81052   0.00000  Uiso   1.00
C185   C     0.04422   0.05780   0.67429   0.00000  Uiso   1.00
C186   C     0.95767   0.06244   0.62557   0.00000  Uiso   1.00
C187   C     0.94772   0.09422   0.55011   0.00000  Uiso   1.00
C188   C     0.86308   0.09291   0.51557   0.00000  Uiso   1.00
C189   C     0.73964   0.10501   0.43392   0.00000  Uiso   1.00
C190   C     0.02418   0.09015   0.75722   0.00000  Uiso   1.00
C191   C     0.07016   0.14523   0.79245   0.00000  Uiso   1.00
C192   C     0.04151   0.16724   0.86874   0.00000  Uiso   1.00
C193   C     0.02137   0.22234   0.99150   0.00000  Uiso   1.00
C194   C     0.05991   0.98049   0.69000   0.00000  Uiso   1.00
C195   C     0.13594   0.94335   0.66874   0.00000  Uiso   1.00
C196   C     0.13738   0.87304   0.68846   0.00000  Uiso   1.00
C197   C     0.17271   0.75786   0.70686   0.00000  Uiso   1.00
C198   C     0.91157   0.99896   0.74714   0.00000  Uiso   1.00
C199   C     0.88562   0.03048   0.66514   0.00000  Uiso   1.00
C200   C     0.80097   0.02912   0.63070   0.00000  Uiso   1.00
C201   C     0.79090   0.06089   0.55520   0.00000  Uiso   1.00
C202   C     0.95213   0.05820   0.79679   0.00000  Uiso   1.00
C203   C     0.92341   0.08013   0.87305   0.00000  Uiso   1.00
C204   C     0.96933   0.13523   0.90838   0.00000  Uiso   1.00
C205   C     0.98786   0.94853   0.72957   0.00000  Uiso   1.00
C206   C     0.98918   0.87826   0.74933   0.00000  Uiso   1.00
C207   C     0.06520   0.84102   0.72810   0.00000  Uiso   1.00
H208   H     0.10031   0.08268   0.64349   0.00000  Uiso   1.00
H209   H     0.00350   0.11895   0.51951   0.00000  Uiso   1.00
H210   H     0.12592   0.16995   0.76182   0.00000  Uiso   1.00
H211   H     0.19168   0.96810   0.63812   0.00000  Uiso   1.00
H212   H     0.86438   0.14510   0.39952   0.00000  Uiso   1.00
H213   H     0.12253   0.25260   0.91045   0.00000  Uiso   1.00
H214   H     0.26122   0.82698   0.64962   0.00000  Uiso   1.00
H215   H     0.85548   0.97408   0.77795   0.00000  Uiso   1.00
H216   H     0.74523   0.00439   0.66134   0.00000  Uiso   1.00
H217   H     0.86765   0.05538   0.90365   0.00000  Uiso   1.00
H218   H     0.93342   0.85354   0.77995   0.00000  Uiso   1.00
H219   H     0.65476   0.05211   0.51463   0.00000  Uiso   1.00
H220   H     0.91292   0.15962   0.02557   0.00000  Uiso   1.00
H221   H     0.05160   0.73399   0.76473   0.00000  Uiso   1.00
O222   O     0.69145   0.12052   0.37796   0.00000  Uiso   1.00
O223   O     0.03016   0.26156   0.04828   0.00000  Uiso   1.00
O224   O     0.21210   0.70315   0.70607   0.00000  Uiso   1.00
N225   N     0.83018   0.11904   0.44260   0.00000  Uiso   1.00
N226   N     0.07153   0.21956   0.92029   0.00000  Uiso   1.00
N227   N     0.20120   0.82164   0.67645   0.00000  Uiso   1.00
N228   N     0.71738   0.06901   0.50455   0.00000  Uiso   1.00
N229   N     0.95874   0.16953   0.98223   0.00000  Uiso   1.00
N230   N     0.08840   0.77161   0.73840   0.00000  Uiso   1.00
C231   C     0.95432   0.93875   0.25319   0.00000  Uiso   1.00
C232   C     0.04104   0.93410   0.30164   0.00000  Uiso   1.00
C233   C     0.05127   0.90227   0.37705   0.00000  Uiso   1.00
C234   C     0.13604   0.90357   0.41134   0.00000  Uiso   1.00
C235   C     0.25977   0.89145   0.49261   0.00000  Uiso   1.00
C236   C     0.97408   0.90646   0.17017   0.00000  Uiso   1.00
C237   C     0.92799   0.85140   0.13502   0.00000  Uiso   1.00
C238   C     0.95638   0.82944   0.05863   0.00000  Uiso   1.00
C239   C     0.97610   0.77444   0.93575   0.00000  Uiso   1.00
C240   C     0.93855   0.01607   0.23759   0.00000  Uiso   1.00
C241   C     0.86257   0.05317   0.25912   0.00000  Uiso   1.00
C242   C     0.86103   0.12350   0.23947   0.00000  Uiso   1.00
C243   C     0.82559   0.23869   0.22128   0.00000  Uiso   1.00
C244   C     0.08668   0.99767   0.18000   0.00000  Uiso   1.00
C245   C     0.11294   0.96610   0.26189   0.00000  Uiso   1.00
C246   C     0.19771   0.96746   0.29607   0.00000  Uiso   1.00
C247   C     0.20806   0.93564   0.37152   0.00000  Uiso   1.00
C248   C     0.04597   0.93846   0.13041   0.00000  Uiso   1.00
C249   C     0.07443   0.91658   0.05405   0.00000  Uiso   1.00
C250   C     0.02840   0.86150   0.01880   0.00000  Uiso   1.00
C251   C     0.01044   0.04808   0.19784   0.00000  Uiso   1.00
C252   C     0.00902   0.11836   0.17815   0.00000  Uiso   1.00
C253   C     0.93306   0.15556   0.19964   0.00000  Uiso   1.00
H254   H     0.89835   0.91383   0.28413   0.00000  Uiso   1.00
H255   H     0.99562   0.87750   0.40779   0.00000  Uiso   1.00
H256   H     0.87235   0.82664   0.16580   0.00000  Uiso   1.00
H257   H     0.80695   0.02839   0.28988   0.00000  Uiso   1.00
H258   H     0.13517   0.85131   0.52734   0.00000  Uiso   1.00
H259   H     0.87523   0.74409   0.01708   0.00000  Uiso   1.00
H260   H     0.73732   0.16950   0.27872   0.00000  Uiso   1.00
H261   H     0.14265   0.02259   0.14905   0.00000  Uiso   1.00
H262   H     0.25333   0.99223   0.26530   0.00000  Uiso   1.00
H263   H     0.13006   0.94137   0.02330   0.00000  Uiso   1.00
H264   H     0.06466   0.14311   0.14738   0.00000  Uiso   1.00
H265   H     0.34434   0.94442   0.41169   0.00000  Uiso   1.00
H266   H     0.08440   0.83720   0.90142   0.00000  Uiso   1.00
H267   H     0.94649   0.26262   0.16307   0.00000  Uiso   1.00
O268   O     0.30816   0.87591   0.54841   0.00000  Uiso   1.00
O269   O     0.96712   0.73525   0.87896   0.00000  Uiso   1.00
O270   O     0.78619   0.29338   0.22224   0.00000  Uiso   1.00
N271   N     0.16921   0.87740   0.48418   0.00000  Uiso   1.00
N272   N     0.92619   0.77715   0.00712   0.00000  Uiso   1.00
N273   N     0.79724   0.17487   0.25171   0.00000  Uiso   1.00
N274   N     0.28176   0.92751   0.42194   0.00000  Uiso   1.00
N275   N     0.03874   0.82725   0.94489   0.00000  Uiso   1.00
N276   N     0.90979   0.22498   0.18948   0.00000  Uiso   1.00
C277   C     0.45578   0.94220   0.17429   0.00000  Uiso   1.00
C278   C     0.54233   0.93756   0.12557   0.00000  Uiso   1.00
C279   C     0.55228   0.90578   0.05011   0.00000  Uiso   1.00
C280   C     0.63692   0.90709   0.01557   0.00000  Uiso   1.00
C281   C     0.76036   0.89499   0.93392   0.00000  Uiso   1.00
C282   C     0.47582   0.90985   0.25722   0.00000  Uiso   1.00
C283   C     0.42984   0.85477   0.29245   0.00000  Uiso   1.00
C284   C     0.45849   0.83276   0.36874   0.00000  Uiso   1.00
C285   C     0.47863   0.77766   0.49150   0.00000  Uiso   1.00
C286   C     0.44009   0.01951   0.19000   0.00000  Uiso   1.00
C287   C     0.36406   0.05665   0.16874   0.00000  Uiso   1.00
C288   C     0.36262   0.12696   0.18846   0.00000  Uiso   1.00
C289   C     0.32729   0.24214   0.20686   0.00000  Uiso   1.00
C290   C     0.58843   0.00104   0.24714   0.00000  Uiso   1.00
C291   C     0.61438   0.96952   0.16514   0.00000  Uiso   1.00
C292   C     0.69903   0.97088   0.13070   0.00000  Uiso   1.00
C293   C     0.70910   0.93911   0.05520   0.00000  Uiso   1.00
C294   C     0.54787   0.94180   0.29679   0.00000  Uiso   1.00
C295   C     0.57659   0.91987   0.37305   0.00000  Uiso   1.00
C296   C     0.53067   0.86477   0.40838   0.00000  Uiso   1.00
C297   C     0.51214   0.05147   0.22957   0.00000  Uiso   1.00
C298   C     0.51082   0.12174   0.24933   0.00000  Uiso   1.00
C299   C     0.43480   0.15898   0.22810   0.00000  Uiso   1.00
H300   H     0.39969   0.91732   0.14349   0.00000  Uiso   1.00
H301   H     0.49650   0.88105   0.01951   0.00000  Uiso   1.00
H302   H     0.37408   0.83005   0.26182   0.00000  Uiso   1.00
H303   H     0.30832   0.03190   0.13812   0.00000  Uiso   1.00
H304   H     0.63562   0.85490   0.89952   0.00000  Uiso   1.00
H305   H     0.37747   0.74740   0.41045   0.00000  Uiso   1.00
H306   H     0.23878   0.17302   0.14962   0.00000  Uiso   1.00
H307   H     0.64452   0.02592   0.27795   0.00000  Uiso   1.00
H308   H     0.75477   0.99561   0.16134   0.00000  Uiso   1.00
H309   H     0.63235   0.94462   0.40365   0.00000  Uiso   1.00
H310   H     0.56658   0.14646   0.27995   0.00000  Uiso   1.00
H311   H     0.84524   0.94789   0.01463   0.00000  Uiso   1.00
H312   H     0.58708   0.84038   0.52557   0.00000  Uiso   1.00
H313   H     0.44840   0.26601   0.26473   0.00000  Uiso   1.00
O314   O     0.80855   0.87948   0.87796   0.00000  Uiso   1.00
O315   O     0.46984   0.73844   0.54828   0.00000  Uiso   1.00
O316   O     0.28790   0.29685   0.20607   0.00000  Uiso   1.00
N317   N     0.66982   0.88096   0.94260   0.00000  Uiso   1.00
N318   N     0.42847   0.78044   0.42029   0.00000  Uiso   1.00
N319   N     0.29880   0.17836   0.17645   0.00000  Uiso   1.00
N320   N     0.78262   0.93099   0.00455   0.00000  Uiso   1.00
N321   N     0.54126   0.83047   0.48223   0.00000  Uiso   1.00
N322   N     0.41160   0.22839   0.23840   0.00000  Uiso   1.00
C323   C     0.54568   0.06125   0.75319   0.00000  Uiso   1.00
C324   C     0.45896   0.06590   0.80164   0.00000  Uiso   1.00
C325   C     0.44873   0.09773   0.87705   0.00000  Uiso   1.00
C326   C     0.36396   0.09643   0.91134   0.00000  Uiso   1.00
C327   C     0.24023   0.10855   0.99261   0.00000  Uiso   1.00
C328   C     0.52592   0.09354   0.67017   0.00000  Uiso   1.00
C329   C     0.57201   0.14860   0.63502   0.00000  Uiso   1.00
C330   C     0.54362   0.17056   0.55863   0.00000  Uiso   1.00
C331   C     0.52390   0.22556   0.43575   0.00000  Uiso   1.00
C332   C     0.56145   0.98393   0.73759   0.00000  Uiso   1.00
C333   C     0.63743   0.94683   0.75912   0.00000  Uiso   1.00
C334   C     0.63897   0.87650   0.73947   0.00000  Uiso   1.00
C335   C     0.67441   0.76131   0.72128   0.00000  Uiso   1.00
C336   C     0.41332   0.00233   0.68000   0.00000  Uiso   1.00
C337   C     0.38706   0.03390   0.76189   0.00000  Uiso   1.00
C338   C     0.30229   0.03254   0.79607   0.00000  Uiso   1.00
C339   C     0.29194   0.06436   0.87152   0.00000  Uiso   1.00
C340   C     0.45403   0.06154   0.63041   0.00000  Uiso   1.00
C341   C     0.42557   0.08342   0.55405   0.00000  Uiso   1.00
C342   C     0.47160   0.13850   0.51880   0.00000  Uiso   1.00
C343   C     0.48956   0.95192   0.69784   0.00000  Uiso   1.00
C344   C     0.49098   0.88164   0.67815   0.00000  Uiso   1.00
C345   C     0.56694   0.84444   0.69964   0.00000  Uiso   1.00
H346   H     0.60165   0.08617   0.78413   0.00000  Uiso   1.00
H347   H     0.50438   0.12250   0.90779   0.00000  Uiso   1.00
H348   H     0.62765   0.17336   0.66580   0.00000  Uiso   1.00
H349   H     0.69305   0.97161   0.78988   0.00000  Uiso   1.00
H350   H     0.36483   0.14869   0.02734   0.00000  Uiso   1.00
H351   H     0.62477   0.25591   0.51708   0.00000  Uiso   1.00
H352   H     0.76268   0.83050   0.77872   0.00000  Uiso   1.00
H353   H     0.35735   0.97741   0.64905   0.00000  Uiso   1.00
H354   H     0.24667   0.00777   0.76530   0.00000  Uiso   1.00
H355   H     0.36994   0.05863   0.52330   0.00000  Uiso   1.00
H356   H     0.43534   0.85689   0.64738   0.00000  Uiso   1.00
H357   H     0.15566   0.05558   0.91169   0.00000  Uiso   1.00
H358   H     0.41560   0.16280   0.40142   0.00000  Uiso   1.00
H359   H     0.55351   0.73738   0.66307   0.00000  Uiso   1.00
O360   O     0.19184   0.12409   0.04841   0.00000  Uiso   1.00
O361   O     0.53288   0.26475   0.37896   0.00000  Uiso   1.00
O362   O     0.71381   0.70662   0.72224   0.00000  Uiso   1.00
N363   N     0.33079   0.12260   0.98418   0.00000  Uiso   1.00
N364   N     0.57381   0.22285   0.50712   0.00000  Uiso   1.00
N365   N     0.70276   0.82513   0.75171   0.00000  Uiso   1.00
N366   N     0.21824   0.07249   0.92194   0.00000  Uiso   1.00
N367   N     0.46126   0.17275   0.44489   0.00000  Uiso   1.00
N368   N     0.59021   0.77502   0.68948   0.00000  Uiso   1.00
