data_job_03688
_audit_creation_date              2018-12-19
_audit_creation_method            'Materials Studio'
_symmetry_space_group_name_H-M    'P1'
_symmetry_Int_Tables_number       1
_symmetry_cell_setting            triclinic
loop_
_symmetry_equiv_pos_as_xyz
  x,y,z
_cell_length_a                    12.0782
_cell_length_b                    12.2343
_cell_length_c                    12.8448
_cell_angle_alpha                 61.5901
_cell_angle_beta                  77.2545
_cell_angle_gamma                 65.5156
loop_
_atom_site_label
_atom_site_type_symbol
_atom_site_fract_x
_atom_site_fract_y
_atom_site_fract_z
_atom_site_U_iso_or_equiv
_atom_site_adp_type
_atom_site_occupancy
C1     C     0.92502   0.85984   0.60314   0.00000  Uiso   1.00
C2     C     0.82025   0.87627   0.54243   0.00000  Uiso   1.00
C3     C     0.76421   0.98608   0.44121   0.00000  Uiso   1.00
C4     C     0.66998   0.98192   0.39952   0.00000  Uiso   1.00
C5     C     0.51284   0.02420   0.29652   0.00000  Uiso   1.00
C6     C     0.88150   0.83329   0.73082   0.00000  Uiso   1.00
C7     C     0.87697   0.90697   0.78799   0.00000  Uiso   1.00
C8     C     0.83431   0.86662   0.90489   0.00000  Uiso   1.00
C9     C     0.77235   0.84211   0.09439   0.00000  Uiso   1.00
C10    C     0.02693   0.73108   0.60879   0.00000  Uiso   1.00
C11    C     0.14470   0.71881   0.56340   0.00000  Uiso   1.00
C12    C     0.22449   0.59239   0.57759   0.00000  Uiso   1.00
C13    C     0.38833   0.40920   0.57764   0.00000  Uiso   1.00
C14    C     0.85733   0.65716   0.70908   0.00000  Uiso   1.00
C15    C     0.78348   0.76617   0.59998   0.00000  Uiso   1.00
C16    C     0.68931   0.76184   0.55842   0.00000  Uiso   1.00
C17    C     0.63315   0.87163   0.45716   0.00000  Uiso   1.00
C18    C     0.84473   0.72321   0.78836   0.00000  Uiso   1.00
C19    C     0.80207   0.68273   0.90520   0.00000  Uiso   1.00
C20    C     0.79747   0.75633   0.96253   0.00000  Uiso   1.00
C21    C     0.99016   0.62099   0.66633   0.00000  Uiso   1.00
C22    C     0.06979   0.49457   0.68060   0.00000  Uiso   1.00
C23    C     0.18766   0.48211   0.63524   0.00000  Uiso   1.00
H24    H     0.95365   0.94555   0.55835   0.00000  Uiso   1.00
H25    H     0.79268   0.07127   0.39671   0.00000  Uiso   1.00
H26    H     0.90544   0.99215   0.74344   0.00000  Uiso   1.00
H27    H     0.17311   0.80402   0.51888   0.00000  Uiso   1.00
H28    H     0.59798   0.16212   0.24291   0.00000  Uiso   1.00
H29    H     0.83577   0.99527   0.97402   0.00000  Uiso   1.00
H30    H     0.40022   0.59857   0.50049   0.00000  Uiso   1.00
H31    H     0.82871   0.57145   0.75389   0.00000  Uiso   1.00
H32    H     0.66088   0.67663   0.60297   0.00000  Uiso   1.00
H33    H     0.77364   0.59752   0.94970   0.00000  Uiso   1.00
H34    H     0.04131   0.40940   0.72514   0.00000  Uiso   1.00
H35    H     0.49100   0.84182   0.41031   0.00000  Uiso   1.00
H36    H     0.72879   0.67498   0.14143   0.00000  Uiso   1.00
H37    H     0.29324   0.27827   0.66789   0.00000  Uiso   1.00
O38    O     0.43632   0.07794   0.22383   0.00000  Uiso   1.00
O39    O     0.74831   0.85903   0.18302   0.00000  Uiso   1.00
O40    O     0.48885   0.33856   0.56175   0.00000  Uiso   1.00
N41    N     0.59585   0.07229   0.30300   0.00000  Uiso   1.00
N42    N     0.81815   0.91631   0.98654   0.00000  Uiso   1.00
N43    N     0.34588   0.54542   0.54386   0.00000  Uiso   1.00
N44    N     0.53828   0.89994   0.39308   0.00000  Uiso   1.00
N45    N     0.76059   0.74397   0.07662   0.00000  Uiso   1.00
N46    N     0.28831   0.37307   0.63394   0.00000  Uiso   1.00
C47    C     0.07498   0.14016   0.39686   0.00000  Uiso   1.00
C48    C     0.17975   0.12373   0.45757   0.00000  Uiso   1.00
C49    C     0.23579   0.01392   0.55879   0.00000  Uiso   1.00
C50    C     0.33002   0.01808   0.60048   0.00000  Uiso   1.00
C51    C     0.48716   0.97580   0.70348   0.00000  Uiso   1.00
C52    C     0.11850   0.16671   0.26918   0.00000  Uiso   1.00
C53    C     0.12303   0.09303   0.21201   0.00000  Uiso   1.00
C54    C     0.16569   0.13338   0.09511   0.00000  Uiso   1.00
C55    C     0.22765   0.15789   0.90561   0.00000  Uiso   1.00
C56    C     0.97307   0.26892   0.39121   0.00000  Uiso   1.00
C57    C     0.85530   0.28119   0.43660   0.00000  Uiso   1.00
C58    C     0.77551   0.40761   0.42241   0.00000  Uiso   1.00
C59    C     0.61167   0.59080   0.42236   0.00000  Uiso   1.00
C60    C     0.14267   0.34284   0.29092   0.00000  Uiso   1.00
C61    C     0.21652   0.23383   0.40002   0.00000  Uiso   1.00
C62    C     0.31069   0.23816   0.44158   0.00000  Uiso   1.00
C63    C     0.36685   0.12837   0.54284   0.00000  Uiso   1.00
C64    C     0.15527   0.27679   0.21164   0.00000  Uiso   1.00
C65    C     0.19793   0.31727   0.09480   0.00000  Uiso   1.00
C66    C     0.20253   0.24367   0.03747   0.00000  Uiso   1.00
C67    C     0.00984   0.37901   0.33367   0.00000  Uiso   1.00
C68    C     0.93021   0.50543   0.31940   0.00000  Uiso   1.00
C69    C     0.81234   0.51789   0.36476   0.00000  Uiso   1.00
H70    H     0.04635   0.05445   0.44165   0.00000  Uiso   1.00
H71    H     0.20732   0.92873   0.60329   0.00000  Uiso   1.00
H72    H     0.09456   0.00785   0.25656   0.00000  Uiso   1.00
H73    H     0.82689   0.19598   0.48112   0.00000  Uiso   1.00
H74    H     0.40202   0.83788   0.75709   0.00000  Uiso   1.00
H75    H     0.16423   0.00473   0.02598   0.00000  Uiso   1.00
H76    H     0.59978   0.40143   0.49951   0.00000  Uiso   1.00
H77    H     0.17129   0.42855   0.24611   0.00000  Uiso   1.00
H78    H     0.33912   0.32337   0.39703   0.00000  Uiso   1.00
H79    H     0.22636   0.40248   0.05030   0.00000  Uiso   1.00
H80    H     0.95869   0.59060   0.27486   0.00000  Uiso   1.00
H81    H     0.50900   0.15818   0.58969   0.00000  Uiso   1.00
H82    H     0.27121   0.32502   0.85857   0.00000  Uiso   1.00
H83    H     0.70676   0.72173   0.33211   0.00000  Uiso   1.00
O84    O     0.56368   0.92206   0.77617   0.00000  Uiso   1.00
O85    O     0.25169   0.14097   0.81698   0.00000  Uiso   1.00
O86    O     0.51115   0.66144   0.43825   0.00000  Uiso   1.00
N87    N     0.40415   0.92771   0.69700   0.00000  Uiso   1.00
N88    N     0.18185   0.08369   0.01346   0.00000  Uiso   1.00
N89    N     0.65412   0.45458   0.45614   0.00000  Uiso   1.00
N90    N     0.46172   0.10006   0.60692   0.00000  Uiso   1.00
N91    N     0.23941   0.25603   0.92338   0.00000  Uiso   1.00
N92    N     0.71169   0.62693   0.36606   0.00000  Uiso   1.00
