data_job_02787
_audit_creation_date              2018-12-19
_audit_creation_method            'Materials Studio'
_symmetry_space_group_name_H-M    'P1'
_symmetry_Int_Tables_number       1
_symmetry_cell_setting            triclinic
loop_
_symmetry_equiv_pos_as_xyz
  x,y,z
_cell_length_a                    9.4719
_cell_length_b                    9.6040
_cell_length_c                    33.7815
_cell_angle_alpha                 90.0000
_cell_angle_beta                  90.0000
_cell_angle_gamma                 90.0000
loop_
_atom_site_label
_atom_site_type_symbol
_atom_site_fract_x
_atom_site_fract_y
_atom_site_fract_z
_atom_site_U_iso_or_equiv
_atom_site_adp_type
_atom_site_occupancy
C1     C     0.96693   0.58012   0.61656   0.00000  Uiso   1.00
C2     C     0.86551   0.68643   0.59879   0.00000  Uiso   1.00
C3     C     0.88127   0.83001   0.60019   0.00000  Uiso   1.00
C4     C     0.77693   0.90935   0.58218   0.00000  Uiso   1.00
C5     C     0.63704   0.08387   0.55746   0.00000  Uiso   1.00
C6     C     0.87896   0.49103   0.64462   0.00000  Uiso   1.00
C7     C     0.90604   0.47031   0.68457   0.00000  Uiso   1.00
C8     C     0.81304   0.38514   0.70513   0.00000  Uiso   1.00
C9     C     0.69409   0.25623   0.75157   0.00000  Uiso   1.00
C10    C     0.01013   0.48450   0.58262   0.00000  Uiso   1.00
C11    C     0.14750   0.45825   0.57043   0.00000  Uiso   1.00
C12    C     0.16493   0.36755   0.53880   0.00000  Uiso   1.00
C13    C     0.24965   0.22849   0.48896   0.00000  Uiso   1.00
C14    C     0.75362   0.46571   0.58206   0.00000  Uiso   1.00
C15    C     0.74965   0.62428   0.58005   0.00000  Uiso   1.00
C16    C     0.64527   0.70342   0.56203   0.00000  Uiso   1.00
C17    C     0.66087   0.84709   0.56340   0.00000  Uiso   1.00
C18    C     0.76311   0.42889   0.62589   0.00000  Uiso   1.00
C19    C     0.67005   0.34372   0.64640   0.00000  Uiso   1.00
C20    C     0.69697   0.32288   0.68636   0.00000  Uiso   1.00
C21    C     0.89427   0.42235   0.56388   0.00000  Uiso   1.00
C22    C     0.91150   0.33167   0.53226   0.00000  Uiso   1.00
C23    C     0.04887   0.30529   0.52003   0.00000  Uiso   1.00
H24    H     0.05713   0.62850   0.63115   0.00000  Uiso   1.00
H25    H     0.97094   0.87806   0.61470   0.00000  Uiso   1.00
H26    H     0.99571   0.51840   0.69906   0.00000  Uiso   1.00
H27    H     0.23713   0.50636   0.58494   0.00000  Uiso   1.00
H28    H     0.82426   0.12734   0.58822   0.00000  Uiso   1.00
H29    H     0.87653   0.36895   0.76609   0.00000  Uiso   1.00
H30    H     0.38561   0.34354   0.52545   0.00000  Uiso   1.00
H31    H     0.66342   0.41732   0.56747   0.00000  Uiso   1.00
H32    H     0.55562   0.65530   0.54753   0.00000  Uiso   1.00
H33    H     0.58040   0.29564   0.63189   0.00000  Uiso   1.00
H34    H     0.82182   0.28360   0.51777   0.00000  Uiso   1.00
H35    H     0.48717   0.94654   0.53370   0.00000  Uiso   1.00
H36    H     0.53945   0.18814   0.71157   0.00000  Uiso   1.00
H37    H     0.04852   0.16274   0.47093   0.00000  Uiso   1.00
O38    O     0.59188   0.19730   0.54900   0.00000  Uiso   1.00
O39    O     0.66048   0.20230   0.78236   0.00000  Uiso   1.00
O40    O     0.32838   0.16897   0.46664   0.00000  Uiso   1.00
N41    N     0.75973   0.05213   0.57812   0.00000  Uiso   1.00
N42    N     0.80859   0.34310   0.74442   0.00000  Uiso   1.00
N43    N     0.28454   0.31931   0.51944   0.00000  Uiso   1.00
N44    N     0.57835   0.95484   0.54878   0.00000  Uiso   1.00
N45    N     0.62721   0.24581   0.71508   0.00000  Uiso   1.00
N46    N     0.10316   0.22202   0.49011   0.00000  Uiso   1.00
C47    C     0.03307   0.41988   0.11656   0.00000  Uiso   1.00
C48    C     0.13449   0.31357   0.09879   0.00000  Uiso   1.00
C49    C     0.11873   0.16999   0.10019   0.00000  Uiso   1.00
C50    C     0.22307   0.09065   0.08218   0.00000  Uiso   1.00
C51    C     0.36296   0.91613   0.05746   0.00000  Uiso   1.00
C52    C     0.12104   0.50897   0.14462   0.00000  Uiso   1.00
C53    C     0.09396   0.52969   0.18457   0.00000  Uiso   1.00
C54    C     0.18696   0.61486   0.20513   0.00000  Uiso   1.00
C55    C     0.30591   0.74377   0.25157   0.00000  Uiso   1.00
C56    C     0.98987   0.51550   0.08262   0.00000  Uiso   1.00
C57    C     0.85250   0.54175   0.07043   0.00000  Uiso   1.00
C58    C     0.83507   0.63245   0.03880   0.00000  Uiso   1.00
C59    C     0.75035   0.77151   0.98896   0.00000  Uiso   1.00
C60    C     0.24638   0.53429   0.08206   0.00000  Uiso   1.00
C61    C     0.25035   0.37572   0.08005   0.00000  Uiso   1.00
C62    C     0.35473   0.29658   0.06203   0.00000  Uiso   1.00
C63    C     0.33913   0.15291   0.06340   0.00000  Uiso   1.00
C64    C     0.23689   0.57111   0.12589   0.00000  Uiso   1.00
C65    C     0.32995   0.65628   0.14640   0.00000  Uiso   1.00
C66    C     0.30303   0.67712   0.18636   0.00000  Uiso   1.00
C67    C     0.10573   0.57765   0.06388   0.00000  Uiso   1.00
C68    C     0.08850   0.66833   0.03226   0.00000  Uiso   1.00
C69    C     0.95113   0.69471   0.02003   0.00000  Uiso   1.00
H70    H     0.94287   0.37150   0.13115   0.00000  Uiso   1.00
H71    H     0.02906   0.12194   0.11470   0.00000  Uiso   1.00
H72    H     0.00429   0.48160   0.19906   0.00000  Uiso   1.00
H73    H     0.76287   0.49364   0.08494   0.00000  Uiso   1.00
H74    H     0.17574   0.87266   0.08822   0.00000  Uiso   1.00
H75    H     0.12347   0.63105   0.26609   0.00000  Uiso   1.00
H76    H     0.61439   0.65646   0.02545   0.00000  Uiso   1.00
H77    H     0.33658   0.58268   0.06747   0.00000  Uiso   1.00
H78    H     0.44438   0.34470   0.04753   0.00000  Uiso   1.00
H79    H     0.41960   0.70436   0.13189   0.00000  Uiso   1.00
H80    H     0.17818   0.71640   0.01777   0.00000  Uiso   1.00
H81    H     0.51283   0.05346   0.03370   0.00000  Uiso   1.00
H82    H     0.46055   0.81186   0.21157   0.00000  Uiso   1.00
H83    H     0.95148   0.83726   0.97093   0.00000  Uiso   1.00
O84    O     0.40812   0.80270   0.04900   0.00000  Uiso   1.00
O85    O     0.33952   0.79770   0.28236   0.00000  Uiso   1.00
O86    O     0.67162   0.83103   0.96664   0.00000  Uiso   1.00
N87    N     0.24027   0.94787   0.07812   0.00000  Uiso   1.00
N88    N     0.19141   0.65690   0.24442   0.00000  Uiso   1.00
N89    N     0.71546   0.68069   0.01944   0.00000  Uiso   1.00
N90    N     0.42165   0.04516   0.04878   0.00000  Uiso   1.00
N91    N     0.37279   0.75419   0.21508   0.00000  Uiso   1.00
N92    N     0.89684   0.77798   0.99011   0.00000  Uiso   1.00
C93    C     0.03307   0.58012   0.88344   0.00000  Uiso   1.00
C94    C     0.13449   0.68643   0.90121   0.00000  Uiso   1.00
C95    C     0.11873   0.83001   0.89981   0.00000  Uiso   1.00
C96    C     0.22307   0.90935   0.91782   0.00000  Uiso   1.00
C97    C     0.36296   0.08387   0.94254   0.00000  Uiso   1.00
C98    C     0.12104   0.49103   0.85538   0.00000  Uiso   1.00
C99    C     0.09396   0.47031   0.81543   0.00000  Uiso   1.00
C100   C     0.18696   0.38514   0.79487   0.00000  Uiso   1.00
C101   C     0.30591   0.25623   0.74843   0.00000  Uiso   1.00
C102   C     0.98987   0.48450   0.91738   0.00000  Uiso   1.00
C103   C     0.85250   0.45825   0.92957   0.00000  Uiso   1.00
C104   C     0.83507   0.36755   0.96120   0.00000  Uiso   1.00
C105   C     0.75035   0.22849   0.01104   0.00000  Uiso   1.00
C106   C     0.24638   0.46571   0.91794   0.00000  Uiso   1.00
C107   C     0.25035   0.62428   0.91995   0.00000  Uiso   1.00
C108   C     0.35473   0.70342   0.93797   0.00000  Uiso   1.00
C109   C     0.33913   0.84709   0.93660   0.00000  Uiso   1.00
C110   C     0.23689   0.42889   0.87411   0.00000  Uiso   1.00
C111   C     0.32995   0.34372   0.85360   0.00000  Uiso   1.00
C112   C     0.30303   0.32288   0.81364   0.00000  Uiso   1.00
C113   C     0.10573   0.42235   0.93612   0.00000  Uiso   1.00
C114   C     0.08850   0.33167   0.96774   0.00000  Uiso   1.00
C115   C     0.95113   0.30529   0.97997   0.00000  Uiso   1.00
H116   H     0.94287   0.62850   0.86885   0.00000  Uiso   1.00
H117   H     0.02906   0.87806   0.88530   0.00000  Uiso   1.00
H118   H     0.00429   0.51840   0.80094   0.00000  Uiso   1.00
H119   H     0.76287   0.50636   0.91506   0.00000  Uiso   1.00
H120   H     0.17574   0.12734   0.91178   0.00000  Uiso   1.00
H121   H     0.12347   0.36895   0.73391   0.00000  Uiso   1.00
H122   H     0.61439   0.34354   0.97455   0.00000  Uiso   1.00
H123   H     0.33658   0.41732   0.93253   0.00000  Uiso   1.00
H124   H     0.44438   0.65530   0.95247   0.00000  Uiso   1.00
H125   H     0.41960   0.29564   0.86811   0.00000  Uiso   1.00
H126   H     0.17818   0.28360   0.98223   0.00000  Uiso   1.00
H127   H     0.51283   0.94654   0.96630   0.00000  Uiso   1.00
H128   H     0.46055   0.18814   0.78843   0.00000  Uiso   1.00
H129   H     0.95148   0.16274   0.02907   0.00000  Uiso   1.00
O130   O     0.40812   0.19730   0.95100   0.00000  Uiso   1.00
O131   O     0.33952   0.20230   0.71764   0.00000  Uiso   1.00
O132   O     0.67162   0.16897   0.03336   0.00000  Uiso   1.00
N133   N     0.24027   0.05213   0.92188   0.00000  Uiso   1.00
N134   N     0.19141   0.34310   0.75558   0.00000  Uiso   1.00
N135   N     0.71546   0.31931   0.98056   0.00000  Uiso   1.00
N136   N     0.42165   0.95484   0.95122   0.00000  Uiso   1.00
N137   N     0.37279   0.24581   0.78492   0.00000  Uiso   1.00
N138   N     0.89684   0.22202   0.00989   0.00000  Uiso   1.00
C139   C     0.96693   0.41988   0.38344   0.00000  Uiso   1.00
C140   C     0.86551   0.31357   0.40121   0.00000  Uiso   1.00
C141   C     0.88127   0.16999   0.39981   0.00000  Uiso   1.00
C142   C     0.77693   0.09065   0.41782   0.00000  Uiso   1.00
C143   C     0.63704   0.91613   0.44254   0.00000  Uiso   1.00
C144   C     0.87896   0.50897   0.35538   0.00000  Uiso   1.00
C145   C     0.90604   0.52969   0.31543   0.00000  Uiso   1.00
C146   C     0.81304   0.61486   0.29487   0.00000  Uiso   1.00
C147   C     0.69409   0.74377   0.24843   0.00000  Uiso   1.00
C148   C     0.01013   0.51550   0.41738   0.00000  Uiso   1.00
C149   C     0.14750   0.54175   0.42957   0.00000  Uiso   1.00
C150   C     0.16493   0.63245   0.46120   0.00000  Uiso   1.00
C151   C     0.24965   0.77151   0.51104   0.00000  Uiso   1.00
C152   C     0.75362   0.53429   0.41794   0.00000  Uiso   1.00
C153   C     0.74965   0.37572   0.41995   0.00000  Uiso   1.00
C154   C     0.64527   0.29658   0.43797   0.00000  Uiso   1.00
C155   C     0.66087   0.15291   0.43660   0.00000  Uiso   1.00
C156   C     0.76311   0.57111   0.37411   0.00000  Uiso   1.00
C157   C     0.67005   0.65628   0.35360   0.00000  Uiso   1.00
C158   C     0.69697   0.67712   0.31364   0.00000  Uiso   1.00
C159   C     0.89427   0.57765   0.43612   0.00000  Uiso   1.00
C160   C     0.91150   0.66833   0.46774   0.00000  Uiso   1.00
C161   C     0.04887   0.69471   0.47997   0.00000  Uiso   1.00
H162   H     0.05713   0.37150   0.36885   0.00000  Uiso   1.00
H163   H     0.97094   0.12194   0.38530   0.00000  Uiso   1.00
H164   H     0.99571   0.48160   0.30094   0.00000  Uiso   1.00
H165   H     0.23713   0.49364   0.41506   0.00000  Uiso   1.00
H166   H     0.82426   0.87266   0.41178   0.00000  Uiso   1.00
H167   H     0.87653   0.63105   0.23391   0.00000  Uiso   1.00
H168   H     0.38561   0.65646   0.47455   0.00000  Uiso   1.00
H169   H     0.66342   0.58268   0.43253   0.00000  Uiso   1.00
H170   H     0.55562   0.34470   0.45247   0.00000  Uiso   1.00
H171   H     0.58040   0.70436   0.36811   0.00000  Uiso   1.00
H172   H     0.82182   0.71640   0.48223   0.00000  Uiso   1.00
H173   H     0.48717   0.05346   0.46630   0.00000  Uiso   1.00
H174   H     0.53945   0.81186   0.28843   0.00000  Uiso   1.00
H175   H     0.04852   0.83726   0.52907   0.00000  Uiso   1.00
O176   O     0.59188   0.80270   0.45100   0.00000  Uiso   1.00
O177   O     0.66048   0.79770   0.21764   0.00000  Uiso   1.00
O178   O     0.32838   0.83103   0.53336   0.00000  Uiso   1.00
N179   N     0.75973   0.94787   0.42188   0.00000  Uiso   1.00
N180   N     0.80859   0.65690   0.25558   0.00000  Uiso   1.00
N181   N     0.28454   0.68069   0.48056   0.00000  Uiso   1.00
N182   N     0.57835   0.04516   0.45122   0.00000  Uiso   1.00
N183   N     0.62721   0.75419   0.28492   0.00000  Uiso   1.00
N184   N     0.10316   0.77798   0.50989   0.00000  Uiso   1.00
