data_job_03875
_audit_creation_date              2018-12-19
_audit_creation_method            'Materials Studio'
_symmetry_space_group_name_H-M    'P1'
_symmetry_Int_Tables_number       1
_symmetry_cell_setting            triclinic
loop_
_symmetry_equiv_pos_as_xyz
  x,y,z
_cell_length_a                    16.6053
_cell_length_b                    14.8313
_cell_length_c                    22.9781
_cell_angle_alpha                 90.0000
_cell_angle_beta                  90.0000
_cell_angle_gamma                 90.0000
loop_
_atom_site_label
_atom_site_type_symbol
_atom_site_fract_x
_atom_site_fract_y
_atom_site_fract_z
_atom_site_U_iso_or_equiv
_atom_site_adp_type
_atom_site_occupancy
C1     C     0.10372   0.82929   0.51373   0.00000  Uiso   1.00
C2     C     0.16388   0.79283   0.55800   0.00000  Uiso   1.00
C3     C     0.17179   0.82172   0.61516   0.00000  Uiso   1.00
C4     C     0.23045   0.77988   0.64870   0.00000  Uiso   1.00
C5     C     0.31645   0.73369   0.72092   0.00000  Uiso   1.00
C6     C     0.15346   0.86081   0.46178   0.00000  Uiso   1.00
C7     C     0.15259   0.94684   0.43803   0.00000  Uiso   1.00
C8     C     0.20246   0.96222   0.39055   0.00000  Uiso   1.00
C9     C     0.27222   0.02154   0.31335   0.00000  Uiso   1.00
C10    C     0.05558   0.74811   0.49255   0.00000  Uiso   1.00
C11    C     0.97242   0.73939   0.49466   0.00000  Uiso   1.00
C12    C     0.93989   0.65989   0.47309   0.00000  Uiso   1.00
C13    C     0.85769   0.54423   0.44368   0.00000  Uiso   1.00
C14    C     0.19383   0.70362   0.47164   0.00000  Uiso   1.00
C15    C     0.21282   0.72458   0.53514   0.00000  Uiso   1.00
C16    C     0.27148   0.68268   0.56860   0.00000  Uiso   1.00
C17    C     0.27948   0.71149   0.62580   0.00000  Uiso   1.00
C18    C     0.20239   0.79255   0.43892   0.00000  Uiso   1.00
C19    C     0.25227   0.80780   0.39146   0.00000  Uiso   1.00
C20    C     0.25149   0.89384   0.36765   0.00000  Uiso   1.00
C21    C     0.10452   0.67985   0.46969   0.00000  Uiso   1.00
C22    C     0.07211   0.60035   0.44811   0.00000  Uiso   1.00
C23    C     0.98892   0.59151   0.45019   0.00000  Uiso   1.00
H24    H     0.06562   0.88243   0.53152   0.00000  Uiso   1.00
H25    H     0.13391   0.87455   0.63284   0.00000  Uiso   1.00
H26    H     0.11470   0.99965   0.45572   0.00000  Uiso   1.00
H27    H     0.93457   0.79223   0.51236   0.00000  Uiso   1.00
H28    H     0.23123   0.83573   0.73508   0.00000  Uiso   1.00
H29    H     0.19070   0.09950   0.36161   0.00000  Uiso   1.00
H30    H     0.81085   0.66212   0.48104   0.00000  Uiso   1.00
H31    H     0.23193   0.65048   0.45384   0.00000  Uiso   1.00
H32    H     0.30935   0.62986   0.55090   0.00000  Uiso   1.00
H33    H     0.29014   0.75496   0.37378   0.00000  Uiso   1.00
H34    H     0.11000   0.54754   0.43042   0.00000  Uiso   1.00
H35    H     0.37362   0.63713   0.66857   0.00000  Uiso   1.00
H36    H     0.33309   0.90090   0.29511   0.00000  Uiso   1.00
H37    H     0.95324   0.46352   0.41453   0.00000  Uiso   1.00
O38    O     0.35037   0.72708   0.76707   0.00000  Uiso   1.00
O39    O     0.29718   0.07313   0.27709   0.00000  Uiso   1.00
O40    O     0.79883   0.49929   0.43378   0.00000  Uiso   1.00
N41    N     0.25410   0.79181   0.70611   0.00000  Uiso   1.00
N42    N     0.21622   0.03842   0.35695   0.00000  Uiso   1.00
N43    N     0.86109   0.62951   0.46858   0.00000  Uiso   1.00
N44    N     0.33072   0.68494   0.67033   0.00000  Uiso   1.00
N45    N     0.29284   0.93156   0.32116   0.00000  Uiso   1.00
N46    N     0.93771   0.52265   0.43280   0.00000  Uiso   1.00
C47    C     0.39628   0.17071   0.01373   0.00000  Uiso   1.00
C48    C     0.33612   0.20717   0.05800   0.00000  Uiso   1.00
C49    C     0.32821   0.17828   0.11516   0.00000  Uiso   1.00
C50    C     0.26955   0.22012   0.14870   0.00000  Uiso   1.00
C51    C     0.18355   0.26631   0.22092   0.00000  Uiso   1.00
C52    C     0.34654   0.13919   0.96178   0.00000  Uiso   1.00
C53    C     0.34741   0.05316   0.93803   0.00000  Uiso   1.00
C54    C     0.29754   0.03778   0.89055   0.00000  Uiso   1.00
C55    C     0.22778   0.97846   0.81335   0.00000  Uiso   1.00
C56    C     0.44442   0.25189   0.99255   0.00000  Uiso   1.00
C57    C     0.52758   0.26061   0.99466   0.00000  Uiso   1.00
C58    C     0.56011   0.34011   0.97309   0.00000  Uiso   1.00
C59    C     0.64231   0.45577   0.94368   0.00000  Uiso   1.00
C60    C     0.30617   0.29638   0.97164   0.00000  Uiso   1.00
C61    C     0.28718   0.27542   0.03514   0.00000  Uiso   1.00
C62    C     0.22852   0.31732   0.06860   0.00000  Uiso   1.00
C63    C     0.22052   0.28851   0.12580   0.00000  Uiso   1.00
C64    C     0.29761   0.20745   0.93892   0.00000  Uiso   1.00
C65    C     0.24773   0.19220   0.89146   0.00000  Uiso   1.00
C66    C     0.24851   0.10616   0.86765   0.00000  Uiso   1.00
C67    C     0.39548   0.32015   0.96969   0.00000  Uiso   1.00
C68    C     0.42789   0.39965   0.94811   0.00000  Uiso   1.00
C69    C     0.51108   0.40849   0.95019   0.00000  Uiso   1.00
H70    H     0.43438   0.11757   0.03152   0.00000  Uiso   1.00
H71    H     0.36609   0.12545   0.13284   0.00000  Uiso   1.00
H72    H     0.38530   0.00035   0.95572   0.00000  Uiso   1.00
H73    H     0.56543   0.20777   0.01236   0.00000  Uiso   1.00
H74    H     0.26877   0.16427   0.23508   0.00000  Uiso   1.00
H75    H     0.30930   0.90050   0.86161   0.00000  Uiso   1.00
H76    H     0.68915   0.33788   0.98104   0.00000  Uiso   1.00
H77    H     0.26807   0.34952   0.95384   0.00000  Uiso   1.00
H78    H     0.19065   0.37014   0.05090   0.00000  Uiso   1.00
H79    H     0.20986   0.24504   0.87378   0.00000  Uiso   1.00
H80    H     0.39000   0.45246   0.93042   0.00000  Uiso   1.00
H81    H     0.12638   0.36287   0.16857   0.00000  Uiso   1.00
H82    H     0.16691   0.09910   0.79511   0.00000  Uiso   1.00
H83    H     0.54676   0.53648   0.91453   0.00000  Uiso   1.00
O84    O     0.14963   0.27292   0.26707   0.00000  Uiso   1.00
O85    O     0.20282   0.92687   0.77709   0.00000  Uiso   1.00
O86    O     0.70117   0.50071   0.93378   0.00000  Uiso   1.00
N87    N     0.24590   0.20819   0.20611   0.00000  Uiso   1.00
N88    N     0.28378   0.96158   0.85695   0.00000  Uiso   1.00
N89    N     0.63891   0.37049   0.96858   0.00000  Uiso   1.00
N90    N     0.16928   0.31506   0.17033   0.00000  Uiso   1.00
N91    N     0.20716   0.06844   0.82116   0.00000  Uiso   1.00
N92    N     0.56229   0.47735   0.93280   0.00000  Uiso   1.00
C93    C     0.89628   0.32929   0.98627   0.00000  Uiso   1.00
C94    C     0.83612   0.29283   0.94200   0.00000  Uiso   1.00
C95    C     0.82821   0.32172   0.88484   0.00000  Uiso   1.00
C96    C     0.76955   0.27988   0.85130   0.00000  Uiso   1.00
C97    C     0.68355   0.23369   0.77908   0.00000  Uiso   1.00
C98    C     0.84654   0.36081   0.03822   0.00000  Uiso   1.00
C99    C     0.84741   0.44684   0.06197   0.00000  Uiso   1.00
C100   C     0.79754   0.46222   0.10945   0.00000  Uiso   1.00
C101   C     0.72778   0.52154   0.18665   0.00000  Uiso   1.00
C102   C     0.94442   0.24811   0.00745   0.00000  Uiso   1.00
C103   C     0.02758   0.23939   0.00534   0.00000  Uiso   1.00
C104   C     0.06011   0.15989   0.02691   0.00000  Uiso   1.00
C105   C     0.14231   0.04423   0.05632   0.00000  Uiso   1.00
C106   C     0.80617   0.20362   0.02836   0.00000  Uiso   1.00
C107   C     0.78718   0.22458   0.96486   0.00000  Uiso   1.00
C108   C     0.72852   0.18268   0.93140   0.00000  Uiso   1.00
C109   C     0.72052   0.21149   0.87420   0.00000  Uiso   1.00
C110   C     0.79761   0.29255   0.06108   0.00000  Uiso   1.00
C111   C     0.74773   0.30780   0.10854   0.00000  Uiso   1.00
C112   C     0.74851   0.39384   0.13235   0.00000  Uiso   1.00
C113   C     0.89548   0.17985   0.03031   0.00000  Uiso   1.00
C114   C     0.92789   0.10035   0.05189   0.00000  Uiso   1.00
C115   C     0.01108   0.09151   0.04981   0.00000  Uiso   1.00
H116   H     0.93438   0.38243   0.96848   0.00000  Uiso   1.00
H117   H     0.86609   0.37455   0.86716   0.00000  Uiso   1.00
H118   H     0.88530   0.49965   0.04428   0.00000  Uiso   1.00
H119   H     0.06543   0.29223   0.98764   0.00000  Uiso   1.00
H120   H     0.76877   0.33573   0.76492   0.00000  Uiso   1.00
H121   H     0.80930   0.59950   0.13839   0.00000  Uiso   1.00
H122   H     0.18915   0.16212   0.01896   0.00000  Uiso   1.00
H123   H     0.76807   0.15048   0.04616   0.00000  Uiso   1.00
H124   H     0.69065   0.12986   0.94910   0.00000  Uiso   1.00
H125   H     0.70986   0.25496   0.12622   0.00000  Uiso   1.00
H126   H     0.89000   0.04754   0.06958   0.00000  Uiso   1.00
H127   H     0.62638   0.13713   0.83143   0.00000  Uiso   1.00
H128   H     0.66691   0.40090   0.20489   0.00000  Uiso   1.00
H129   H     0.04676   0.96352   0.08547   0.00000  Uiso   1.00
O130   O     0.64963   0.22708   0.73293   0.00000  Uiso   1.00
O131   O     0.70282   0.57313   0.22291   0.00000  Uiso   1.00
O132   O     0.20117   0.99929   0.06622   0.00000  Uiso   1.00
N133   N     0.74590   0.29181   0.79389   0.00000  Uiso   1.00
N134   N     0.78378   0.53842   0.14305   0.00000  Uiso   1.00
N135   N     0.13891   0.12951   0.03142   0.00000  Uiso   1.00
N136   N     0.66928   0.18494   0.82967   0.00000  Uiso   1.00
N137   N     0.70716   0.43156   0.17884   0.00000  Uiso   1.00
N138   N     0.06229   0.02265   0.06720   0.00000  Uiso   1.00
C139   C     0.60372   0.67071   0.48627   0.00000  Uiso   1.00
C140   C     0.66388   0.70717   0.44200   0.00000  Uiso   1.00
C141   C     0.67179   0.67828   0.38484   0.00000  Uiso   1.00
C142   C     0.73045   0.72012   0.35130   0.00000  Uiso   1.00
C143   C     0.81645   0.76631   0.27908   0.00000  Uiso   1.00
C144   C     0.65346   0.63919   0.53822   0.00000  Uiso   1.00
C145   C     0.65259   0.55316   0.56197   0.00000  Uiso   1.00
C146   C     0.70246   0.53778   0.60945   0.00000  Uiso   1.00
C147   C     0.77222   0.47846   0.68665   0.00000  Uiso   1.00
C148   C     0.55558   0.75189   0.50745   0.00000  Uiso   1.00
C149   C     0.47242   0.76061   0.50534   0.00000  Uiso   1.00
C150   C     0.43989   0.84011   0.52691   0.00000  Uiso   1.00
C151   C     0.35769   0.95577   0.55632   0.00000  Uiso   1.00
C152   C     0.69383   0.79638   0.52836   0.00000  Uiso   1.00
C153   C     0.71282   0.77542   0.46486   0.00000  Uiso   1.00
C154   C     0.77148   0.81732   0.43140   0.00000  Uiso   1.00
C155   C     0.77948   0.78851   0.37420   0.00000  Uiso   1.00
C156   C     0.70239   0.70745   0.56108   0.00000  Uiso   1.00
C157   C     0.75227   0.69220   0.60854   0.00000  Uiso   1.00
C158   C     0.75149   0.60616   0.63235   0.00000  Uiso   1.00
C159   C     0.60452   0.82015   0.53031   0.00000  Uiso   1.00
C160   C     0.57211   0.89965   0.55189   0.00000  Uiso   1.00
C161   C     0.48892   0.90849   0.54981   0.00000  Uiso   1.00
H162   H     0.56562   0.61757   0.46848   0.00000  Uiso   1.00
H163   H     0.63391   0.62545   0.36716   0.00000  Uiso   1.00
H164   H     0.61470   0.50035   0.54428   0.00000  Uiso   1.00
H165   H     0.43457   0.70777   0.48764   0.00000  Uiso   1.00
H166   H     0.73123   0.66427   0.26492   0.00000  Uiso   1.00
H167   H     0.69070   0.40050   0.63839   0.00000  Uiso   1.00
H168   H     0.31085   0.83788   0.51896   0.00000  Uiso   1.00
H169   H     0.73193   0.84952   0.54616   0.00000  Uiso   1.00
H170   H     0.80935   0.87014   0.44910   0.00000  Uiso   1.00
H171   H     0.79014   0.74504   0.62622   0.00000  Uiso   1.00
H172   H     0.61000   0.95246   0.56958   0.00000  Uiso   1.00
H173   H     0.87362   0.86287   0.33143   0.00000  Uiso   1.00
H174   H     0.83309   0.59910   0.70489   0.00000  Uiso   1.00
H175   H     0.45324   0.03648   0.58547   0.00000  Uiso   1.00
O176   O     0.85037   0.77292   0.23293   0.00000  Uiso   1.00
O177   O     0.79718   0.42687   0.72291   0.00000  Uiso   1.00
O178   O     0.29883   0.00071   0.56622   0.00000  Uiso   1.00
N179   N     0.75410   0.70819   0.29389   0.00000  Uiso   1.00
N180   N     0.71622   0.46158   0.64305   0.00000  Uiso   1.00
N181   N     0.36109   0.87049   0.53142   0.00000  Uiso   1.00
N182   N     0.83072   0.81506   0.32967   0.00000  Uiso   1.00
N183   N     0.79284   0.56844   0.67884   0.00000  Uiso   1.00
N184   N     0.43771   0.97735   0.56720   0.00000  Uiso   1.00
C185   C     0.89628   0.17071   0.48627   0.00000  Uiso   1.00
C186   C     0.83612   0.20717   0.44200   0.00000  Uiso   1.00
C187   C     0.82821   0.17828   0.38484   0.00000  Uiso   1.00
C188   C     0.76955   0.22012   0.35130   0.00000  Uiso   1.00
C189   C     0.68355   0.26631   0.27908   0.00000  Uiso   1.00
C190   C     0.84654   0.13919   0.53822   0.00000  Uiso   1.00
C191   C     0.84741   0.05316   0.56197   0.00000  Uiso   1.00
C192   C     0.79754   0.03778   0.60945   0.00000  Uiso   1.00
C193   C     0.72778   0.97846   0.68665   0.00000  Uiso   1.00
C194   C     0.94442   0.25189   0.50745   0.00000  Uiso   1.00
C195   C     0.02758   0.26061   0.50534   0.00000  Uiso   1.00
C196   C     0.06011   0.34011   0.52691   0.00000  Uiso   1.00
C197   C     0.14231   0.45577   0.55632   0.00000  Uiso   1.00
C198   C     0.80617   0.29638   0.52836   0.00000  Uiso   1.00
C199   C     0.78718   0.27542   0.46486   0.00000  Uiso   1.00
C200   C     0.72852   0.31732   0.43140   0.00000  Uiso   1.00
C201   C     0.72052   0.28851   0.37420   0.00000  Uiso   1.00
C202   C     0.79761   0.20745   0.56108   0.00000  Uiso   1.00
C203   C     0.74773   0.19220   0.60854   0.00000  Uiso   1.00
C204   C     0.74851   0.10616   0.63235   0.00000  Uiso   1.00
C205   C     0.89548   0.32015   0.53031   0.00000  Uiso   1.00
C206   C     0.92789   0.39965   0.55189   0.00000  Uiso   1.00
C207   C     0.01108   0.40849   0.54981   0.00000  Uiso   1.00
H208   H     0.93438   0.11757   0.46848   0.00000  Uiso   1.00
H209   H     0.86609   0.12545   0.36716   0.00000  Uiso   1.00
H210   H     0.88530   0.00035   0.54428   0.00000  Uiso   1.00
H211   H     0.06543   0.20777   0.48764   0.00000  Uiso   1.00
H212   H     0.76877   0.16427   0.26492   0.00000  Uiso   1.00
H213   H     0.80930   0.90050   0.63839   0.00000  Uiso   1.00
H214   H     0.18915   0.33788   0.51896   0.00000  Uiso   1.00
H215   H     0.76807   0.34952   0.54616   0.00000  Uiso   1.00
H216   H     0.69065   0.37014   0.44910   0.00000  Uiso   1.00
H217   H     0.70986   0.24504   0.62622   0.00000  Uiso   1.00
H218   H     0.89000   0.45246   0.56958   0.00000  Uiso   1.00
H219   H     0.62638   0.36287   0.33143   0.00000  Uiso   1.00
H220   H     0.66691   0.09910   0.70489   0.00000  Uiso   1.00
H221   H     0.04676   0.53648   0.58547   0.00000  Uiso   1.00
O222   O     0.64963   0.27292   0.23293   0.00000  Uiso   1.00
O223   O     0.70282   0.92687   0.72291   0.00000  Uiso   1.00
O224   O     0.20117   0.50071   0.56622   0.00000  Uiso   1.00
N225   N     0.74590   0.20819   0.29389   0.00000  Uiso   1.00
N226   N     0.78378   0.96158   0.64305   0.00000  Uiso   1.00
N227   N     0.13891   0.37049   0.53142   0.00000  Uiso   1.00
N228   N     0.66928   0.31506   0.32967   0.00000  Uiso   1.00
N229   N     0.70716   0.06844   0.67884   0.00000  Uiso   1.00
N230   N     0.06229   0.47735   0.56720   0.00000  Uiso   1.00
C231   C     0.60372   0.82929   0.98627   0.00000  Uiso   1.00
C232   C     0.66388   0.79283   0.94200   0.00000  Uiso   1.00
C233   C     0.67179   0.82172   0.88484   0.00000  Uiso   1.00
C234   C     0.73045   0.77988   0.85130   0.00000  Uiso   1.00
C235   C     0.81645   0.73369   0.77908   0.00000  Uiso   1.00
C236   C     0.65346   0.86081   0.03822   0.00000  Uiso   1.00
C237   C     0.65259   0.94684   0.06197   0.00000  Uiso   1.00
C238   C     0.70246   0.96222   0.10945   0.00000  Uiso   1.00
C239   C     0.77222   0.02154   0.18665   0.00000  Uiso   1.00
C240   C     0.55558   0.74811   0.00745   0.00000  Uiso   1.00
C241   C     0.47242   0.73939   0.00534   0.00000  Uiso   1.00
C242   C     0.43989   0.65989   0.02691   0.00000  Uiso   1.00
C243   C     0.35769   0.54423   0.05632   0.00000  Uiso   1.00
C244   C     0.69383   0.70362   0.02836   0.00000  Uiso   1.00
C245   C     0.71282   0.72458   0.96486   0.00000  Uiso   1.00
C246   C     0.77148   0.68268   0.93140   0.00000  Uiso   1.00
C247   C     0.77948   0.71149   0.87420   0.00000  Uiso   1.00
C248   C     0.70239   0.79255   0.06108   0.00000  Uiso   1.00
C249   C     0.75227   0.80780   0.10854   0.00000  Uiso   1.00
C250   C     0.75149   0.89384   0.13235   0.00000  Uiso   1.00
C251   C     0.60452   0.67985   0.03031   0.00000  Uiso   1.00
C252   C     0.57211   0.60035   0.05189   0.00000  Uiso   1.00
C253   C     0.48892   0.59151   0.04981   0.00000  Uiso   1.00
H254   H     0.56562   0.88243   0.96848   0.00000  Uiso   1.00
H255   H     0.63391   0.87455   0.86716   0.00000  Uiso   1.00
H256   H     0.61470   0.99965   0.04428   0.00000  Uiso   1.00
H257   H     0.43457   0.79223   0.98764   0.00000  Uiso   1.00
H258   H     0.73123   0.83573   0.76492   0.00000  Uiso   1.00
H259   H     0.69070   0.09950   0.13839   0.00000  Uiso   1.00
H260   H     0.31085   0.66212   0.01896   0.00000  Uiso   1.00
H261   H     0.73193   0.65048   0.04616   0.00000  Uiso   1.00
H262   H     0.80935   0.62986   0.94910   0.00000  Uiso   1.00
H263   H     0.79014   0.75496   0.12622   0.00000  Uiso   1.00
H264   H     0.61000   0.54754   0.06958   0.00000  Uiso   1.00
H265   H     0.87362   0.63713   0.83143   0.00000  Uiso   1.00
H266   H     0.83309   0.90090   0.20489   0.00000  Uiso   1.00
H267   H     0.45324   0.46352   0.08547   0.00000  Uiso   1.00
O268   O     0.85037   0.72708   0.73293   0.00000  Uiso   1.00
O269   O     0.79718   0.07313   0.22291   0.00000  Uiso   1.00
O270   O     0.29883   0.49929   0.06622   0.00000  Uiso   1.00
N271   N     0.75410   0.79181   0.79389   0.00000  Uiso   1.00
N272   N     0.71622   0.03842   0.14305   0.00000  Uiso   1.00
N273   N     0.36109   0.62951   0.03142   0.00000  Uiso   1.00
N274   N     0.83072   0.68494   0.82967   0.00000  Uiso   1.00
N275   N     0.79284   0.93156   0.17884   0.00000  Uiso   1.00
N276   N     0.43771   0.52265   0.06720   0.00000  Uiso   1.00
C277   C     0.10372   0.67071   0.01373   0.00000  Uiso   1.00
C278   C     0.16388   0.70717   0.05800   0.00000  Uiso   1.00
C279   C     0.17179   0.67828   0.11516   0.00000  Uiso   1.00
C280   C     0.23045   0.72012   0.14870   0.00000  Uiso   1.00
C281   C     0.31645   0.76631   0.22092   0.00000  Uiso   1.00
C282   C     0.15346   0.63919   0.96178   0.00000  Uiso   1.00
C283   C     0.15259   0.55316   0.93803   0.00000  Uiso   1.00
C284   C     0.20246   0.53778   0.89055   0.00000  Uiso   1.00
C285   C     0.27222   0.47846   0.81335   0.00000  Uiso   1.00
C286   C     0.05558   0.75189   0.99255   0.00000  Uiso   1.00
C287   C     0.97242   0.76061   0.99466   0.00000  Uiso   1.00
C288   C     0.93989   0.84011   0.97309   0.00000  Uiso   1.00
C289   C     0.85769   0.95577   0.94368   0.00000  Uiso   1.00
C290   C     0.19383   0.79638   0.97164   0.00000  Uiso   1.00
C291   C     0.21282   0.77542   0.03514   0.00000  Uiso   1.00
C292   C     0.27148   0.81732   0.06860   0.00000  Uiso   1.00
C293   C     0.27948   0.78851   0.12580   0.00000  Uiso   1.00
C294   C     0.20239   0.70745   0.93892   0.00000  Uiso   1.00
C295   C     0.25227   0.69220   0.89146   0.00000  Uiso   1.00
C296   C     0.25149   0.60616   0.86765   0.00000  Uiso   1.00
C297   C     0.10452   0.82015   0.96969   0.00000  Uiso   1.00
C298   C     0.07211   0.89965   0.94811   0.00000  Uiso   1.00
C299   C     0.98892   0.90849   0.95019   0.00000  Uiso   1.00
H300   H     0.06562   0.61757   0.03152   0.00000  Uiso   1.00
H301   H     0.13391   0.62545   0.13284   0.00000  Uiso   1.00
H302   H     0.11470   0.50035   0.95572   0.00000  Uiso   1.00
H303   H     0.93457   0.70777   0.01236   0.00000  Uiso   1.00
H304   H     0.23123   0.66427   0.23508   0.00000  Uiso   1.00
H305   H     0.19070   0.40050   0.86161   0.00000  Uiso   1.00
H306   H     0.81085   0.83788   0.98104   0.00000  Uiso   1.00
H307   H     0.23193   0.84952   0.95384   0.00000  Uiso   1.00
H308   H     0.30935   0.87014   0.05090   0.00000  Uiso   1.00
H309   H     0.29014   0.74504   0.87378   0.00000  Uiso   1.00
H310   H     0.11000   0.95246   0.93042   0.00000  Uiso   1.00
H311   H     0.37362   0.86287   0.16857   0.00000  Uiso   1.00
H312   H     0.33309   0.59910   0.79511   0.00000  Uiso   1.00
H313   H     0.95324   0.03648   0.91453   0.00000  Uiso   1.00
O314   O     0.35037   0.77292   0.26707   0.00000  Uiso   1.00
O315   O     0.29718   0.42687   0.77709   0.00000  Uiso   1.00
O316   O     0.79883   0.00071   0.93378   0.00000  Uiso   1.00
N317   N     0.25410   0.70819   0.20611   0.00000  Uiso   1.00
N318   N     0.21622   0.46158   0.85695   0.00000  Uiso   1.00
N319   N     0.86109   0.87049   0.96858   0.00000  Uiso   1.00
N320   N     0.33072   0.81506   0.17033   0.00000  Uiso   1.00
N321   N     0.29284   0.56844   0.82116   0.00000  Uiso   1.00
N322   N     0.93771   0.97735   0.93280   0.00000  Uiso   1.00
C323   C     0.39628   0.32929   0.51373   0.00000  Uiso   1.00
C324   C     0.33612   0.29283   0.55800   0.00000  Uiso   1.00
C325   C     0.32821   0.32172   0.61516   0.00000  Uiso   1.00
C326   C     0.26955   0.27988   0.64870   0.00000  Uiso   1.00
C327   C     0.18355   0.23369   0.72092   0.00000  Uiso   1.00
C328   C     0.34654   0.36081   0.46178   0.00000  Uiso   1.00
C329   C     0.34741   0.44684   0.43803   0.00000  Uiso   1.00
C330   C     0.29754   0.46222   0.39055   0.00000  Uiso   1.00
C331   C     0.22778   0.52154   0.31335   0.00000  Uiso   1.00
C332   C     0.44442   0.24811   0.49255   0.00000  Uiso   1.00
C333   C     0.52758   0.23939   0.49466   0.00000  Uiso   1.00
C334   C     0.56011   0.15989   0.47309   0.00000  Uiso   1.00
C335   C     0.64231   0.04423   0.44368   0.00000  Uiso   1.00
C336   C     0.30617   0.20362   0.47164   0.00000  Uiso   1.00
C337   C     0.28718   0.22458   0.53514   0.00000  Uiso   1.00
C338   C     0.22852   0.18268   0.56860   0.00000  Uiso   1.00
C339   C     0.22052   0.21149   0.62580   0.00000  Uiso   1.00
C340   C     0.29761   0.29255   0.43892   0.00000  Uiso   1.00
C341   C     0.24773   0.30780   0.39146   0.00000  Uiso   1.00
C342   C     0.24851   0.39384   0.36765   0.00000  Uiso   1.00
C343   C     0.39548   0.17985   0.46969   0.00000  Uiso   1.00
C344   C     0.42789   0.10035   0.44811   0.00000  Uiso   1.00
C345   C     0.51108   0.09151   0.45019   0.00000  Uiso   1.00
H346   H     0.43438   0.38243   0.53152   0.00000  Uiso   1.00
H347   H     0.36609   0.37455   0.63284   0.00000  Uiso   1.00
H348   H     0.38530   0.49965   0.45572   0.00000  Uiso   1.00
H349   H     0.56543   0.29223   0.51236   0.00000  Uiso   1.00
H350   H     0.26877   0.33573   0.73508   0.00000  Uiso   1.00
H351   H     0.30930   0.59950   0.36161   0.00000  Uiso   1.00
H352   H     0.68915   0.16212   0.48104   0.00000  Uiso   1.00
H353   H     0.26807   0.15048   0.45384   0.00000  Uiso   1.00
H354   H     0.19065   0.12986   0.55090   0.00000  Uiso   1.00
H355   H     0.20986   0.25496   0.37378   0.00000  Uiso   1.00
H356   H     0.39000   0.04754   0.43042   0.00000  Uiso   1.00
H357   H     0.12638   0.13713   0.66857   0.00000  Uiso   1.00
H358   H     0.16691   0.40090   0.29511   0.00000  Uiso   1.00
H359   H     0.54676   0.96352   0.41453   0.00000  Uiso   1.00
O360   O     0.14963   0.22708   0.76707   0.00000  Uiso   1.00
O361   O     0.20282   0.57313   0.27709   0.00000  Uiso   1.00
O362   O     0.70117   0.99929   0.43378   0.00000  Uiso   1.00
N363   N     0.24590   0.29181   0.70611   0.00000  Uiso   1.00
N364   N     0.28378   0.53842   0.35695   0.00000  Uiso   1.00
N365   N     0.63891   0.12951   0.46858   0.00000  Uiso   1.00
N366   N     0.16928   0.18494   0.67033   0.00000  Uiso   1.00
N367   N     0.20716   0.43156   0.32116   0.00000  Uiso   1.00
N368   N     0.56229   0.02265   0.43280   0.00000  Uiso   1.00
