data_job_01608
_audit_creation_date              2018-12-19
_audit_creation_method            'Materials Studio'
_symmetry_space_group_name_H-M    'P1'
_symmetry_Int_Tables_number       1
_symmetry_cell_setting            triclinic
loop_
_symmetry_equiv_pos_as_xyz
  x,y,z
_cell_length_a                    13.3628
_cell_length_b                    40.0828
_cell_length_c                    19.8302
_cell_angle_alpha                 90.0000
_cell_angle_beta                  90.0000
_cell_angle_gamma                 90.0000
loop_
_atom_site_label
_atom_site_type_symbol
_atom_site_fract_x
_atom_site_fract_y
_atom_site_fract_z
_atom_site_U_iso_or_equiv
_atom_site_adp_type
_atom_site_occupancy
C1     C     0.83269   0.66888   0.40690   0.00000  Uiso   1.00
C2     C     0.90604   0.68063   0.35299   0.00000  Uiso   1.00
C3     C     0.88063   0.69216   0.28926   0.00000  Uiso   1.00
C4     C     0.95870   0.70174   0.24731   0.00000  Uiso   1.00
C5     C     0.05740   0.72026   0.16039   0.00000  Uiso   1.00
C6     C     0.86439   0.63348   0.42524   0.00000  Uiso   1.00
C7     C     0.80396   0.60536   0.42227   0.00000  Uiso   1.00
C8     C     0.84698   0.57524   0.44116   0.00000  Uiso   1.00
C9     C     0.88100   0.52056   0.46645   0.00000  Uiso   1.00
C10    C     0.85363   0.69014   0.46908   0.00000  Uiso   1.00
C11    C     0.78415   0.70966   0.50299   0.00000  Uiso   1.00
C12    C     0.81810   0.72724   0.55880   0.00000  Uiso   1.00
C13    C     0.83541   0.76054   0.65216   0.00000  Uiso   1.00
C14    C     0.01653   0.66540   0.44574   0.00000  Uiso   1.00
C15    C     0.00589   0.67874   0.37409   0.00000  Uiso   1.00
C16    C     0.08403   0.68831   0.33224   0.00000  Uiso   1.00
C17    C     0.05874   0.69985   0.26845   0.00000  Uiso   1.00
C18    C     0.96424   0.63159   0.44634   0.00000  Uiso   1.00
C19    C     0.00736   0.60151   0.46525   0.00000  Uiso   1.00
C20    C     0.94701   0.57335   0.46230   0.00000  Uiso   1.00
C21    C     0.95348   0.68825   0.49018   0.00000  Uiso   1.00
C22    C     0.98754   0.70581   0.54596   0.00000  Uiso   1.00
C23    C     0.91813   0.72535   0.57994   0.00000  Uiso   1.00
H24    H     0.75496   0.67035   0.39047   0.00000  Uiso   1.00
H25    H     0.80335   0.69361   0.27294   0.00000  Uiso   1.00
H26    H     0.72669   0.60683   0.40594   0.00000  Uiso   1.00
H27    H     0.70688   0.71111   0.48664   0.00000  Uiso   1.00
H28    H     0.90104   0.71857   0.15194   0.00000  Uiso   1.00
H29    H     0.73939   0.53557   0.43239   0.00000  Uiso   1.00
H30    H     0.69762   0.75547   0.60257   0.00000  Uiso   1.00
H31    H     0.09427   0.66393   0.46217   0.00000  Uiso   1.00
H32    H     0.16129   0.68685   0.34858   0.00000  Uiso   1.00
H33    H     0.08463   0.60006   0.48158   0.00000  Uiso   1.00
H34    H     0.06482   0.70434   0.56228   0.00000  Uiso   1.00
H35    H     0.19156   0.71307   0.21333   0.00000  Uiso   1.00
H36    H     0.02991   0.53007   0.49378   0.00000  Uiso   1.00
H37    H     0.98814   0.74998   0.66396   0.00000  Uiso   1.00
O38    O     0.08426   0.73100   0.10660   0.00000  Uiso   1.00
O39    O     0.87218   0.49091   0.47456   0.00000  Uiso   1.00
O40    O     0.81737   0.77943   0.69783   0.00000  Uiso   1.00
N41    N     0.96021   0.71413   0.18198   0.00000  Uiso   1.00
N42    N     0.80909   0.54304   0.44418   0.00000  Uiso   1.00
N43    N     0.77003   0.74863   0.60329   0.00000  Uiso   1.00
N44    N     0.11654   0.71118   0.21501   0.00000  Uiso   1.00
N45    N     0.96542   0.54008   0.47721   0.00000  Uiso   1.00
N46    N     0.92635   0.74567   0.63632   0.00000  Uiso   1.00
C47    C     0.66731   0.33112   0.40690   0.00000  Uiso   1.00
C48    C     0.59396   0.31937   0.35299   0.00000  Uiso   1.00
C49    C     0.61937   0.30784   0.28926   0.00000  Uiso   1.00
C50    C     0.54130   0.29826   0.24731   0.00000  Uiso   1.00
C51    C     0.44260   0.27974   0.16039   0.00000  Uiso   1.00
C52    C     0.63561   0.36652   0.42524   0.00000  Uiso   1.00
C53    C     0.69604   0.39464   0.42227   0.00000  Uiso   1.00
C54    C     0.65302   0.42476   0.44116   0.00000  Uiso   1.00
C55    C     0.61900   0.47944   0.46645   0.00000  Uiso   1.00
C56    C     0.64637   0.30986   0.46908   0.00000  Uiso   1.00
C57    C     0.71585   0.29034   0.50299   0.00000  Uiso   1.00
C58    C     0.68190   0.27276   0.55880   0.00000  Uiso   1.00
C59    C     0.66459   0.23946   0.65216   0.00000  Uiso   1.00
C60    C     0.48347   0.33460   0.44574   0.00000  Uiso   1.00
C61    C     0.49411   0.32126   0.37409   0.00000  Uiso   1.00
C62    C     0.41597   0.31169   0.33224   0.00000  Uiso   1.00
C63    C     0.44126   0.30015   0.26845   0.00000  Uiso   1.00
C64    C     0.53576   0.36841   0.44634   0.00000  Uiso   1.00
C65    C     0.49264   0.39849   0.46525   0.00000  Uiso   1.00
C66    C     0.55299   0.42665   0.46230   0.00000  Uiso   1.00
C67    C     0.54652   0.31175   0.49018   0.00000  Uiso   1.00
C68    C     0.51246   0.29419   0.54596   0.00000  Uiso   1.00
C69    C     0.58187   0.27465   0.57994   0.00000  Uiso   1.00
H70    H     0.74504   0.32965   0.39047   0.00000  Uiso   1.00
H71    H     0.69665   0.30639   0.27294   0.00000  Uiso   1.00
H72    H     0.77331   0.39317   0.40594   0.00000  Uiso   1.00
H73    H     0.79312   0.28889   0.48664   0.00000  Uiso   1.00
H74    H     0.59896   0.28143   0.15194   0.00000  Uiso   1.00
H75    H     0.76061   0.46443   0.43239   0.00000  Uiso   1.00
H76    H     0.80238   0.24453   0.60257   0.00000  Uiso   1.00
H77    H     0.40573   0.33607   0.46217   0.00000  Uiso   1.00
H78    H     0.33871   0.31315   0.34858   0.00000  Uiso   1.00
H79    H     0.41537   0.39994   0.48158   0.00000  Uiso   1.00
H80    H     0.43518   0.29566   0.56228   0.00000  Uiso   1.00
H81    H     0.30844   0.28693   0.21333   0.00000  Uiso   1.00
H82    H     0.47009   0.46993   0.49378   0.00000  Uiso   1.00
H83    H     0.51186   0.25002   0.66396   0.00000  Uiso   1.00
O84    O     0.41574   0.26900   0.10660   0.00000  Uiso   1.00
O85    O     0.62782   0.50909   0.47456   0.00000  Uiso   1.00
O86    O     0.68263   0.22057   0.69783   0.00000  Uiso   1.00
N87    N     0.53979   0.28587   0.18198   0.00000  Uiso   1.00
N88    N     0.69091   0.45696   0.44418   0.00000  Uiso   1.00
N89    N     0.72997   0.25137   0.60329   0.00000  Uiso   1.00
N90    N     0.38346   0.28882   0.21501   0.00000  Uiso   1.00
N91    N     0.53458   0.45992   0.47721   0.00000  Uiso   1.00
N92    N     0.57365   0.25433   0.63632   0.00000  Uiso   1.00
C93    C     0.66731   0.16888   0.09310   0.00000  Uiso   1.00
C94    C     0.59396   0.18063   0.14701   0.00000  Uiso   1.00
C95    C     0.61937   0.19216   0.21074   0.00000  Uiso   1.00
C96    C     0.54130   0.20174   0.25269   0.00000  Uiso   1.00
C97    C     0.44260   0.22026   0.33961   0.00000  Uiso   1.00
C98    C     0.63561   0.13348   0.07476   0.00000  Uiso   1.00
C99    C     0.69604   0.10536   0.07773   0.00000  Uiso   1.00
C100   C     0.65302   0.07524   0.05884   0.00000  Uiso   1.00
C101   C     0.61900   0.02056   0.03355   0.00000  Uiso   1.00
C102   C     0.64637   0.19014   0.03092   0.00000  Uiso   1.00
C103   C     0.71585   0.20966   0.99701   0.00000  Uiso   1.00
C104   C     0.68190   0.22724   0.94120   0.00000  Uiso   1.00
C105   C     0.66459   0.26054   0.84784   0.00000  Uiso   1.00
C106   C     0.48347   0.16540   0.05426   0.00000  Uiso   1.00
C107   C     0.49411   0.17874   0.12591   0.00000  Uiso   1.00
C108   C     0.41597   0.18831   0.16776   0.00000  Uiso   1.00
C109   C     0.44126   0.19985   0.23155   0.00000  Uiso   1.00
C110   C     0.53576   0.13159   0.05366   0.00000  Uiso   1.00
C111   C     0.49264   0.10151   0.03475   0.00000  Uiso   1.00
C112   C     0.55299   0.07335   0.03770   0.00000  Uiso   1.00
C113   C     0.54652   0.18825   0.00982   0.00000  Uiso   1.00
C114   C     0.51246   0.20581   0.95404   0.00000  Uiso   1.00
C115   C     0.58187   0.22535   0.92006   0.00000  Uiso   1.00
H116   H     0.74504   0.17035   0.10953   0.00000  Uiso   1.00
H117   H     0.69665   0.19361   0.22706   0.00000  Uiso   1.00
H118   H     0.77331   0.10683   0.09406   0.00000  Uiso   1.00
H119   H     0.79312   0.21111   0.01336   0.00000  Uiso   1.00
H120   H     0.59896   0.21857   0.34806   0.00000  Uiso   1.00
H121   H     0.76061   0.03557   0.06761   0.00000  Uiso   1.00
H122   H     0.80238   0.25547   0.89743   0.00000  Uiso   1.00
H123   H     0.40573   0.16393   0.03783   0.00000  Uiso   1.00
H124   H     0.33871   0.18685   0.15142   0.00000  Uiso   1.00
H125   H     0.41537   0.10006   0.01842   0.00000  Uiso   1.00
H126   H     0.43518   0.20434   0.93772   0.00000  Uiso   1.00
H127   H     0.30844   0.21307   0.28667   0.00000  Uiso   1.00
H128   H     0.47009   0.03007   0.00622   0.00000  Uiso   1.00
H129   H     0.51186   0.24998   0.83604   0.00000  Uiso   1.00
O130   O     0.41574   0.23100   0.39340   0.00000  Uiso   1.00
O131   O     0.62782   0.99091   0.02544   0.00000  Uiso   1.00
O132   O     0.68263   0.27943   0.80217   0.00000  Uiso   1.00
N133   N     0.53979   0.21413   0.31802   0.00000  Uiso   1.00
N134   N     0.69091   0.04304   0.05582   0.00000  Uiso   1.00
N135   N     0.72997   0.24863   0.89671   0.00000  Uiso   1.00
N136   N     0.38346   0.21118   0.28499   0.00000  Uiso   1.00
N137   N     0.53458   0.04008   0.02279   0.00000  Uiso   1.00
N138   N     0.57365   0.24567   0.86368   0.00000  Uiso   1.00
C139   C     0.83269   0.83112   0.09310   0.00000  Uiso   1.00
C140   C     0.90604   0.81937   0.14701   0.00000  Uiso   1.00
C141   C     0.88063   0.80784   0.21074   0.00000  Uiso   1.00
C142   C     0.95870   0.79826   0.25269   0.00000  Uiso   1.00
C143   C     0.05740   0.77974   0.33961   0.00000  Uiso   1.00
C144   C     0.86439   0.86652   0.07476   0.00000  Uiso   1.00
C145   C     0.80396   0.89464   0.07773   0.00000  Uiso   1.00
C146   C     0.84698   0.92476   0.05884   0.00000  Uiso   1.00
C147   C     0.88100   0.97944   0.03355   0.00000  Uiso   1.00
C148   C     0.85363   0.80986   0.03092   0.00000  Uiso   1.00
C149   C     0.78415   0.79034   0.99701   0.00000  Uiso   1.00
C150   C     0.81810   0.77276   0.94120   0.00000  Uiso   1.00
C151   C     0.83541   0.73946   0.84784   0.00000  Uiso   1.00
C152   C     0.01653   0.83460   0.05426   0.00000  Uiso   1.00
C153   C     0.00589   0.82126   0.12591   0.00000  Uiso   1.00
C154   C     0.08403   0.81169   0.16776   0.00000  Uiso   1.00
C155   C     0.05874   0.80015   0.23155   0.00000  Uiso   1.00
C156   C     0.96424   0.86841   0.05366   0.00000  Uiso   1.00
C157   C     0.00736   0.89849   0.03475   0.00000  Uiso   1.00
C158   C     0.94701   0.92665   0.03770   0.00000  Uiso   1.00
C159   C     0.95348   0.81175   0.00982   0.00000  Uiso   1.00
C160   C     0.98754   0.79419   0.95404   0.00000  Uiso   1.00
C161   C     0.91813   0.77465   0.92006   0.00000  Uiso   1.00
H162   H     0.75496   0.82965   0.10953   0.00000  Uiso   1.00
H163   H     0.80335   0.80639   0.22706   0.00000  Uiso   1.00
H164   H     0.72669   0.89317   0.09406   0.00000  Uiso   1.00
H165   H     0.70688   0.78889   0.01336   0.00000  Uiso   1.00
H166   H     0.90104   0.78143   0.34806   0.00000  Uiso   1.00
H167   H     0.73939   0.96443   0.06761   0.00000  Uiso   1.00
H168   H     0.69762   0.74453   0.89743   0.00000  Uiso   1.00
H169   H     0.09427   0.83607   0.03783   0.00000  Uiso   1.00
H170   H     0.16129   0.81315   0.15142   0.00000  Uiso   1.00
H171   H     0.08463   0.89994   0.01842   0.00000  Uiso   1.00
H172   H     0.06482   0.79566   0.93772   0.00000  Uiso   1.00
H173   H     0.19156   0.78693   0.28667   0.00000  Uiso   1.00
H174   H     0.02991   0.96993   0.00622   0.00000  Uiso   1.00
H175   H     0.98814   0.75002   0.83604   0.00000  Uiso   1.00
O176   O     0.08426   0.76900   0.39340   0.00000  Uiso   1.00
O177   O     0.87218   0.00909   0.02544   0.00000  Uiso   1.00
O178   O     0.81737   0.72057   0.80217   0.00000  Uiso   1.00
N179   N     0.96021   0.78587   0.31802   0.00000  Uiso   1.00
N180   N     0.80909   0.95696   0.05582   0.00000  Uiso   1.00
N181   N     0.77003   0.75137   0.89671   0.00000  Uiso   1.00
N182   N     0.11654   0.78882   0.28499   0.00000  Uiso   1.00
N183   N     0.96542   0.95992   0.02279   0.00000  Uiso   1.00
N184   N     0.92635   0.75433   0.86368   0.00000  Uiso   1.00
C185   C     0.16731   0.33112   0.59310   0.00000  Uiso   1.00
C186   C     0.09396   0.31937   0.64701   0.00000  Uiso   1.00
C187   C     0.11937   0.30784   0.71074   0.00000  Uiso   1.00
C188   C     0.04130   0.29826   0.75269   0.00000  Uiso   1.00
C189   C     0.94260   0.27974   0.83961   0.00000  Uiso   1.00
C190   C     0.13561   0.36652   0.57476   0.00000  Uiso   1.00
C191   C     0.19604   0.39464   0.57773   0.00000  Uiso   1.00
C192   C     0.15302   0.42476   0.55884   0.00000  Uiso   1.00
C193   C     0.11900   0.47944   0.53355   0.00000  Uiso   1.00
C194   C     0.14637   0.30986   0.53092   0.00000  Uiso   1.00
C195   C     0.21585   0.29034   0.49701   0.00000  Uiso   1.00
C196   C     0.18190   0.27276   0.44120   0.00000  Uiso   1.00
C197   C     0.16459   0.23946   0.34784   0.00000  Uiso   1.00
C198   C     0.98347   0.33460   0.55426   0.00000  Uiso   1.00
C199   C     0.99411   0.32126   0.62591   0.00000  Uiso   1.00
C200   C     0.91597   0.31169   0.66776   0.00000  Uiso   1.00
C201   C     0.94126   0.30015   0.73155   0.00000  Uiso   1.00
C202   C     0.03576   0.36841   0.55366   0.00000  Uiso   1.00
C203   C     0.99264   0.39849   0.53475   0.00000  Uiso   1.00
C204   C     0.05299   0.42665   0.53770   0.00000  Uiso   1.00
C205   C     0.04652   0.31175   0.50982   0.00000  Uiso   1.00
C206   C     0.01246   0.29419   0.45404   0.00000  Uiso   1.00
C207   C     0.08187   0.27465   0.42006   0.00000  Uiso   1.00
H208   H     0.24504   0.32965   0.60953   0.00000  Uiso   1.00
H209   H     0.19665   0.30639   0.72706   0.00000  Uiso   1.00
H210   H     0.27331   0.39317   0.59406   0.00000  Uiso   1.00
H211   H     0.29312   0.28889   0.51336   0.00000  Uiso   1.00
H212   H     0.09896   0.28143   0.84806   0.00000  Uiso   1.00
H213   H     0.26061   0.46443   0.56761   0.00000  Uiso   1.00
H214   H     0.30238   0.24453   0.39743   0.00000  Uiso   1.00
H215   H     0.90573   0.33607   0.53783   0.00000  Uiso   1.00
H216   H     0.83871   0.31315   0.65142   0.00000  Uiso   1.00
H217   H     0.91537   0.39994   0.51842   0.00000  Uiso   1.00
H218   H     0.93518   0.29566   0.43772   0.00000  Uiso   1.00
H219   H     0.80844   0.28693   0.78667   0.00000  Uiso   1.00
H220   H     0.97009   0.46993   0.50622   0.00000  Uiso   1.00
H221   H     0.01186   0.25002   0.33604   0.00000  Uiso   1.00
O222   O     0.91574   0.26900   0.89340   0.00000  Uiso   1.00
O223   O     0.12782   0.50909   0.52544   0.00000  Uiso   1.00
O224   O     0.18263   0.22057   0.30217   0.00000  Uiso   1.00
N225   N     0.03979   0.28587   0.81802   0.00000  Uiso   1.00
N226   N     0.19091   0.45696   0.55582   0.00000  Uiso   1.00
N227   N     0.22997   0.25137   0.39671   0.00000  Uiso   1.00
N228   N     0.88346   0.28882   0.78499   0.00000  Uiso   1.00
N229   N     0.03458   0.45992   0.52279   0.00000  Uiso   1.00
N230   N     0.07365   0.25433   0.36368   0.00000  Uiso   1.00
C231   C     0.33269   0.66888   0.59310   0.00000  Uiso   1.00
C232   C     0.40604   0.68063   0.64701   0.00000  Uiso   1.00
C233   C     0.38063   0.69216   0.71074   0.00000  Uiso   1.00
C234   C     0.45870   0.70174   0.75269   0.00000  Uiso   1.00
C235   C     0.55740   0.72026   0.83961   0.00000  Uiso   1.00
C236   C     0.36439   0.63348   0.57476   0.00000  Uiso   1.00
C237   C     0.30396   0.60536   0.57773   0.00000  Uiso   1.00
C238   C     0.34698   0.57524   0.55884   0.00000  Uiso   1.00
C239   C     0.38100   0.52056   0.53355   0.00000  Uiso   1.00
C240   C     0.35363   0.69014   0.53092   0.00000  Uiso   1.00
C241   C     0.28415   0.70966   0.49701   0.00000  Uiso   1.00
C242   C     0.31810   0.72724   0.44120   0.00000  Uiso   1.00
C243   C     0.33541   0.76054   0.34784   0.00000  Uiso   1.00
C244   C     0.51653   0.66540   0.55426   0.00000  Uiso   1.00
C245   C     0.50589   0.67874   0.62591   0.00000  Uiso   1.00
C246   C     0.58403   0.68831   0.66776   0.00000  Uiso   1.00
C247   C     0.55874   0.69985   0.73155   0.00000  Uiso   1.00
C248   C     0.46424   0.63159   0.55366   0.00000  Uiso   1.00
C249   C     0.50736   0.60151   0.53475   0.00000  Uiso   1.00
C250   C     0.44701   0.57335   0.53770   0.00000  Uiso   1.00
C251   C     0.45348   0.68825   0.50982   0.00000  Uiso   1.00
C252   C     0.48754   0.70581   0.45404   0.00000  Uiso   1.00
C253   C     0.41813   0.72535   0.42006   0.00000  Uiso   1.00
H254   H     0.25496   0.67035   0.60953   0.00000  Uiso   1.00
H255   H     0.30335   0.69361   0.72706   0.00000  Uiso   1.00
H256   H     0.22669   0.60683   0.59406   0.00000  Uiso   1.00
H257   H     0.20688   0.71111   0.51336   0.00000  Uiso   1.00
H258   H     0.40104   0.71857   0.84806   0.00000  Uiso   1.00
H259   H     0.23939   0.53557   0.56761   0.00000  Uiso   1.00
H260   H     0.19762   0.75547   0.39743   0.00000  Uiso   1.00
H261   H     0.59427   0.66393   0.53783   0.00000  Uiso   1.00
H262   H     0.66129   0.68685   0.65142   0.00000  Uiso   1.00
H263   H     0.58463   0.60006   0.51842   0.00000  Uiso   1.00
H264   H     0.56482   0.70434   0.43772   0.00000  Uiso   1.00
H265   H     0.69156   0.71307   0.78667   0.00000  Uiso   1.00
H266   H     0.52991   0.53007   0.50622   0.00000  Uiso   1.00
H267   H     0.48814   0.74998   0.33604   0.00000  Uiso   1.00
O268   O     0.58426   0.73100   0.89340   0.00000  Uiso   1.00
O269   O     0.37218   0.49091   0.52544   0.00000  Uiso   1.00
O270   O     0.31737   0.77943   0.30217   0.00000  Uiso   1.00
N271   N     0.46021   0.71413   0.81802   0.00000  Uiso   1.00
N272   N     0.30909   0.54304   0.55582   0.00000  Uiso   1.00
N273   N     0.27003   0.74863   0.39671   0.00000  Uiso   1.00
N274   N     0.61654   0.71118   0.78499   0.00000  Uiso   1.00
N275   N     0.46542   0.54008   0.52279   0.00000  Uiso   1.00
N276   N     0.42635   0.74567   0.36368   0.00000  Uiso   1.00
C277   C     0.33269   0.83112   0.90690   0.00000  Uiso   1.00
C278   C     0.40604   0.81937   0.85299   0.00000  Uiso   1.00
C279   C     0.38063   0.80784   0.78926   0.00000  Uiso   1.00
C280   C     0.45870   0.79826   0.74731   0.00000  Uiso   1.00
C281   C     0.55740   0.77974   0.66039   0.00000  Uiso   1.00
C282   C     0.36439   0.86652   0.92524   0.00000  Uiso   1.00
C283   C     0.30396   0.89464   0.92227   0.00000  Uiso   1.00
C284   C     0.34698   0.92476   0.94116   0.00000  Uiso   1.00
C285   C     0.38100   0.97944   0.96645   0.00000  Uiso   1.00
C286   C     0.35363   0.80986   0.96908   0.00000  Uiso   1.00
C287   C     0.28415   0.79034   0.00299   0.00000  Uiso   1.00
C288   C     0.31810   0.77276   0.05880   0.00000  Uiso   1.00
C289   C     0.33541   0.73946   0.15216   0.00000  Uiso   1.00
C290   C     0.51653   0.83460   0.94574   0.00000  Uiso   1.00
C291   C     0.50589   0.82126   0.87409   0.00000  Uiso   1.00
C292   C     0.58403   0.81169   0.83224   0.00000  Uiso   1.00
C293   C     0.55874   0.80015   0.76845   0.00000  Uiso   1.00
C294   C     0.46424   0.86841   0.94634   0.00000  Uiso   1.00
C295   C     0.50736   0.89849   0.96525   0.00000  Uiso   1.00
C296   C     0.44701   0.92665   0.96230   0.00000  Uiso   1.00
C297   C     0.45348   0.81175   0.99018   0.00000  Uiso   1.00
C298   C     0.48754   0.79419   0.04596   0.00000  Uiso   1.00
C299   C     0.41813   0.77465   0.07994   0.00000  Uiso   1.00
H300   H     0.25496   0.82965   0.89047   0.00000  Uiso   1.00
H301   H     0.30335   0.80639   0.77294   0.00000  Uiso   1.00
H302   H     0.22669   0.89317   0.90594   0.00000  Uiso   1.00
H303   H     0.20688   0.78889   0.98664   0.00000  Uiso   1.00
H304   H     0.40104   0.78143   0.65194   0.00000  Uiso   1.00
H305   H     0.23939   0.96443   0.93239   0.00000  Uiso   1.00
H306   H     0.19762   0.74453   0.10257   0.00000  Uiso   1.00
H307   H     0.59427   0.83607   0.96217   0.00000  Uiso   1.00
H308   H     0.66129   0.81315   0.84858   0.00000  Uiso   1.00
H309   H     0.58463   0.89994   0.98158   0.00000  Uiso   1.00
H310   H     0.56482   0.79566   0.06228   0.00000  Uiso   1.00
H311   H     0.69156   0.78693   0.71333   0.00000  Uiso   1.00
H312   H     0.52991   0.96993   0.99378   0.00000  Uiso   1.00
H313   H     0.48814   0.75002   0.16396   0.00000  Uiso   1.00
O314   O     0.58426   0.76900   0.60660   0.00000  Uiso   1.00
O315   O     0.37218   0.00909   0.97456   0.00000  Uiso   1.00
O316   O     0.31737   0.72057   0.19783   0.00000  Uiso   1.00
N317   N     0.46021   0.78587   0.68198   0.00000  Uiso   1.00
N318   N     0.30909   0.95696   0.94418   0.00000  Uiso   1.00
N319   N     0.27003   0.75137   0.10329   0.00000  Uiso   1.00
N320   N     0.61654   0.78882   0.71501   0.00000  Uiso   1.00
N321   N     0.46542   0.95992   0.97721   0.00000  Uiso   1.00
N322   N     0.42635   0.75433   0.13632   0.00000  Uiso   1.00
C323   C     0.16731   0.16888   0.90690   0.00000  Uiso   1.00
C324   C     0.09396   0.18063   0.85299   0.00000  Uiso   1.00
C325   C     0.11937   0.19216   0.78926   0.00000  Uiso   1.00
C326   C     0.04130   0.20174   0.74731   0.00000  Uiso   1.00
C327   C     0.94260   0.22026   0.66039   0.00000  Uiso   1.00
C328   C     0.13561   0.13348   0.92524   0.00000  Uiso   1.00
C329   C     0.19604   0.10536   0.92227   0.00000  Uiso   1.00
C330   C     0.15302   0.07524   0.94116   0.00000  Uiso   1.00
C331   C     0.11900   0.02056   0.96645   0.00000  Uiso   1.00
C332   C     0.14637   0.19014   0.96908   0.00000  Uiso   1.00
C333   C     0.21585   0.20966   0.00299   0.00000  Uiso   1.00
C334   C     0.18190   0.22724   0.05880   0.00000  Uiso   1.00
C335   C     0.16459   0.26054   0.15216   0.00000  Uiso   1.00
C336   C     0.98347   0.16540   0.94574   0.00000  Uiso   1.00
C337   C     0.99411   0.17874   0.87409   0.00000  Uiso   1.00
C338   C     0.91597   0.18831   0.83224   0.00000  Uiso   1.00
C339   C     0.94126   0.19985   0.76845   0.00000  Uiso   1.00
C340   C     0.03576   0.13159   0.94634   0.00000  Uiso   1.00
C341   C     0.99264   0.10151   0.96525   0.00000  Uiso   1.00
C342   C     0.05299   0.07335   0.96230   0.00000  Uiso   1.00
C343   C     0.04652   0.18825   0.99018   0.00000  Uiso   1.00
C344   C     0.01246   0.20581   0.04596   0.00000  Uiso   1.00
C345   C     0.08187   0.22535   0.07994   0.00000  Uiso   1.00
H346   H     0.24504   0.17035   0.89047   0.00000  Uiso   1.00
H347   H     0.19665   0.19361   0.77294   0.00000  Uiso   1.00
H348   H     0.27331   0.10683   0.90594   0.00000  Uiso   1.00
H349   H     0.29312   0.21111   0.98664   0.00000  Uiso   1.00
H350   H     0.09896   0.21857   0.65194   0.00000  Uiso   1.00
H351   H     0.26061   0.03557   0.93239   0.00000  Uiso   1.00
H352   H     0.30238   0.25547   0.10257   0.00000  Uiso   1.00
H353   H     0.90573   0.16393   0.96217   0.00000  Uiso   1.00
H354   H     0.83871   0.18685   0.84858   0.00000  Uiso   1.00
H355   H     0.91537   0.10006   0.98158   0.00000  Uiso   1.00
H356   H     0.93518   0.20434   0.06228   0.00000  Uiso   1.00
H357   H     0.80844   0.21307   0.71333   0.00000  Uiso   1.00
H358   H     0.97009   0.03007   0.99378   0.00000  Uiso   1.00
H359   H     0.01186   0.24998   0.16396   0.00000  Uiso   1.00
O360   O     0.91574   0.23100   0.60660   0.00000  Uiso   1.00
O361   O     0.12782   0.99091   0.97456   0.00000  Uiso   1.00
O362   O     0.18263   0.27943   0.19783   0.00000  Uiso   1.00
N363   N     0.03979   0.21413   0.68198   0.00000  Uiso   1.00
N364   N     0.19091   0.04304   0.94418   0.00000  Uiso   1.00
N365   N     0.22997   0.24863   0.10329   0.00000  Uiso   1.00
N366   N     0.88346   0.21118   0.71501   0.00000  Uiso   1.00
N367   N     0.03458   0.04008   0.97721   0.00000  Uiso   1.00
N368   N     0.07365   0.24567   0.13632   0.00000  Uiso   1.00
