data_job_00975
_audit_creation_date              2018-12-19
_audit_creation_method            'Materials Studio'
_symmetry_space_group_name_H-M    'P1'
_symmetry_Int_Tables_number       1
_symmetry_cell_setting            triclinic
loop_
_symmetry_equiv_pos_as_xyz
  x,y,z
_cell_length_a                    26.6820
_cell_length_b                    7.6917
_cell_length_c                    26.9172
_cell_angle_alpha                 90.0000
_cell_angle_beta                  88.8245
_cell_angle_gamma                 90.0000
loop_
_atom_site_label
_atom_site_type_symbol
_atom_site_fract_x
_atom_site_fract_y
_atom_site_fract_z
_atom_site_U_iso_or_equiv
_atom_site_adp_type
_atom_site_occupancy
C1     C     0.64323   0.70613   0.80547   0.00000  Uiso   1.00
C2     C     0.64704   0.81526   0.75825   0.00000  Uiso   1.00
C3     C     0.66986   0.76437   0.71379   0.00000  Uiso   1.00
C4     C     0.66939   0.88300   0.67493   0.00000  Uiso   1.00
C5     C     0.67875   0.02761   0.60078   0.00000  Uiso   1.00
C6     C     0.66677   0.81488   0.84622   0.00000  Uiso   1.00
C7     C     0.70618   0.76364   0.87573   0.00000  Uiso   1.00
C8     C     0.72232   0.88194   0.91093   0.00000  Uiso   1.00
C9     C     0.76229   0.02589   0.97338   0.00000  Uiso   1.00
C10    C     0.58751   0.69466   0.81883   0.00000  Uiso   1.00
C11    C     0.56028   0.54234   0.82532   0.00000  Uiso   1.00
C12    C     0.50969   0.55943   0.83747   0.00000  Uiso   1.00
C13    C     0.42660   0.51672   0.85739   0.00000  Uiso   1.00
C14    C     0.60183   0.00731   0.81551   0.00000  Uiso   1.00
C15    C     0.62455   0.97886   0.76370   0.00000  Uiso   1.00
C16    C     0.62405   0.09760   0.72489   0.00000  Uiso   1.00
C17    C     0.64686   0.04689   0.68039   0.00000  Uiso   1.00
C18    C     0.64429   0.97846   0.85167   0.00000  Uiso   1.00
C19    C     0.66037   0.09686   0.88683   0.00000  Uiso   1.00
C20    C     0.69980   0.04583   0.91639   0.00000  Uiso   1.00
C21    C     0.56502   0.85825   0.82428   0.00000  Uiso   1.00
C22    C     0.51447   0.87557   0.83642   0.00000  Uiso   1.00
C23    C     0.48716   0.72331   0.84293   0.00000  Uiso   1.00
H24    H     0.66074   0.57877   0.80123   0.00000  Uiso   1.00
H25    H     0.68726   0.63776   0.70959   0.00000  Uiso   1.00
H26    H     0.72357   0.63703   0.87151   0.00000  Uiso   1.00
H27    H     0.57769   0.41577   0.82110   0.00000  Uiso   1.00
H28    H     0.70676   0.77534   0.61040   0.00000  Uiso   1.00
H29    H     0.78331   0.77376   0.95182   0.00000  Uiso   1.00
H30    H     0.47570   0.30719   0.84553   0.00000  Uiso   1.00
H31    H     0.58432   0.13468   0.81975   0.00000  Uiso   1.00
H32    H     0.60665   0.22418   0.72912   0.00000  Uiso   1.00
H33    H     0.64296   0.22345   0.89104   0.00000  Uiso   1.00
H34    H     0.49708   0.00219   0.84063   0.00000  Uiso   1.00
H35    H     0.64134   0.25130   0.62625   0.00000  Uiso   1.00
H36    H     0.71789   0.24972   0.96768   0.00000  Uiso   1.00
H37    H     0.41027   0.78315   0.86139   0.00000  Uiso   1.00
O38    O     0.69013   0.06219   0.55838   0.00000  Uiso   1.00
O39    O     0.79056   0.06010   0.00632   0.00000  Uiso   1.00
O40    O     0.38697   0.44797   0.86687   0.00000  Uiso   1.00
N41    N     0.68829   0.87506   0.62656   0.00000  Uiso   1.00
N42    N     0.75987   0.87360   0.94577   0.00000  Uiso   1.00
N43    N     0.47228   0.43739   0.84641   0.00000  Uiso   1.00
N44    N     0.65308   0.13117   0.63509   0.00000  Uiso   1.00
N45    N     0.72466   0.12971   0.95430   0.00000  Uiso   1.00
N46    N     0.43707   0.69350   0.85494   0.00000  Uiso   1.00
C47    C     0.14323   0.20613   0.80547   0.00000  Uiso   1.00
C48    C     0.14704   0.31526   0.75825   0.00000  Uiso   1.00
C49    C     0.16986   0.26437   0.71379   0.00000  Uiso   1.00
C50    C     0.16939   0.38300   0.67493   0.00000  Uiso   1.00
C51    C     0.17875   0.52761   0.60078   0.00000  Uiso   1.00
C52    C     0.16677   0.31488   0.84622   0.00000  Uiso   1.00
C53    C     0.20618   0.26364   0.87573   0.00000  Uiso   1.00
C54    C     0.22232   0.38194   0.91093   0.00000  Uiso   1.00
C55    C     0.26229   0.52589   0.97338   0.00000  Uiso   1.00
C56    C     0.08751   0.19466   0.81883   0.00000  Uiso   1.00
C57    C     0.06028   0.04234   0.82532   0.00000  Uiso   1.00
C58    C     0.00969   0.05943   0.83747   0.00000  Uiso   1.00
C59    C     0.92660   0.01672   0.85739   0.00000  Uiso   1.00
C60    C     0.10183   0.50731   0.81551   0.00000  Uiso   1.00
C61    C     0.12455   0.47886   0.76370   0.00000  Uiso   1.00
C62    C     0.12405   0.59760   0.72489   0.00000  Uiso   1.00
C63    C     0.14686   0.54689   0.68039   0.00000  Uiso   1.00
C64    C     0.14429   0.47846   0.85167   0.00000  Uiso   1.00
C65    C     0.16037   0.59686   0.88683   0.00000  Uiso   1.00
C66    C     0.19980   0.54583   0.91639   0.00000  Uiso   1.00
C67    C     0.06502   0.35825   0.82428   0.00000  Uiso   1.00
C68    C     0.01447   0.37557   0.83642   0.00000  Uiso   1.00
C69    C     0.98716   0.22331   0.84293   0.00000  Uiso   1.00
H70    H     0.16074   0.07877   0.80123   0.00000  Uiso   1.00
H71    H     0.18726   0.13776   0.70959   0.00000  Uiso   1.00
H72    H     0.22357   0.13703   0.87151   0.00000  Uiso   1.00
H73    H     0.07769   0.91577   0.82110   0.00000  Uiso   1.00
H74    H     0.20676   0.27534   0.61040   0.00000  Uiso   1.00
H75    H     0.28331   0.27376   0.95182   0.00000  Uiso   1.00
H76    H     0.97570   0.80719   0.84553   0.00000  Uiso   1.00
H77    H     0.08432   0.63468   0.81975   0.00000  Uiso   1.00
H78    H     0.10665   0.72418   0.72912   0.00000  Uiso   1.00
H79    H     0.14296   0.72345   0.89104   0.00000  Uiso   1.00
H80    H     0.99708   0.50219   0.84063   0.00000  Uiso   1.00
H81    H     0.14134   0.75130   0.62625   0.00000  Uiso   1.00
H82    H     0.21789   0.74972   0.96768   0.00000  Uiso   1.00
H83    H     0.91027   0.28315   0.86139   0.00000  Uiso   1.00
O84    O     0.19013   0.56219   0.55838   0.00000  Uiso   1.00
O85    O     0.29056   0.56010   0.00632   0.00000  Uiso   1.00
O86    O     0.88697   0.94797   0.86687   0.00000  Uiso   1.00
N87    N     0.18829   0.37506   0.62656   0.00000  Uiso   1.00
N88    N     0.25987   0.37360   0.94577   0.00000  Uiso   1.00
N89    N     0.97228   0.93739   0.84641   0.00000  Uiso   1.00
N90    N     0.15308   0.63117   0.63509   0.00000  Uiso   1.00
N91    N     0.22466   0.62971   0.95430   0.00000  Uiso   1.00
N92    N     0.93707   0.19350   0.85494   0.00000  Uiso   1.00
C93    C     0.35677   0.70613   0.69453   0.00000  Uiso   1.00
C94    C     0.35296   0.81526   0.74175   0.00000  Uiso   1.00
C95    C     0.33014   0.76437   0.78621   0.00000  Uiso   1.00
C96    C     0.33061   0.88300   0.82507   0.00000  Uiso   1.00
C97    C     0.32125   0.02761   0.89922   0.00000  Uiso   1.00
C98    C     0.33323   0.81488   0.65378   0.00000  Uiso   1.00
C99    C     0.29382   0.76364   0.62427   0.00000  Uiso   1.00
C100   C     0.27768   0.88194   0.58907   0.00000  Uiso   1.00
C101   C     0.23771   0.02589   0.52662   0.00000  Uiso   1.00
C102   C     0.41249   0.69466   0.68117   0.00000  Uiso   1.00
C103   C     0.43972   0.54234   0.67468   0.00000  Uiso   1.00
C104   C     0.49031   0.55943   0.66253   0.00000  Uiso   1.00
C105   C     0.57340   0.51672   0.64261   0.00000  Uiso   1.00
C106   C     0.39817   0.00731   0.68449   0.00000  Uiso   1.00
C107   C     0.37545   0.97886   0.73630   0.00000  Uiso   1.00
C108   C     0.37595   0.09760   0.77511   0.00000  Uiso   1.00
C109   C     0.35314   0.04689   0.81961   0.00000  Uiso   1.00
C110   C     0.35571   0.97846   0.64833   0.00000  Uiso   1.00
C111   C     0.33963   0.09686   0.61317   0.00000  Uiso   1.00
C112   C     0.30020   0.04583   0.58361   0.00000  Uiso   1.00
C113   C     0.43498   0.85825   0.67572   0.00000  Uiso   1.00
C114   C     0.48553   0.87557   0.66358   0.00000  Uiso   1.00
C115   C     0.51284   0.72331   0.65707   0.00000  Uiso   1.00
H116   H     0.33926   0.57877   0.69877   0.00000  Uiso   1.00
H117   H     0.31274   0.63776   0.79041   0.00000  Uiso   1.00
H118   H     0.27643   0.63703   0.62849   0.00000  Uiso   1.00
H119   H     0.42231   0.41577   0.67890   0.00000  Uiso   1.00
H120   H     0.29324   0.77534   0.88960   0.00000  Uiso   1.00
H121   H     0.21669   0.77376   0.54818   0.00000  Uiso   1.00
H122   H     0.52430   0.30719   0.65447   0.00000  Uiso   1.00
H123   H     0.41568   0.13468   0.68025   0.00000  Uiso   1.00
H124   H     0.39335   0.22418   0.77088   0.00000  Uiso   1.00
H125   H     0.35704   0.22345   0.60896   0.00000  Uiso   1.00
H126   H     0.50292   0.00219   0.65937   0.00000  Uiso   1.00
H127   H     0.35866   0.25130   0.87375   0.00000  Uiso   1.00
H128   H     0.28211   0.24972   0.53232   0.00000  Uiso   1.00
H129   H     0.58973   0.78315   0.63861   0.00000  Uiso   1.00
O130   O     0.30987   0.06219   0.94162   0.00000  Uiso   1.00
O131   O     0.20944   0.06010   0.49368   0.00000  Uiso   1.00
O132   O     0.61303   0.44797   0.63313   0.00000  Uiso   1.00
N133   N     0.31171   0.87506   0.87344   0.00000  Uiso   1.00
N134   N     0.24013   0.87360   0.55423   0.00000  Uiso   1.00
N135   N     0.52772   0.43739   0.65359   0.00000  Uiso   1.00
N136   N     0.34692   0.13117   0.86491   0.00000  Uiso   1.00
N137   N     0.27534   0.12971   0.54570   0.00000  Uiso   1.00
N138   N     0.56293   0.69350   0.64506   0.00000  Uiso   1.00
C139   C     0.85677   0.20613   0.69453   0.00000  Uiso   1.00
C140   C     0.85296   0.31526   0.74175   0.00000  Uiso   1.00
C141   C     0.83014   0.26437   0.78621   0.00000  Uiso   1.00
C142   C     0.83061   0.38300   0.82507   0.00000  Uiso   1.00
C143   C     0.82125   0.52761   0.89922   0.00000  Uiso   1.00
C144   C     0.83323   0.31488   0.65378   0.00000  Uiso   1.00
C145   C     0.79382   0.26364   0.62427   0.00000  Uiso   1.00
C146   C     0.77768   0.38194   0.58907   0.00000  Uiso   1.00
C147   C     0.73771   0.52589   0.52662   0.00000  Uiso   1.00
C148   C     0.91249   0.19466   0.68117   0.00000  Uiso   1.00
C149   C     0.93972   0.04234   0.67468   0.00000  Uiso   1.00
C150   C     0.99031   0.05943   0.66253   0.00000  Uiso   1.00
C151   C     0.07340   0.01672   0.64261   0.00000  Uiso   1.00
C152   C     0.89817   0.50731   0.68449   0.00000  Uiso   1.00
C153   C     0.87545   0.47886   0.73630   0.00000  Uiso   1.00
C154   C     0.87595   0.59760   0.77511   0.00000  Uiso   1.00
C155   C     0.85314   0.54689   0.81961   0.00000  Uiso   1.00
C156   C     0.85571   0.47846   0.64833   0.00000  Uiso   1.00
C157   C     0.83963   0.59686   0.61317   0.00000  Uiso   1.00
C158   C     0.80020   0.54583   0.58361   0.00000  Uiso   1.00
C159   C     0.93498   0.35825   0.67572   0.00000  Uiso   1.00
C160   C     0.98553   0.37557   0.66358   0.00000  Uiso   1.00
C161   C     0.01284   0.22331   0.65707   0.00000  Uiso   1.00
H162   H     0.83926   0.07877   0.69877   0.00000  Uiso   1.00
H163   H     0.81274   0.13776   0.79041   0.00000  Uiso   1.00
H164   H     0.77643   0.13703   0.62849   0.00000  Uiso   1.00
H165   H     0.92231   0.91577   0.67890   0.00000  Uiso   1.00
H166   H     0.79324   0.27534   0.88960   0.00000  Uiso   1.00
H167   H     0.71669   0.27376   0.54818   0.00000  Uiso   1.00
H168   H     0.02430   0.80719   0.65447   0.00000  Uiso   1.00
H169   H     0.91568   0.63468   0.68025   0.00000  Uiso   1.00
H170   H     0.89335   0.72418   0.77088   0.00000  Uiso   1.00
H171   H     0.85704   0.72345   0.60896   0.00000  Uiso   1.00
H172   H     0.00292   0.50219   0.65937   0.00000  Uiso   1.00
H173   H     0.85866   0.75130   0.87375   0.00000  Uiso   1.00
H174   H     0.78211   0.74972   0.53232   0.00000  Uiso   1.00
H175   H     0.08973   0.28315   0.63861   0.00000  Uiso   1.00
O176   O     0.80987   0.56219   0.94162   0.00000  Uiso   1.00
O177   O     0.70944   0.56010   0.49368   0.00000  Uiso   1.00
O178   O     0.11303   0.94797   0.63313   0.00000  Uiso   1.00
N179   N     0.81171   0.37506   0.87344   0.00000  Uiso   1.00
N180   N     0.74013   0.37360   0.55423   0.00000  Uiso   1.00
N181   N     0.02772   0.93739   0.65359   0.00000  Uiso   1.00
N182   N     0.84692   0.63117   0.86491   0.00000  Uiso   1.00
N183   N     0.77534   0.62971   0.54570   0.00000  Uiso   1.00
N184   N     0.06293   0.19350   0.64506   0.00000  Uiso   1.00
C185   C     0.35677   0.29387   0.19453   0.00000  Uiso   1.00
C186   C     0.35296   0.18474   0.24175   0.00000  Uiso   1.00
C187   C     0.33014   0.23563   0.28621   0.00000  Uiso   1.00
C188   C     0.33061   0.11700   0.32507   0.00000  Uiso   1.00
C189   C     0.32125   0.97239   0.39922   0.00000  Uiso   1.00
C190   C     0.33323   0.18512   0.15378   0.00000  Uiso   1.00
C191   C     0.29382   0.23636   0.12427   0.00000  Uiso   1.00
C192   C     0.27768   0.11806   0.08907   0.00000  Uiso   1.00
C193   C     0.23771   0.97411   0.02662   0.00000  Uiso   1.00
C194   C     0.41249   0.30534   0.18117   0.00000  Uiso   1.00
C195   C     0.43972   0.45766   0.17468   0.00000  Uiso   1.00
C196   C     0.49031   0.44057   0.16253   0.00000  Uiso   1.00
C197   C     0.57340   0.48328   0.14261   0.00000  Uiso   1.00
C198   C     0.39817   0.99269   0.18449   0.00000  Uiso   1.00
C199   C     0.37545   0.02114   0.23630   0.00000  Uiso   1.00
C200   C     0.37595   0.90240   0.27511   0.00000  Uiso   1.00
C201   C     0.35314   0.95311   0.31961   0.00000  Uiso   1.00
C202   C     0.35571   0.02154   0.14833   0.00000  Uiso   1.00
C203   C     0.33963   0.90314   0.11317   0.00000  Uiso   1.00
C204   C     0.30020   0.95417   0.08361   0.00000  Uiso   1.00
C205   C     0.43498   0.14175   0.17572   0.00000  Uiso   1.00
C206   C     0.48553   0.12443   0.16358   0.00000  Uiso   1.00
C207   C     0.51284   0.27669   0.15707   0.00000  Uiso   1.00
H208   H     0.33926   0.42123   0.19877   0.00000  Uiso   1.00
H209   H     0.31274   0.36224   0.29041   0.00000  Uiso   1.00
H210   H     0.27643   0.36297   0.12849   0.00000  Uiso   1.00
H211   H     0.42231   0.58423   0.17890   0.00000  Uiso   1.00
H212   H     0.29324   0.22466   0.38960   0.00000  Uiso   1.00
H213   H     0.21669   0.22624   0.04818   0.00000  Uiso   1.00
H214   H     0.52430   0.69281   0.15447   0.00000  Uiso   1.00
H215   H     0.41568   0.86532   0.18025   0.00000  Uiso   1.00
H216   H     0.39335   0.77582   0.27088   0.00000  Uiso   1.00
H217   H     0.35704   0.77655   0.10896   0.00000  Uiso   1.00
H218   H     0.50292   0.99781   0.15937   0.00000  Uiso   1.00
H219   H     0.35866   0.74870   0.37375   0.00000  Uiso   1.00
H220   H     0.28211   0.75028   0.03232   0.00000  Uiso   1.00
H221   H     0.58973   0.21685   0.13861   0.00000  Uiso   1.00
O222   O     0.30987   0.93781   0.44162   0.00000  Uiso   1.00
O223   O     0.20944   0.93990   0.99368   0.00000  Uiso   1.00
O224   O     0.61303   0.55203   0.13313   0.00000  Uiso   1.00
N225   N     0.31171   0.12494   0.37344   0.00000  Uiso   1.00
N226   N     0.24013   0.12640   0.05423   0.00000  Uiso   1.00
N227   N     0.52772   0.56261   0.15359   0.00000  Uiso   1.00
N228   N     0.34692   0.86883   0.36491   0.00000  Uiso   1.00
N229   N     0.27534   0.87029   0.04570   0.00000  Uiso   1.00
N230   N     0.56293   0.30650   0.14506   0.00000  Uiso   1.00
C231   C     0.85677   0.79387   0.19453   0.00000  Uiso   1.00
C232   C     0.85296   0.68474   0.24175   0.00000  Uiso   1.00
C233   C     0.83014   0.73563   0.28621   0.00000  Uiso   1.00
C234   C     0.83061   0.61700   0.32507   0.00000  Uiso   1.00
C235   C     0.82125   0.47239   0.39922   0.00000  Uiso   1.00
C236   C     0.83323   0.68512   0.15378   0.00000  Uiso   1.00
C237   C     0.79382   0.73636   0.12427   0.00000  Uiso   1.00
C238   C     0.77768   0.61806   0.08907   0.00000  Uiso   1.00
C239   C     0.73771   0.47411   0.02662   0.00000  Uiso   1.00
C240   C     0.91249   0.80534   0.18117   0.00000  Uiso   1.00
C241   C     0.93972   0.95766   0.17468   0.00000  Uiso   1.00
C242   C     0.99031   0.94057   0.16253   0.00000  Uiso   1.00
C243   C     0.07340   0.98328   0.14261   0.00000  Uiso   1.00
C244   C     0.89817   0.49269   0.18449   0.00000  Uiso   1.00
C245   C     0.87545   0.52114   0.23630   0.00000  Uiso   1.00
C246   C     0.87595   0.40240   0.27511   0.00000  Uiso   1.00
C247   C     0.85314   0.45311   0.31961   0.00000  Uiso   1.00
C248   C     0.85571   0.52154   0.14833   0.00000  Uiso   1.00
C249   C     0.83963   0.40314   0.11317   0.00000  Uiso   1.00
C250   C     0.80020   0.45417   0.08361   0.00000  Uiso   1.00
C251   C     0.93498   0.64175   0.17572   0.00000  Uiso   1.00
C252   C     0.98553   0.62443   0.16358   0.00000  Uiso   1.00
C253   C     0.01284   0.77669   0.15707   0.00000  Uiso   1.00
H254   H     0.83926   0.92123   0.19877   0.00000  Uiso   1.00
H255   H     0.81274   0.86224   0.29041   0.00000  Uiso   1.00
H256   H     0.77643   0.86297   0.12849   0.00000  Uiso   1.00
H257   H     0.92231   0.08423   0.17890   0.00000  Uiso   1.00
H258   H     0.79324   0.72466   0.38960   0.00000  Uiso   1.00
H259   H     0.71669   0.72624   0.04818   0.00000  Uiso   1.00
H260   H     0.02430   0.19281   0.15447   0.00000  Uiso   1.00
H261   H     0.91568   0.36532   0.18025   0.00000  Uiso   1.00
H262   H     0.89335   0.27582   0.27088   0.00000  Uiso   1.00
H263   H     0.85704   0.27655   0.10896   0.00000  Uiso   1.00
H264   H     0.00292   0.49781   0.15937   0.00000  Uiso   1.00
H265   H     0.85866   0.24870   0.37375   0.00000  Uiso   1.00
H266   H     0.78211   0.25028   0.03232   0.00000  Uiso   1.00
H267   H     0.08973   0.71685   0.13861   0.00000  Uiso   1.00
O268   O     0.80987   0.43781   0.44162   0.00000  Uiso   1.00
O269   O     0.70944   0.43990   0.99368   0.00000  Uiso   1.00
O270   O     0.11303   0.05203   0.13313   0.00000  Uiso   1.00
N271   N     0.81171   0.62494   0.37344   0.00000  Uiso   1.00
N272   N     0.74013   0.62640   0.05423   0.00000  Uiso   1.00
N273   N     0.02772   0.06261   0.15359   0.00000  Uiso   1.00
N274   N     0.84692   0.36883   0.36491   0.00000  Uiso   1.00
N275   N     0.77534   0.37029   0.04570   0.00000  Uiso   1.00
N276   N     0.06293   0.80650   0.14506   0.00000  Uiso   1.00
C277   C     0.64323   0.29387   0.30547   0.00000  Uiso   1.00
C278   C     0.64704   0.18474   0.25825   0.00000  Uiso   1.00
C279   C     0.66986   0.23563   0.21379   0.00000  Uiso   1.00
C280   C     0.66939   0.11700   0.17493   0.00000  Uiso   1.00
C281   C     0.67875   0.97239   0.10078   0.00000  Uiso   1.00
C282   C     0.66677   0.18512   0.34622   0.00000  Uiso   1.00
C283   C     0.70618   0.23636   0.37573   0.00000  Uiso   1.00
C284   C     0.72232   0.11806   0.41093   0.00000  Uiso   1.00
C285   C     0.76229   0.97411   0.47338   0.00000  Uiso   1.00
C286   C     0.58751   0.30534   0.31883   0.00000  Uiso   1.00
C287   C     0.56028   0.45766   0.32532   0.00000  Uiso   1.00
C288   C     0.50969   0.44057   0.33747   0.00000  Uiso   1.00
C289   C     0.42660   0.48328   0.35739   0.00000  Uiso   1.00
C290   C     0.60183   0.99269   0.31551   0.00000  Uiso   1.00
C291   C     0.62455   0.02114   0.26370   0.00000  Uiso   1.00
C292   C     0.62405   0.90240   0.22489   0.00000  Uiso   1.00
C293   C     0.64686   0.95311   0.18039   0.00000  Uiso   1.00
C294   C     0.64429   0.02154   0.35167   0.00000  Uiso   1.00
C295   C     0.66037   0.90314   0.38683   0.00000  Uiso   1.00
C296   C     0.69980   0.95417   0.41639   0.00000  Uiso   1.00
C297   C     0.56502   0.14175   0.32428   0.00000  Uiso   1.00
C298   C     0.51447   0.12443   0.33642   0.00000  Uiso   1.00
C299   C     0.48716   0.27669   0.34293   0.00000  Uiso   1.00
H300   H     0.66074   0.42123   0.30123   0.00000  Uiso   1.00
H301   H     0.68726   0.36224   0.20959   0.00000  Uiso   1.00
H302   H     0.72357   0.36297   0.37151   0.00000  Uiso   1.00
H303   H     0.57769   0.58423   0.32110   0.00000  Uiso   1.00
H304   H     0.70676   0.22466   0.11040   0.00000  Uiso   1.00
H305   H     0.78331   0.22624   0.45182   0.00000  Uiso   1.00
H306   H     0.47570   0.69281   0.34553   0.00000  Uiso   1.00
H307   H     0.58432   0.86532   0.31975   0.00000  Uiso   1.00
H308   H     0.60665   0.77582   0.22912   0.00000  Uiso   1.00
H309   H     0.64296   0.77655   0.39104   0.00000  Uiso   1.00
H310   H     0.49708   0.99781   0.34063   0.00000  Uiso   1.00
H311   H     0.64134   0.74870   0.12625   0.00000  Uiso   1.00
H312   H     0.71789   0.75028   0.46768   0.00000  Uiso   1.00
H313   H     0.41027   0.21685   0.36139   0.00000  Uiso   1.00
O314   O     0.69013   0.93781   0.05838   0.00000  Uiso   1.00
O315   O     0.79056   0.93990   0.50632   0.00000  Uiso   1.00
O316   O     0.38697   0.55203   0.36687   0.00000  Uiso   1.00
N317   N     0.68829   0.12494   0.12656   0.00000  Uiso   1.00
N318   N     0.75987   0.12640   0.44577   0.00000  Uiso   1.00
N319   N     0.47228   0.56261   0.34641   0.00000  Uiso   1.00
N320   N     0.65308   0.86883   0.13509   0.00000  Uiso   1.00
N321   N     0.72466   0.87029   0.45430   0.00000  Uiso   1.00
N322   N     0.43707   0.30650   0.35494   0.00000  Uiso   1.00
C323   C     0.14323   0.79387   0.30547   0.00000  Uiso   1.00
C324   C     0.14704   0.68474   0.25825   0.00000  Uiso   1.00
C325   C     0.16986   0.73563   0.21379   0.00000  Uiso   1.00
C326   C     0.16939   0.61700   0.17493   0.00000  Uiso   1.00
C327   C     0.17875   0.47239   0.10078   0.00000  Uiso   1.00
C328   C     0.16677   0.68512   0.34622   0.00000  Uiso   1.00
C329   C     0.20618   0.73636   0.37573   0.00000  Uiso   1.00
C330   C     0.22232   0.61806   0.41093   0.00000  Uiso   1.00
C331   C     0.26229   0.47411   0.47338   0.00000  Uiso   1.00
C332   C     0.08751   0.80534   0.31883   0.00000  Uiso   1.00
C333   C     0.06028   0.95766   0.32532   0.00000  Uiso   1.00
C334   C     0.00969   0.94057   0.33747   0.00000  Uiso   1.00
C335   C     0.92660   0.98328   0.35739   0.00000  Uiso   1.00
C336   C     0.10183   0.49269   0.31551   0.00000  Uiso   1.00
C337   C     0.12455   0.52114   0.26370   0.00000  Uiso   1.00
C338   C     0.12405   0.40240   0.22489   0.00000  Uiso   1.00
C339   C     0.14686   0.45311   0.18039   0.00000  Uiso   1.00
C340   C     0.14429   0.52154   0.35167   0.00000  Uiso   1.00
C341   C     0.16037   0.40314   0.38683   0.00000  Uiso   1.00
C342   C     0.19980   0.45417   0.41639   0.00000  Uiso   1.00
C343   C     0.06502   0.64175   0.32428   0.00000  Uiso   1.00
C344   C     0.01447   0.62443   0.33642   0.00000  Uiso   1.00
C345   C     0.98716   0.77669   0.34293   0.00000  Uiso   1.00
H346   H     0.16074   0.92123   0.30123   0.00000  Uiso   1.00
H347   H     0.18726   0.86224   0.20959   0.00000  Uiso   1.00
H348   H     0.22357   0.86297   0.37151   0.00000  Uiso   1.00
H349   H     0.07769   0.08423   0.32110   0.00000  Uiso   1.00
H350   H     0.20676   0.72466   0.11040   0.00000  Uiso   1.00
H351   H     0.28331   0.72624   0.45182   0.00000  Uiso   1.00
H352   H     0.97570   0.19281   0.34553   0.00000  Uiso   1.00
H353   H     0.08432   0.36532   0.31975   0.00000  Uiso   1.00
H354   H     0.10665   0.27582   0.22912   0.00000  Uiso   1.00
H355   H     0.14296   0.27655   0.39104   0.00000  Uiso   1.00
H356   H     0.99708   0.49781   0.34063   0.00000  Uiso   1.00
H357   H     0.14134   0.24870   0.12625   0.00000  Uiso   1.00
H358   H     0.21789   0.25028   0.46768   0.00000  Uiso   1.00
H359   H     0.91027   0.71685   0.36139   0.00000  Uiso   1.00
O360   O     0.19013   0.43781   0.05838   0.00000  Uiso   1.00
O361   O     0.29056   0.43990   0.50632   0.00000  Uiso   1.00
O362   O     0.88697   0.05203   0.36687   0.00000  Uiso   1.00
N363   N     0.18829   0.62494   0.12656   0.00000  Uiso   1.00
N364   N     0.25987   0.62640   0.44577   0.00000  Uiso   1.00
N365   N     0.97228   0.06261   0.34641   0.00000  Uiso   1.00
N366   N     0.15308   0.36883   0.13509   0.00000  Uiso   1.00
N367   N     0.22466   0.37029   0.45430   0.00000  Uiso   1.00
N368   N     0.93707   0.80650   0.35494   0.00000  Uiso   1.00
