data_job_02526
_audit_creation_date              2018-12-19
_audit_creation_method            'Materials Studio'
_symmetry_space_group_name_H-M    'P1'
_symmetry_Int_Tables_number       1
_symmetry_cell_setting            triclinic
loop_
_symmetry_equiv_pos_as_xyz
  x,y,z
_cell_length_a                    12.6631
_cell_length_b                    18.3093
_cell_length_c                    24.2445
_cell_angle_alpha                 90.0000
_cell_angle_beta                  140.6629
_cell_angle_gamma                 90.0000
loop_
_atom_site_label
_atom_site_type_symbol
_atom_site_fract_x
_atom_site_fract_y
_atom_site_fract_z
_atom_site_U_iso_or_equiv
_atom_site_adp_type
_atom_site_occupancy
C1     C     0.08716   0.96412   0.18465   0.00000  Uiso   1.00
C2     C     0.26118   0.95225   0.23135   0.00000  Uiso   1.00
C3     C     0.31407   0.89097   0.22395   0.00000  Uiso   1.00
C4     C     0.47810   0.89059   0.27203   0.00000  Uiso   1.00
C5     C     0.73203   0.86319   0.33645   0.00000  Uiso   1.00
C6     C     0.11104   0.97881   0.25570   0.00000  Uiso   1.00
C7     C     0.03767   0.93987   0.26874   0.00000  Uiso   1.00
C8     C     0.07528   0.96186   0.33731   0.00000  Uiso   1.00
C9     C     0.09601   0.97573   0.43948   0.00000  Uiso   1.00
C10    C     0.02445   0.03551   0.13445   0.00000  Uiso   1.00
C11    C     0.87824   0.04425   0.04555   0.00000  Uiso   1.00
C12    C     0.84294   0.11397   0.01204   0.00000  Uiso   1.00
C13    C     0.72922   0.21588   0.92595   0.00000  Uiso   1.00
C14    C     0.28440   0.07241   0.28322   0.00000  Uiso   1.00
C15    C     0.36831   0.01107   0.28490   0.00000  Uiso   1.00
C16    C     0.53229   0.01078   0.33300   0.00000  Uiso   1.00
C17    C     0.58542   0.94951   0.32566   0.00000  Uiso   1.00
C18    C     0.21816   0.03763   0.30924   0.00000  Uiso   1.00
C19    C     0.25588   0.05968   0.37780   0.00000  Uiso   1.00
C20    C     0.18260   0.02078   0.39095   0.00000  Uiso   1.00
C21    C     0.13157   0.09433   0.18799   0.00000  Uiso   1.00
C22    C     0.09647   0.16406   0.15461   0.00000  Uiso   1.00
C23    C     0.95026   0.17290   0.06568   0.00000  Uiso   1.00
H24    H     0.00376   0.91833   0.14297   0.00000  Uiso   1.00
H25    H     0.23113   0.84546   0.18251   0.00000  Uiso   1.00
H26    H     0.95476   0.89436   0.22729   0.00000  Uiso   1.00
H27    H     0.79538   0.99872   0.00414   0.00000  Uiso   1.00
H28    H     0.53049   0.79060   0.24999   0.00000  Uiso   1.00
H29    H     0.94768   0.89372   0.34440   0.00000  Uiso   1.00
H30    H     0.61158   0.11378   0.87383   0.00000  Uiso   1.00
H31    H     0.36781   0.11821   0.32490   0.00000  Uiso   1.00
H32    H     0.61517   0.05631   0.37443   0.00000  Uiso   1.00
H33    H     0.33879   0.10521   0.41921   0.00000  Uiso   1.00
H34    H     0.17940   0.20956   0.19606   0.00000  Uiso   1.00
H35    H     0.84218   0.96173   0.40576   0.00000  Uiso   1.00
H36    H     0.25937   0.06485   0.50017   0.00000  Uiso   1.00
H37    H     0.92328   0.28491   0.02960   0.00000  Uiso   1.00
O38    O     0.84250   0.83183   0.35719   0.00000  Uiso   1.00
O39    O     0.07786   0.96713   0.48104   0.00000  Uiso   1.00
O40    O     0.63692   0.25584   0.86367   0.00000  Uiso   1.00
N41    N     0.56989   0.83937   0.27984   0.00000  Uiso   1.00
N42    N     0.02502   0.93578   0.36811   0.00000  Uiso   1.00
N43    N     0.71078   0.14152   0.92818   0.00000  Uiso   1.00
N44    N     0.73761   0.93146   0.36366   0.00000  Uiso   1.00
N45    N     0.19274   0.02787   0.45193   0.00000  Uiso   1.00
N46    N     0.87850   0.23361   0.01200   0.00000  Uiso   1.00
C47    C     0.91284   0.46412   0.31535   0.00000  Uiso   1.00
C48    C     0.73882   0.45225   0.26865   0.00000  Uiso   1.00
C49    C     0.68593   0.39097   0.27605   0.00000  Uiso   1.00
C50    C     0.52190   0.39059   0.22797   0.00000  Uiso   1.00
C51    C     0.26797   0.36319   0.16355   0.00000  Uiso   1.00
C52    C     0.88896   0.47881   0.24430   0.00000  Uiso   1.00
C53    C     0.96233   0.43987   0.23126   0.00000  Uiso   1.00
C54    C     0.92472   0.46186   0.16269   0.00000  Uiso   1.00
C55    C     0.90399   0.47573   0.06052   0.00000  Uiso   1.00
C56    C     0.97555   0.53551   0.36555   0.00000  Uiso   1.00
C57    C     0.12176   0.54425   0.45445   0.00000  Uiso   1.00
C58    C     0.15706   0.61397   0.48796   0.00000  Uiso   1.00
C59    C     0.27078   0.71588   0.57405   0.00000  Uiso   1.00
C60    C     0.71560   0.57241   0.21678   0.00000  Uiso   1.00
C61    C     0.63169   0.51107   0.21510   0.00000  Uiso   1.00
C62    C     0.46771   0.51078   0.16700   0.00000  Uiso   1.00
C63    C     0.41458   0.44951   0.17434   0.00000  Uiso   1.00
C64    C     0.78184   0.53763   0.19076   0.00000  Uiso   1.00
C65    C     0.74412   0.55968   0.12220   0.00000  Uiso   1.00
C66    C     0.81740   0.52078   0.10905   0.00000  Uiso   1.00
C67    C     0.86843   0.59433   0.31201   0.00000  Uiso   1.00
C68    C     0.90353   0.66406   0.34539   0.00000  Uiso   1.00
C69    C     0.04974   0.67290   0.43432   0.00000  Uiso   1.00
H70    H     0.99624   0.41833   0.35703   0.00000  Uiso   1.00
H71    H     0.76887   0.34546   0.31749   0.00000  Uiso   1.00
H72    H     0.04524   0.39436   0.27271   0.00000  Uiso   1.00
H73    H     0.20462   0.49872   0.49586   0.00000  Uiso   1.00
H74    H     0.46951   0.29060   0.25001   0.00000  Uiso   1.00
H75    H     0.05232   0.39372   0.15560   0.00000  Uiso   1.00
H76    H     0.38842   0.61378   0.62617   0.00000  Uiso   1.00
H77    H     0.63219   0.61821   0.17510   0.00000  Uiso   1.00
H78    H     0.38483   0.55631   0.12557   0.00000  Uiso   1.00
H79    H     0.66121   0.60521   0.08079   0.00000  Uiso   1.00
H80    H     0.82060   0.70956   0.30394   0.00000  Uiso   1.00
H81    H     0.15782   0.46173   0.09424   0.00000  Uiso   1.00
H82    H     0.74063   0.56485   0.99983   0.00000  Uiso   1.00
H83    H     0.07672   0.78491   0.47040   0.00000  Uiso   1.00
O84    O     0.15750   0.33183   0.14281   0.00000  Uiso   1.00
O85    O     0.92214   0.46713   0.01896   0.00000  Uiso   1.00
O86    O     0.36308   0.75584   0.63633   0.00000  Uiso   1.00
N87    N     0.43011   0.33937   0.22016   0.00000  Uiso   1.00
N88    N     0.97498   0.43578   0.13189   0.00000  Uiso   1.00
N89    N     0.28922   0.64152   0.57182   0.00000  Uiso   1.00
N90    N     0.26239   0.43146   0.13634   0.00000  Uiso   1.00
N91    N     0.80726   0.52787   0.04807   0.00000  Uiso   1.00
N92    N     0.12150   0.73361   0.48800   0.00000  Uiso   1.00
C93    C     0.91284   0.03588   0.81535   0.00000  Uiso   1.00
C94    C     0.73882   0.04775   0.76865   0.00000  Uiso   1.00
C95    C     0.68593   0.10903   0.77605   0.00000  Uiso   1.00
C96    C     0.52190   0.10941   0.72797   0.00000  Uiso   1.00
C97    C     0.26797   0.13681   0.66355   0.00000  Uiso   1.00
C98    C     0.88896   0.02119   0.74430   0.00000  Uiso   1.00
C99    C     0.96233   0.06013   0.73126   0.00000  Uiso   1.00
C100   C     0.92472   0.03814   0.66269   0.00000  Uiso   1.00
C101   C     0.90399   0.02427   0.56052   0.00000  Uiso   1.00
C102   C     0.97555   0.96449   0.86555   0.00000  Uiso   1.00
C103   C     0.12176   0.95575   0.95445   0.00000  Uiso   1.00
C104   C     0.15706   0.88603   0.98796   0.00000  Uiso   1.00
C105   C     0.27078   0.78412   0.07405   0.00000  Uiso   1.00
C106   C     0.71560   0.92759   0.71678   0.00000  Uiso   1.00
C107   C     0.63169   0.98893   0.71510   0.00000  Uiso   1.00
C108   C     0.46771   0.98922   0.66700   0.00000  Uiso   1.00
C109   C     0.41458   0.05049   0.67434   0.00000  Uiso   1.00
C110   C     0.78184   0.96237   0.69076   0.00000  Uiso   1.00
C111   C     0.74412   0.94032   0.62220   0.00000  Uiso   1.00
C112   C     0.81740   0.97922   0.60905   0.00000  Uiso   1.00
C113   C     0.86843   0.90567   0.81201   0.00000  Uiso   1.00
C114   C     0.90353   0.83594   0.84539   0.00000  Uiso   1.00
C115   C     0.04974   0.82710   0.93432   0.00000  Uiso   1.00
H116   H     0.99624   0.08167   0.85703   0.00000  Uiso   1.00
H117   H     0.76887   0.15454   0.81749   0.00000  Uiso   1.00
H118   H     0.04524   0.10564   0.77271   0.00000  Uiso   1.00
H119   H     0.20462   0.00128   0.99586   0.00000  Uiso   1.00
H120   H     0.46951   0.20940   0.75001   0.00000  Uiso   1.00
H121   H     0.05232   0.10628   0.65560   0.00000  Uiso   1.00
H122   H     0.38842   0.88622   0.12617   0.00000  Uiso   1.00
H123   H     0.63219   0.88179   0.67510   0.00000  Uiso   1.00
H124   H     0.38483   0.94369   0.62557   0.00000  Uiso   1.00
H125   H     0.66121   0.89479   0.58079   0.00000  Uiso   1.00
H126   H     0.82060   0.79044   0.80394   0.00000  Uiso   1.00
H127   H     0.15782   0.03827   0.59424   0.00000  Uiso   1.00
H128   H     0.74063   0.93515   0.49983   0.00000  Uiso   1.00
H129   H     0.07672   0.71509   0.97040   0.00000  Uiso   1.00
O130   O     0.15750   0.16817   0.64281   0.00000  Uiso   1.00
O131   O     0.92214   0.03287   0.51896   0.00000  Uiso   1.00
O132   O     0.36308   0.74416   0.13633   0.00000  Uiso   1.00
N133   N     0.43011   0.16063   0.72016   0.00000  Uiso   1.00
N134   N     0.97498   0.06422   0.63189   0.00000  Uiso   1.00
N135   N     0.28922   0.85848   0.07182   0.00000  Uiso   1.00
N136   N     0.26239   0.06854   0.63634   0.00000  Uiso   1.00
N137   N     0.80726   0.97213   0.54807   0.00000  Uiso   1.00
N138   N     0.12150   0.76639   0.98800   0.00000  Uiso   1.00
C139   C     0.08716   0.53588   0.68465   0.00000  Uiso   1.00
C140   C     0.26118   0.54775   0.73135   0.00000  Uiso   1.00
C141   C     0.31407   0.60903   0.72395   0.00000  Uiso   1.00
C142   C     0.47810   0.60941   0.77203   0.00000  Uiso   1.00
C143   C     0.73203   0.63681   0.83645   0.00000  Uiso   1.00
C144   C     0.11104   0.52119   0.75570   0.00000  Uiso   1.00
C145   C     0.03767   0.56013   0.76874   0.00000  Uiso   1.00
C146   C     0.07528   0.53814   0.83731   0.00000  Uiso   1.00
C147   C     0.09601   0.52427   0.93948   0.00000  Uiso   1.00
C148   C     0.02445   0.46449   0.63445   0.00000  Uiso   1.00
C149   C     0.87824   0.45575   0.54555   0.00000  Uiso   1.00
C150   C     0.84294   0.38603   0.51204   0.00000  Uiso   1.00
C151   C     0.72922   0.28412   0.42595   0.00000  Uiso   1.00
C152   C     0.28440   0.42759   0.78322   0.00000  Uiso   1.00
C153   C     0.36831   0.48893   0.78490   0.00000  Uiso   1.00
C154   C     0.53229   0.48922   0.83300   0.00000  Uiso   1.00
C155   C     0.58542   0.55049   0.82566   0.00000  Uiso   1.00
C156   C     0.21816   0.46237   0.80924   0.00000  Uiso   1.00
C157   C     0.25588   0.44032   0.87780   0.00000  Uiso   1.00
C158   C     0.18260   0.47922   0.89095   0.00000  Uiso   1.00
C159   C     0.13157   0.40567   0.68799   0.00000  Uiso   1.00
C160   C     0.09647   0.33594   0.65461   0.00000  Uiso   1.00
C161   C     0.95026   0.32710   0.56568   0.00000  Uiso   1.00
H162   H     0.00376   0.58167   0.64297   0.00000  Uiso   1.00
H163   H     0.23113   0.65454   0.68251   0.00000  Uiso   1.00
H164   H     0.95476   0.60564   0.72729   0.00000  Uiso   1.00
H165   H     0.79538   0.50128   0.50414   0.00000  Uiso   1.00
H166   H     0.53049   0.70940   0.74999   0.00000  Uiso   1.00
H167   H     0.94768   0.60628   0.84440   0.00000  Uiso   1.00
H168   H     0.61158   0.38622   0.37383   0.00000  Uiso   1.00
H169   H     0.36781   0.38179   0.82490   0.00000  Uiso   1.00
H170   H     0.61517   0.44369   0.87443   0.00000  Uiso   1.00
H171   H     0.33879   0.39479   0.91921   0.00000  Uiso   1.00
H172   H     0.17940   0.29044   0.69606   0.00000  Uiso   1.00
H173   H     0.84218   0.53827   0.90576   0.00000  Uiso   1.00
H174   H     0.25937   0.43515   0.00017   0.00000  Uiso   1.00
H175   H     0.92328   0.21509   0.52960   0.00000  Uiso   1.00
O176   O     0.84250   0.66817   0.85719   0.00000  Uiso   1.00
O177   O     0.07786   0.53287   0.98104   0.00000  Uiso   1.00
O178   O     0.63692   0.24416   0.36367   0.00000  Uiso   1.00
N179   N     0.56989   0.66063   0.77984   0.00000  Uiso   1.00
N180   N     0.02502   0.56422   0.86811   0.00000  Uiso   1.00
N181   N     0.71078   0.35848   0.42818   0.00000  Uiso   1.00
N182   N     0.73761   0.56854   0.86366   0.00000  Uiso   1.00
N183   N     0.19274   0.47213   0.95193   0.00000  Uiso   1.00
N184   N     0.87850   0.26639   0.51200   0.00000  Uiso   1.00
