data_job_05022
_audit_creation_date              2018-12-19
_audit_creation_method            'Materials Studio'
_symmetry_space_group_name_H-M    'P1'
_symmetry_Int_Tables_number       1
_symmetry_cell_setting            triclinic
loop_
_symmetry_equiv_pos_as_xyz
  x,y,z
_cell_length_a                    22.4692
_cell_length_b                    22.4692
_cell_length_c                    8.2144
_cell_angle_alpha                 90.0000
_cell_angle_beta                  90.0000
_cell_angle_gamma                 120.0000
loop_
_atom_site_label
_atom_site_type_symbol
_atom_site_fract_x
_atom_site_fract_y
_atom_site_fract_z
_atom_site_U_iso_or_equiv
_atom_site_adp_type
_atom_site_occupancy
C1     C     0.58284   0.83646   0.83138   0.00000  Uiso   1.00
C2     C     0.58846   0.77193   0.81244   0.00000  Uiso   1.00
C3     C     0.57198   0.72187   0.93046   0.00000  Uiso   1.00
C4     C     0.58069   0.66676   0.88942   0.00000  Uiso   1.00
C5     C     0.58575   0.56731   0.88341   0.00000  Uiso   1.00
C6     C     0.65417   0.89685   0.79473   0.00000  Uiso   1.00
C7     C     0.69292   0.95183   0.89787   0.00000  Uiso   1.00
C8     C     0.75694   0.00188   0.84190   0.00000  Uiso   1.00
C9     C     0.86398   0.09640   0.80835   0.00000  Uiso   1.00
C10    C     0.53661   0.83454   0.69318   0.00000  Uiso   1.00
C11    C     0.47652   0.83715   0.71092   0.00000  Uiso   1.00
C12    C     0.44158   0.83476   0.56945   0.00000  Uiso   1.00
C13    C     0.36609   0.83254   0.37823   0.00000  Uiso   1.00
C14    C     0.62763   0.82762   0.54859   0.00000  Uiso   1.00
C15    C     0.61279   0.76713   0.65884   0.00000  Uiso   1.00
C16    C     0.62153   0.71208   0.61760   0.00000  Uiso   1.00
C17    C     0.60506   0.66195   0.73555   0.00000  Uiso   1.00
C18    C     0.67849   0.89205   0.64114   0.00000  Uiso   1.00
C19    C     0.74247   0.94204   0.58500   0.00000  Uiso   1.00
C20    C     0.78131   0.99707   0.68803   0.00000  Uiso   1.00
C21    C     0.56093   0.82974   0.53958   0.00000  Uiso   1.00
C22    C     0.52607   0.82736   0.39806   0.00000  Uiso   1.00
C23    C     0.46595   0.82995   0.41558   0.00000  Uiso   1.00
H24    H     0.56391   0.84020   0.95095   0.00000  Uiso   1.00
H25    H     0.55316   0.72561   0.04932   0.00000  Uiso   1.00
H26    H     0.67408   0.95553   0.01671   0.00000  Uiso   1.00
H27    H     0.45772   0.84086   0.82980   0.00000  Uiso   1.00
H28    H     0.55200   0.59645   0.09066   0.00000  Uiso   1.00
H29    H     0.80695   0.08127   0.02189   0.00000  Uiso   1.00
H30    H     0.35070   0.83948   0.62774   0.00000  Uiso   1.00
H31    H     0.64657   0.82388   0.42901   0.00000  Uiso   1.00
H32    H     0.64035   0.70838   0.49873   0.00000  Uiso   1.00
H33    H     0.76127   0.93831   0.46613   0.00000  Uiso   1.00
H34    H     0.54491   0.82364   0.27922   0.00000  Uiso   1.00
H35    H     0.62277   0.58247   0.64379   0.00000  Uiso   1.00
H36    H     0.87772   0.06729   0.57501   0.00000  Uiso   1.00
H37    H     0.42147   0.82550   0.18087   0.00000  Uiso   1.00
O38    O     0.58182   0.51378   0.92253   0.00000  Uiso   1.00
O39    O     0.91630   0.14986   0.83229   0.00000  Uiso   1.00
O40    O     0.31772   0.83263   0.31518   0.00000  Uiso   1.00
N41    N     0.56949   0.60900   0.97591   0.00000  Uiso   1.00
N42    N     0.80786   0.06227   0.91162   0.00000  Uiso   1.00
N43    N     0.38132   0.83624   0.54312   0.00000  Uiso   1.00
N44    N     0.60757   0.60148   0.73545   0.00000  Uiso   1.00
N45    N     0.84594   0.05475   0.67116   0.00000  Uiso   1.00
N46    N     0.41940   0.82872   0.30266   0.00000  Uiso   1.00
C47    C     0.16354   0.74638   0.83138   0.00000  Uiso   1.00
C48    C     0.22807   0.81653   0.81244   0.00000  Uiso   1.00
C49    C     0.27813   0.85011   0.93046   0.00000  Uiso   1.00
C50    C     0.33324   0.91393   0.88942   0.00000  Uiso   1.00
C51    C     0.43269   0.01844   0.88341   0.00000  Uiso   1.00
C52    C     0.10315   0.75731   0.79473   0.00000  Uiso   1.00
C53    C     0.04817   0.74110   0.89787   0.00000  Uiso   1.00
C54    C     0.99812   0.75506   0.84190   0.00000  Uiso   1.00
C55    C     0.90360   0.76758   0.80835   0.00000  Uiso   1.00
C56    C     0.16546   0.70206   0.69318   0.00000  Uiso   1.00
C57    C     0.16285   0.63938   0.71092   0.00000  Uiso   1.00
C58    C     0.16524   0.60681   0.56945   0.00000  Uiso   1.00
C59    C     0.16746   0.53355   0.37823   0.00000  Uiso   1.00
C60    C     0.17238   0.80001   0.54859   0.00000  Uiso   1.00
C61    C     0.23287   0.84566   0.65884   0.00000  Uiso   1.00
C62    C     0.28792   0.90944   0.61760   0.00000  Uiso   1.00
C63    C     0.33805   0.94311   0.73555   0.00000  Uiso   1.00
C64    C     0.10795   0.78644   0.64114   0.00000  Uiso   1.00
C65    C     0.05796   0.80043   0.58500   0.00000  Uiso   1.00
C66    C     0.00293   0.78424   0.68803   0.00000  Uiso   1.00
C67    C     0.17026   0.73119   0.53958   0.00000  Uiso   1.00
C68    C     0.17264   0.69871   0.39806   0.00000  Uiso   1.00
C69    C     0.17005   0.63599   0.41558   0.00000  Uiso   1.00
H70    H     0.15980   0.72371   0.95095   0.00000  Uiso   1.00
H71    H     0.27439   0.82756   0.04932   0.00000  Uiso   1.00
H72    H     0.04447   0.71855   0.01671   0.00000  Uiso   1.00
H73    H     0.15914   0.61685   0.82980   0.00000  Uiso   1.00
H74    H     0.40355   0.95555   0.09066   0.00000  Uiso   1.00
H75    H     0.91873   0.72568   0.02189   0.00000  Uiso   1.00
H76    H     0.16052   0.51123   0.62774   0.00000  Uiso   1.00
H77    H     0.17612   0.82269   0.42901   0.00000  Uiso   1.00
H78    H     0.29162   0.93197   0.49873   0.00000  Uiso   1.00
H79    H     0.06169   0.82296   0.46613   0.00000  Uiso   1.00
H80    H     0.17636   0.72127   0.27922   0.00000  Uiso   1.00
H81    H     0.41753   0.04030   0.64379   0.00000  Uiso   1.00
H82    H     0.93271   0.81043   0.57501   0.00000  Uiso   1.00
H83    H     0.17450   0.59598   0.18087   0.00000  Uiso   1.00
O84    O     0.48622   0.06804   0.92253   0.00000  Uiso   1.00
O85    O     0.85014   0.76645   0.83229   0.00000  Uiso   1.00
O86    O     0.16737   0.48509   0.31518   0.00000  Uiso   1.00
N87    N     0.39100   0.96049   0.97591   0.00000  Uiso   1.00
N88    N     0.93773   0.74559   0.91162   0.00000  Uiso   1.00
N89    N     0.16376   0.54508   0.54312   0.00000  Uiso   1.00
N90    N     0.39852   0.00609   0.73545   0.00000  Uiso   1.00
N91    N     0.94525   0.79119   0.67116   0.00000  Uiso   1.00
N92    N     0.17128   0.59068   0.30266   0.00000  Uiso   1.00
C93    C     0.25362   0.41716   0.83138   0.00000  Uiso   1.00
C94    C     0.18347   0.41154   0.81244   0.00000  Uiso   1.00
C95    C     0.14989   0.42802   0.93046   0.00000  Uiso   1.00
C96    C     0.08607   0.41931   0.88942   0.00000  Uiso   1.00
C97    C     0.98156   0.41425   0.88341   0.00000  Uiso   1.00
C98    C     0.24269   0.34583   0.79473   0.00000  Uiso   1.00
C99    C     0.25890   0.30708   0.89787   0.00000  Uiso   1.00
C100   C     0.24494   0.24306   0.84190   0.00000  Uiso   1.00
C101   C     0.23242   0.13602   0.80835   0.00000  Uiso   1.00
C102   C     0.29794   0.46339   0.69318   0.00000  Uiso   1.00
C103   C     0.36062   0.52348   0.71092   0.00000  Uiso   1.00
C104   C     0.39319   0.55842   0.56945   0.00000  Uiso   1.00
C105   C     0.46645   0.63391   0.37823   0.00000  Uiso   1.00
C106   C     0.19999   0.37237   0.54859   0.00000  Uiso   1.00
C107   C     0.15434   0.38721   0.65884   0.00000  Uiso   1.00
C108   C     0.09056   0.37847   0.61760   0.00000  Uiso   1.00
C109   C     0.05689   0.39494   0.73555   0.00000  Uiso   1.00
C110   C     0.21356   0.32151   0.64114   0.00000  Uiso   1.00
C111   C     0.19957   0.25753   0.58500   0.00000  Uiso   1.00
C112   C     0.21576   0.21869   0.68803   0.00000  Uiso   1.00
C113   C     0.26881   0.43907   0.53958   0.00000  Uiso   1.00
C114   C     0.30129   0.47393   0.39806   0.00000  Uiso   1.00
C115   C     0.36401   0.53405   0.41558   0.00000  Uiso   1.00
H116   H     0.27629   0.43609   0.95095   0.00000  Uiso   1.00
H117   H     0.17244   0.44684   0.04932   0.00000  Uiso   1.00
H118   H     0.28145   0.32592   0.01671   0.00000  Uiso   1.00
H119   H     0.38315   0.54228   0.82980   0.00000  Uiso   1.00
H120   H     0.04445   0.44800   0.09066   0.00000  Uiso   1.00
H121   H     0.27432   0.19305   0.02189   0.00000  Uiso   1.00
H122   H     0.48877   0.64930   0.62774   0.00000  Uiso   1.00
H123   H     0.17731   0.35343   0.42901   0.00000  Uiso   1.00
H124   H     0.06803   0.35965   0.49873   0.00000  Uiso   1.00
H125   H     0.17704   0.23873   0.46613   0.00000  Uiso   1.00
H126   H     0.27873   0.45509   0.27922   0.00000  Uiso   1.00
H127   H     0.95970   0.37723   0.64379   0.00000  Uiso   1.00
H128   H     0.18957   0.12228   0.57501   0.00000  Uiso   1.00
H129   H     0.40402   0.57853   0.18087   0.00000  Uiso   1.00
O130   O     0.93196   0.41818   0.92253   0.00000  Uiso   1.00
O131   O     0.23355   0.08370   0.83229   0.00000  Uiso   1.00
O132   O     0.51491   0.68228   0.31518   0.00000  Uiso   1.00
N133   N     0.03951   0.43051   0.97591   0.00000  Uiso   1.00
N134   N     0.25441   0.19214   0.91162   0.00000  Uiso   1.00
N135   N     0.45492   0.61868   0.54312   0.00000  Uiso   1.00
N136   N     0.99391   0.39243   0.73545   0.00000  Uiso   1.00
N137   N     0.20881   0.15406   0.67116   0.00000  Uiso   1.00
N138   N     0.40932   0.58060   0.30266   0.00000  Uiso   1.00
C139   C     0.41716   0.16354   0.16862   0.00000  Uiso   1.00
C140   C     0.41154   0.22807   0.18756   0.00000  Uiso   1.00
C141   C     0.42802   0.27813   0.06954   0.00000  Uiso   1.00
C142   C     0.41931   0.33324   0.11058   0.00000  Uiso   1.00
C143   C     0.41425   0.43269   0.11659   0.00000  Uiso   1.00
C144   C     0.34583   0.10315   0.20527   0.00000  Uiso   1.00
C145   C     0.30708   0.04817   0.10213   0.00000  Uiso   1.00
C146   C     0.24306   0.99812   0.15810   0.00000  Uiso   1.00
C147   C     0.13602   0.90360   0.19165   0.00000  Uiso   1.00
C148   C     0.46339   0.16546   0.30682   0.00000  Uiso   1.00
C149   C     0.52348   0.16285   0.28908   0.00000  Uiso   1.00
C150   C     0.55842   0.16524   0.43055   0.00000  Uiso   1.00
C151   C     0.63391   0.16746   0.62177   0.00000  Uiso   1.00
C152   C     0.37237   0.17238   0.45141   0.00000  Uiso   1.00
C153   C     0.38721   0.23287   0.34116   0.00000  Uiso   1.00
C154   C     0.37847   0.28792   0.38240   0.00000  Uiso   1.00
C155   C     0.39494   0.33805   0.26445   0.00000  Uiso   1.00
C156   C     0.32151   0.10795   0.35886   0.00000  Uiso   1.00
C157   C     0.25753   0.05796   0.41500   0.00000  Uiso   1.00
C158   C     0.21869   0.00293   0.31197   0.00000  Uiso   1.00
C159   C     0.43907   0.17026   0.46042   0.00000  Uiso   1.00
C160   C     0.47393   0.17264   0.60194   0.00000  Uiso   1.00
C161   C     0.53405   0.17005   0.58442   0.00000  Uiso   1.00
H162   H     0.43609   0.15980   0.04905   0.00000  Uiso   1.00
H163   H     0.44684   0.27439   0.95068   0.00000  Uiso   1.00
H164   H     0.32592   0.04447   0.98329   0.00000  Uiso   1.00
H165   H     0.54228   0.15914   0.17020   0.00000  Uiso   1.00
H166   H     0.44800   0.40355   0.90934   0.00000  Uiso   1.00
H167   H     0.19305   0.91873   0.97811   0.00000  Uiso   1.00
H168   H     0.64930   0.16052   0.37226   0.00000  Uiso   1.00
H169   H     0.35343   0.17612   0.57099   0.00000  Uiso   1.00
H170   H     0.35965   0.29162   0.50127   0.00000  Uiso   1.00
H171   H     0.23873   0.06169   0.53387   0.00000  Uiso   1.00
H172   H     0.45509   0.17636   0.72078   0.00000  Uiso   1.00
H173   H     0.37723   0.41753   0.35621   0.00000  Uiso   1.00
H174   H     0.12228   0.93271   0.42499   0.00000  Uiso   1.00
H175   H     0.57853   0.17450   0.81913   0.00000  Uiso   1.00
O176   O     0.41818   0.48622   0.07747   0.00000  Uiso   1.00
O177   O     0.08370   0.85014   0.16771   0.00000  Uiso   1.00
O178   O     0.68228   0.16737   0.68482   0.00000  Uiso   1.00
N179   N     0.43051   0.39100   0.02409   0.00000  Uiso   1.00
N180   N     0.19214   0.93773   0.08838   0.00000  Uiso   1.00
N181   N     0.61868   0.16376   0.45688   0.00000  Uiso   1.00
N182   N     0.39243   0.39852   0.26455   0.00000  Uiso   1.00
N183   N     0.15406   0.94525   0.32884   0.00000  Uiso   1.00
N184   N     0.58060   0.17128   0.69734   0.00000  Uiso   1.00
C185   C     0.83646   0.25362   0.16862   0.00000  Uiso   1.00
C186   C     0.77193   0.18347   0.18756   0.00000  Uiso   1.00
C187   C     0.72187   0.14989   0.06954   0.00000  Uiso   1.00
C188   C     0.66676   0.08607   0.11058   0.00000  Uiso   1.00
C189   C     0.56731   0.98156   0.11659   0.00000  Uiso   1.00
C190   C     0.89685   0.24269   0.20527   0.00000  Uiso   1.00
C191   C     0.95183   0.25890   0.10213   0.00000  Uiso   1.00
C192   C     0.00188   0.24494   0.15810   0.00000  Uiso   1.00
C193   C     0.09640   0.23242   0.19165   0.00000  Uiso   1.00
C194   C     0.83454   0.29794   0.30682   0.00000  Uiso   1.00
C195   C     0.83715   0.36062   0.28908   0.00000  Uiso   1.00
C196   C     0.83476   0.39319   0.43055   0.00000  Uiso   1.00
C197   C     0.83254   0.46645   0.62177   0.00000  Uiso   1.00
C198   C     0.82762   0.19999   0.45141   0.00000  Uiso   1.00
C199   C     0.76713   0.15434   0.34116   0.00000  Uiso   1.00
C200   C     0.71208   0.09056   0.38240   0.00000  Uiso   1.00
C201   C     0.66195   0.05689   0.26445   0.00000  Uiso   1.00
C202   C     0.89205   0.21356   0.35886   0.00000  Uiso   1.00
C203   C     0.94204   0.19957   0.41500   0.00000  Uiso   1.00
C204   C     0.99707   0.21576   0.31197   0.00000  Uiso   1.00
C205   C     0.82974   0.26881   0.46042   0.00000  Uiso   1.00
C206   C     0.82736   0.30129   0.60194   0.00000  Uiso   1.00
C207   C     0.82995   0.36401   0.58442   0.00000  Uiso   1.00
H208   H     0.84020   0.27629   0.04905   0.00000  Uiso   1.00
H209   H     0.72561   0.17244   0.95068   0.00000  Uiso   1.00
H210   H     0.95553   0.28145   0.98329   0.00000  Uiso   1.00
H211   H     0.84086   0.38315   0.17020   0.00000  Uiso   1.00
H212   H     0.59645   0.04445   0.90934   0.00000  Uiso   1.00
H213   H     0.08127   0.27432   0.97811   0.00000  Uiso   1.00
H214   H     0.83948   0.48877   0.37226   0.00000  Uiso   1.00
H215   H     0.82388   0.17731   0.57099   0.00000  Uiso   1.00
H216   H     0.70838   0.06803   0.50127   0.00000  Uiso   1.00
H217   H     0.93831   0.17704   0.53387   0.00000  Uiso   1.00
H218   H     0.82364   0.27873   0.72078   0.00000  Uiso   1.00
H219   H     0.58247   0.95970   0.35621   0.00000  Uiso   1.00
H220   H     0.06729   0.18957   0.42499   0.00000  Uiso   1.00
H221   H     0.82550   0.40402   0.81913   0.00000  Uiso   1.00
O222   O     0.51378   0.93196   0.07747   0.00000  Uiso   1.00
O223   O     0.14986   0.23355   0.16771   0.00000  Uiso   1.00
O224   O     0.83263   0.51491   0.68482   0.00000  Uiso   1.00
N225   N     0.60900   0.03951   0.02409   0.00000  Uiso   1.00
N226   N     0.06227   0.25441   0.08838   0.00000  Uiso   1.00
N227   N     0.83624   0.45492   0.45688   0.00000  Uiso   1.00
N228   N     0.60148   0.99391   0.26455   0.00000  Uiso   1.00
N229   N     0.05475   0.20881   0.32884   0.00000  Uiso   1.00
N230   N     0.82872   0.40932   0.69734   0.00000  Uiso   1.00
C231   C     0.74638   0.58284   0.16862   0.00000  Uiso   1.00
C232   C     0.81653   0.58846   0.18756   0.00000  Uiso   1.00
C233   C     0.85011   0.57198   0.06954   0.00000  Uiso   1.00
C234   C     0.91393   0.58069   0.11058   0.00000  Uiso   1.00
C235   C     0.01844   0.58575   0.11659   0.00000  Uiso   1.00
C236   C     0.75731   0.65417   0.20527   0.00000  Uiso   1.00
C237   C     0.74110   0.69292   0.10213   0.00000  Uiso   1.00
C238   C     0.75506   0.75694   0.15810   0.00000  Uiso   1.00
C239   C     0.76758   0.86398   0.19165   0.00000  Uiso   1.00
C240   C     0.70206   0.53661   0.30682   0.00000  Uiso   1.00
C241   C     0.63938   0.47652   0.28908   0.00000  Uiso   1.00
C242   C     0.60681   0.44158   0.43055   0.00000  Uiso   1.00
C243   C     0.53355   0.36609   0.62177   0.00000  Uiso   1.00
C244   C     0.80001   0.62763   0.45141   0.00000  Uiso   1.00
C245   C     0.84566   0.61279   0.34116   0.00000  Uiso   1.00
C246   C     0.90944   0.62153   0.38240   0.00000  Uiso   1.00
C247   C     0.94311   0.60506   0.26445   0.00000  Uiso   1.00
C248   C     0.78644   0.67849   0.35886   0.00000  Uiso   1.00
C249   C     0.80043   0.74247   0.41500   0.00000  Uiso   1.00
C250   C     0.78424   0.78131   0.31197   0.00000  Uiso   1.00
C251   C     0.73119   0.56093   0.46042   0.00000  Uiso   1.00
C252   C     0.69871   0.52607   0.60194   0.00000  Uiso   1.00
C253   C     0.63599   0.46595   0.58442   0.00000  Uiso   1.00
H254   H     0.72371   0.56391   0.04905   0.00000  Uiso   1.00
H255   H     0.82756   0.55316   0.95068   0.00000  Uiso   1.00
H256   H     0.71855   0.67408   0.98329   0.00000  Uiso   1.00
H257   H     0.61685   0.45772   0.17020   0.00000  Uiso   1.00
H258   H     0.95555   0.55200   0.90934   0.00000  Uiso   1.00
H259   H     0.72568   0.80695   0.97811   0.00000  Uiso   1.00
H260   H     0.51123   0.35070   0.37226   0.00000  Uiso   1.00
H261   H     0.82269   0.64657   0.57099   0.00000  Uiso   1.00
H262   H     0.93197   0.64035   0.50127   0.00000  Uiso   1.00
H263   H     0.82296   0.76127   0.53387   0.00000  Uiso   1.00
H264   H     0.72127   0.54491   0.72078   0.00000  Uiso   1.00
H265   H     0.04030   0.62277   0.35621   0.00000  Uiso   1.00
H266   H     0.81043   0.87772   0.42499   0.00000  Uiso   1.00
H267   H     0.59598   0.42147   0.81913   0.00000  Uiso   1.00
O268   O     0.06804   0.58182   0.07747   0.00000  Uiso   1.00
O269   O     0.76645   0.91630   0.16771   0.00000  Uiso   1.00
O270   O     0.48509   0.31772   0.68482   0.00000  Uiso   1.00
N271   N     0.96049   0.56949   0.02409   0.00000  Uiso   1.00
N272   N     0.74559   0.80786   0.08838   0.00000  Uiso   1.00
N273   N     0.54508   0.38132   0.45688   0.00000  Uiso   1.00
N274   N     0.00609   0.60757   0.26455   0.00000  Uiso   1.00
N275   N     0.79119   0.84594   0.32884   0.00000  Uiso   1.00
N276   N     0.59068   0.41940   0.69734   0.00000  Uiso   1.00
