data_job_00413
_audit_creation_date              2018-12-19
_audit_creation_method            'Materials Studio'
_symmetry_space_group_name_H-M    'P1'
_symmetry_Int_Tables_number       1
_symmetry_cell_setting            triclinic
loop_
_symmetry_equiv_pos_as_xyz
  x,y,z
_cell_length_a                    23.3691
_cell_length_b                    10.1203
_cell_length_c                    20.8704
_cell_angle_alpha                 90.0000
_cell_angle_beta                  90.0000
_cell_angle_gamma                 90.0000
loop_
_atom_site_label
_atom_site_type_symbol
_atom_site_fract_x
_atom_site_fract_y
_atom_site_fract_z
_atom_site_U_iso_or_equiv
_atom_site_adp_type
_atom_site_occupancy
C1     C     0.38881   0.48891   0.81968   0.00000  Uiso   1.00
C2     C     0.44215   0.57246   0.83110   0.00000  Uiso   1.00
C3     C     0.48299   0.60445   0.78538   0.00000  Uiso   1.00
C4     C     0.52865   0.68194   0.80537   0.00000  Uiso   1.00
C5     C     0.61079   0.80494   0.81345   0.00000  Uiso   1.00
C6     C     0.39187   0.37553   0.86769   0.00000  Uiso   1.00
C7     C     0.39043   0.24195   0.85273   0.00000  Uiso   1.00
C8     C     0.39376   0.15367   0.90352   0.00000  Uiso   1.00
C9     C     0.39780   0.97094   0.96841   0.00000  Uiso   1.00
C10    C     0.33822   0.57405   0.84030   0.00000  Uiso   1.00
C11    C     0.29166   0.60736   0.80232   0.00000  Uiso   1.00
C12    C     0.24981   0.68620   0.83005   0.00000  Uiso   1.00
C13    C     0.17055   0.81170   0.85241   0.00000  Uiso   1.00
C14    C     0.39729   0.56964   0.93647   0.00000  Uiso   1.00
C15    C     0.44675   0.61631   0.89454   0.00000  Uiso   1.00
C16    C     0.49236   0.69377   0.91459   0.00000  Uiso   1.00
C17    C     0.53326   0.72587   0.86891   0.00000  Uiso   1.00
C18    C     0.39648   0.41938   0.93112   0.00000  Uiso   1.00
C19    C     0.39981   0.33128   0.98194   0.00000  Uiso   1.00
C20    C     0.39837   0.19760   0.96707   0.00000  Uiso   1.00
C21    C     0.34283   0.61791   0.90373   0.00000  Uiso   1.00
C22    C     0.30104   0.69669   0.93153   0.00000  Uiso   1.00
C23    C     0.25442   0.73012   0.89360   0.00000  Uiso   1.00
H24    H     0.38523   0.45476   0.77030   0.00000  Uiso   1.00
H25    H     0.47941   0.57048   0.73630   0.00000  Uiso   1.00
H26    H     0.38686   0.20805   0.80364   0.00000  Uiso   1.00
H27    H     0.28811   0.57341   0.75323   0.00000  Uiso   1.00
H28    H     0.58587   0.71808   0.72658   0.00000  Uiso   1.00
H29    H     0.39071   0.95386   0.86857   0.00000  Uiso   1.00
H30    H     0.18247   0.72429   0.76228   0.00000  Uiso   1.00
H31    H     0.40087   0.60378   0.98586   0.00000  Uiso   1.00
H32    H     0.49592   0.72769   0.96369   0.00000  Uiso   1.00
H33    H     0.40337   0.36525   0.03102   0.00000  Uiso   1.00
H34    H     0.30461   0.73061   0.98062   0.00000  Uiso   1.00
H35    H     0.59927   0.84567   0.91114   0.00000  Uiso   1.00
H36    H     0.40410   0.08145   0.05313   0.00000  Uiso   1.00
H37    H     0.19586   0.85188   0.94684   0.00000  Uiso   1.00
O38    O     0.65482   0.86066   0.80039   0.00000  Uiso   1.00
O39    O     0.39876   0.85804   0.98668   0.00000  Uiso   1.00
O40    O     0.12556   0.86883   0.84722   0.00000  Uiso   1.00
N41    N     0.57598   0.73113   0.77306   0.00000  Uiso   1.00
N42    N     0.39352   0.01663   0.90581   0.00000  Uiso   1.00
N43    N     0.19882   0.73689   0.80644   0.00000  Uiso   1.00
N44    N     0.58319   0.79978   0.87236   0.00000  Uiso   1.00
N45    N     0.40073   0.08528   0.00512   0.00000  Uiso   1.00
N46    N     0.20603   0.80554   0.90575   0.00000  Uiso   1.00
C47    C     0.11266   0.86939   0.17380   0.00000  Uiso   1.00
C48    C     0.05916   0.95249   0.16251   0.00000  Uiso   1.00
C49    C     0.01821   0.98357   0.20825   0.00000  Uiso   1.00
C50    C     0.97242   0.06078   0.18838   0.00000  Uiso   1.00
C51    C     0.89005   0.18300   0.18048   0.00000  Uiso   1.00
C52    C     0.10987   0.75648   0.12552   0.00000  Uiso   1.00
C53    C     0.11157   0.62277   0.14015   0.00000  Uiso   1.00
C54    C     0.10847   0.53498   0.08914   0.00000  Uiso   1.00
C55    C     0.10487   0.35289   0.02380   0.00000  Uiso   1.00
C56    C     0.16310   0.95528   0.15347   0.00000  Uiso   1.00
C57    C     0.20955   0.98869   0.19160   0.00000  Uiso   1.00
C58    C     0.25128   0.06825   0.16412   0.00000  Uiso   1.00
C59    C     0.33031   0.19483   0.14218   0.00000  Uiso   1.00
C60    C     0.10415   0.95125   0.05720   0.00000  Uiso   1.00
C61    C     0.05455   0.99695   0.09918   0.00000  Uiso   1.00
C62    C     0.00880   0.07414   0.07924   0.00000  Uiso   1.00
C63    C     0.96779   0.10533   0.12494   0.00000  Uiso   1.00
C64    C     0.10526   0.80094   0.06218   0.00000  Uiso   1.00
C65    C     0.10216   0.71333   0.01114   0.00000  Uiso   1.00
C66    C     0.10384   0.57951   0.02569   0.00000  Uiso   1.00
C67    C     0.15848   0.99975   0.09013   0.00000  Uiso   1.00
C68    C     0.20014   0.07926   0.06259   0.00000  Uiso   1.00
C69    C     0.24665   0.11279   0.10067   0.00000  Uiso   1.00
H70    H     0.11625   0.83477   0.22311   0.00000  Uiso   1.00
H71    H     0.02180   0.94914   0.25725   0.00000  Uiso   1.00
H72    H     0.11515   0.58839   0.18916   0.00000  Uiso   1.00
H73    H     0.21311   0.95427   0.24060   0.00000  Uiso   1.00
H74    H     0.91503   0.09550   0.26717   0.00000  Uiso   1.00
H75    H     0.11188   0.33485   0.12360   0.00000  Uiso   1.00
H76    H     0.31846   0.10636   0.23207   0.00000  Uiso   1.00
H77    H     0.10056   0.98586   0.00789   0.00000  Uiso   1.00
H78    H     0.00524   0.10853   0.03023   0.00000  Uiso   1.00
H79    H     0.09859   0.74777   0.96214   0.00000  Uiso   1.00
H80    H     0.19655   0.11365   0.01358   0.00000  Uiso   1.00
H81    H     0.90159   0.22486   0.08291   0.00000  Uiso   1.00
H82    H     0.09844   0.46420   0.93934   0.00000  Uiso   1.00
H83    H     0.30502   0.23572   0.04781   0.00000  Uiso   1.00
O84    O     0.84589   0.23811   0.19361   0.00000  Uiso   1.00
O85    O     0.10415   0.24016   0.00526   0.00000  Uiso   1.00
O86    O     0.37518   0.25238   0.14757   0.00000  Uiso   1.00
N87    N     0.92496   0.10914   0.22074   0.00000  Uiso   1.00
N88    N     0.10899   0.39796   0.08652   0.00000  Uiso   1.00
N89    N     0.30213   0.11924   0.18792   0.00000  Uiso   1.00
N90    N     0.91773   0.17875   0.12159   0.00000  Uiso   1.00
N91    N     0.10176   0.46757   0.98737   0.00000  Uiso   1.00
N92    N     0.29490   0.18885   0.08877   0.00000  Uiso   1.00
C93    C     0.61119   0.51109   0.31968   0.00000  Uiso   1.00
C94    C     0.55785   0.42754   0.33110   0.00000  Uiso   1.00
C95    C     0.51701   0.39555   0.28538   0.00000  Uiso   1.00
C96    C     0.47135   0.31806   0.30537   0.00000  Uiso   1.00
C97    C     0.38921   0.19506   0.31345   0.00000  Uiso   1.00
C98    C     0.60813   0.62447   0.36769   0.00000  Uiso   1.00
C99    C     0.60957   0.75805   0.35273   0.00000  Uiso   1.00
C100   C     0.60624   0.84633   0.40352   0.00000  Uiso   1.00
C101   C     0.60220   0.02906   0.46841   0.00000  Uiso   1.00
C102   C     0.66178   0.42595   0.34030   0.00000  Uiso   1.00
C103   C     0.70834   0.39264   0.30232   0.00000  Uiso   1.00
C104   C     0.75019   0.31380   0.33005   0.00000  Uiso   1.00
C105   C     0.82945   0.18830   0.35241   0.00000  Uiso   1.00
C106   C     0.60271   0.43036   0.43647   0.00000  Uiso   1.00
C107   C     0.55325   0.38369   0.39454   0.00000  Uiso   1.00
C108   C     0.50764   0.30623   0.41459   0.00000  Uiso   1.00
C109   C     0.46674   0.27413   0.36891   0.00000  Uiso   1.00
C110   C     0.60352   0.58062   0.43112   0.00000  Uiso   1.00
C111   C     0.60019   0.66872   0.48194   0.00000  Uiso   1.00
C112   C     0.60163   0.80240   0.46707   0.00000  Uiso   1.00
C113   C     0.65717   0.38209   0.40373   0.00000  Uiso   1.00
C114   C     0.69896   0.30331   0.43153   0.00000  Uiso   1.00
C115   C     0.74558   0.26988   0.39360   0.00000  Uiso   1.00
H116   H     0.61477   0.54524   0.27030   0.00000  Uiso   1.00
H117   H     0.52059   0.42952   0.23630   0.00000  Uiso   1.00
H118   H     0.61314   0.79195   0.30364   0.00000  Uiso   1.00
H119   H     0.71189   0.42659   0.25323   0.00000  Uiso   1.00
H120   H     0.41413   0.28192   0.22658   0.00000  Uiso   1.00
H121   H     0.60929   0.04614   0.36857   0.00000  Uiso   1.00
H122   H     0.81753   0.27571   0.26228   0.00000  Uiso   1.00
H123   H     0.59913   0.39622   0.48586   0.00000  Uiso   1.00
H124   H     0.50408   0.27231   0.46369   0.00000  Uiso   1.00
H125   H     0.59663   0.63475   0.53102   0.00000  Uiso   1.00
H126   H     0.69539   0.26939   0.48062   0.00000  Uiso   1.00
H127   H     0.40073   0.15433   0.41114   0.00000  Uiso   1.00
H128   H     0.59590   0.91855   0.55313   0.00000  Uiso   1.00
H129   H     0.80414   0.14812   0.44684   0.00000  Uiso   1.00
O130   O     0.34518   0.13934   0.30039   0.00000  Uiso   1.00
O131   O     0.60124   0.14196   0.48668   0.00000  Uiso   1.00
O132   O     0.87444   0.13117   0.34722   0.00000  Uiso   1.00
N133   N     0.42402   0.26887   0.27306   0.00000  Uiso   1.00
N134   N     0.60648   0.98337   0.40581   0.00000  Uiso   1.00
N135   N     0.80118   0.26311   0.30644   0.00000  Uiso   1.00
N136   N     0.41681   0.20022   0.37236   0.00000  Uiso   1.00
N137   N     0.59927   0.91472   0.50512   0.00000  Uiso   1.00
N138   N     0.79397   0.19446   0.40575   0.00000  Uiso   1.00
C139   C     0.88734   0.13061   0.67380   0.00000  Uiso   1.00
C140   C     0.94084   0.04751   0.66251   0.00000  Uiso   1.00
C141   C     0.98179   0.01643   0.70825   0.00000  Uiso   1.00
C142   C     0.02758   0.93922   0.68838   0.00000  Uiso   1.00
C143   C     0.10995   0.81700   0.68048   0.00000  Uiso   1.00
C144   C     0.89013   0.24352   0.62552   0.00000  Uiso   1.00
C145   C     0.88843   0.37723   0.64015   0.00000  Uiso   1.00
C146   C     0.89153   0.46502   0.58914   0.00000  Uiso   1.00
C147   C     0.89513   0.64711   0.52380   0.00000  Uiso   1.00
C148   C     0.83690   0.04472   0.65347   0.00000  Uiso   1.00
C149   C     0.79045   0.01131   0.69160   0.00000  Uiso   1.00
C150   C     0.74872   0.93175   0.66412   0.00000  Uiso   1.00
C151   C     0.66969   0.80517   0.64218   0.00000  Uiso   1.00
C152   C     0.89585   0.04875   0.55720   0.00000  Uiso   1.00
C153   C     0.94545   0.00305   0.59918   0.00000  Uiso   1.00
C154   C     0.99120   0.92586   0.57924   0.00000  Uiso   1.00
C155   C     0.03221   0.89467   0.62494   0.00000  Uiso   1.00
C156   C     0.89474   0.19906   0.56218   0.00000  Uiso   1.00
C157   C     0.89784   0.28667   0.51114   0.00000  Uiso   1.00
C158   C     0.89616   0.42049   0.52569   0.00000  Uiso   1.00
C159   C     0.84152   0.00025   0.59013   0.00000  Uiso   1.00
C160   C     0.79986   0.92074   0.56259   0.00000  Uiso   1.00
C161   C     0.75335   0.88721   0.60067   0.00000  Uiso   1.00
H162   H     0.88375   0.16523   0.72311   0.00000  Uiso   1.00
H163   H     0.97820   0.05086   0.75725   0.00000  Uiso   1.00
H164   H     0.88485   0.41161   0.68916   0.00000  Uiso   1.00
H165   H     0.78689   0.04573   0.74060   0.00000  Uiso   1.00
H166   H     0.08497   0.90450   0.76717   0.00000  Uiso   1.00
H167   H     0.88812   0.66515   0.62360   0.00000  Uiso   1.00
H168   H     0.68154   0.89364   0.73207   0.00000  Uiso   1.00
H169   H     0.89944   0.01414   0.50789   0.00000  Uiso   1.00
H170   H     0.99476   0.89147   0.53023   0.00000  Uiso   1.00
H171   H     0.90141   0.25223   0.46214   0.00000  Uiso   1.00
H172   H     0.80345   0.88635   0.51358   0.00000  Uiso   1.00
H173   H     0.09841   0.77514   0.58291   0.00000  Uiso   1.00
H174   H     0.90156   0.53580   0.43934   0.00000  Uiso   1.00
H175   H     0.69498   0.76428   0.54781   0.00000  Uiso   1.00
O176   O     0.15411   0.76189   0.69361   0.00000  Uiso   1.00
O177   O     0.89585   0.75984   0.50526   0.00000  Uiso   1.00
O178   O     0.62482   0.74762   0.64757   0.00000  Uiso   1.00
N179   N     0.07504   0.89086   0.72074   0.00000  Uiso   1.00
N180   N     0.89101   0.60204   0.58652   0.00000  Uiso   1.00
N181   N     0.69787   0.88076   0.68792   0.00000  Uiso   1.00
N182   N     0.08227   0.82125   0.62159   0.00000  Uiso   1.00
N183   N     0.89824   0.53243   0.48737   0.00000  Uiso   1.00
N184   N     0.70510   0.81115   0.58877   0.00000  Uiso   1.00
C185   C     0.88881   0.51109   0.81968   0.00000  Uiso   1.00
C186   C     0.94215   0.42754   0.83110   0.00000  Uiso   1.00
C187   C     0.98299   0.39555   0.78538   0.00000  Uiso   1.00
C188   C     0.02865   0.31806   0.80537   0.00000  Uiso   1.00
C189   C     0.11079   0.19506   0.81345   0.00000  Uiso   1.00
C190   C     0.89187   0.62447   0.86769   0.00000  Uiso   1.00
C191   C     0.89043   0.75805   0.85273   0.00000  Uiso   1.00
C192   C     0.89376   0.84633   0.90352   0.00000  Uiso   1.00
C193   C     0.89780   0.02906   0.96841   0.00000  Uiso   1.00
C194   C     0.83822   0.42595   0.84030   0.00000  Uiso   1.00
C195   C     0.79166   0.39264   0.80232   0.00000  Uiso   1.00
C196   C     0.74981   0.31380   0.83005   0.00000  Uiso   1.00
C197   C     0.67055   0.18830   0.85241   0.00000  Uiso   1.00
C198   C     0.89729   0.43036   0.93647   0.00000  Uiso   1.00
C199   C     0.94675   0.38369   0.89454   0.00000  Uiso   1.00
C200   C     0.99236   0.30623   0.91459   0.00000  Uiso   1.00
C201   C     0.03326   0.27413   0.86891   0.00000  Uiso   1.00
C202   C     0.89648   0.58062   0.93112   0.00000  Uiso   1.00
C203   C     0.89981   0.66872   0.98194   0.00000  Uiso   1.00
C204   C     0.89837   0.80240   0.96707   0.00000  Uiso   1.00
C205   C     0.84283   0.38209   0.90373   0.00000  Uiso   1.00
C206   C     0.80104   0.30331   0.93153   0.00000  Uiso   1.00
C207   C     0.75442   0.26988   0.89360   0.00000  Uiso   1.00
H208   H     0.88523   0.54524   0.77030   0.00000  Uiso   1.00
H209   H     0.97941   0.42952   0.73630   0.00000  Uiso   1.00
H210   H     0.88686   0.79195   0.80364   0.00000  Uiso   1.00
H211   H     0.78811   0.42659   0.75323   0.00000  Uiso   1.00
H212   H     0.08587   0.28192   0.72658   0.00000  Uiso   1.00
H213   H     0.89071   0.04614   0.86857   0.00000  Uiso   1.00
H214   H     0.68247   0.27571   0.76228   0.00000  Uiso   1.00
H215   H     0.90087   0.39622   0.98586   0.00000  Uiso   1.00
H216   H     0.99592   0.27231   0.96369   0.00000  Uiso   1.00
H217   H     0.90337   0.63475   0.03102   0.00000  Uiso   1.00
H218   H     0.80461   0.26939   0.98062   0.00000  Uiso   1.00
H219   H     0.09927   0.15433   0.91114   0.00000  Uiso   1.00
H220   H     0.90410   0.91855   0.05313   0.00000  Uiso   1.00
H221   H     0.69586   0.14812   0.94684   0.00000  Uiso   1.00
O222   O     0.15482   0.13934   0.80039   0.00000  Uiso   1.00
O223   O     0.89876   0.14196   0.98668   0.00000  Uiso   1.00
O224   O     0.62556   0.13117   0.84722   0.00000  Uiso   1.00
N225   N     0.07598   0.26887   0.77306   0.00000  Uiso   1.00
N226   N     0.89352   0.98337   0.90581   0.00000  Uiso   1.00
N227   N     0.69882   0.26311   0.80644   0.00000  Uiso   1.00
N228   N     0.08319   0.20022   0.87236   0.00000  Uiso   1.00
N229   N     0.90073   0.91472   0.00512   0.00000  Uiso   1.00
N230   N     0.70603   0.19446   0.90575   0.00000  Uiso   1.00
C231   C     0.61266   0.13061   0.17380   0.00000  Uiso   1.00
C232   C     0.55916   0.04751   0.16251   0.00000  Uiso   1.00
C233   C     0.51821   0.01643   0.20825   0.00000  Uiso   1.00
C234   C     0.47242   0.93922   0.18838   0.00000  Uiso   1.00
C235   C     0.39005   0.81700   0.18048   0.00000  Uiso   1.00
C236   C     0.60987   0.24352   0.12552   0.00000  Uiso   1.00
C237   C     0.61157   0.37723   0.14015   0.00000  Uiso   1.00
C238   C     0.60847   0.46502   0.08914   0.00000  Uiso   1.00
C239   C     0.60487   0.64711   0.02380   0.00000  Uiso   1.00
C240   C     0.66310   0.04472   0.15347   0.00000  Uiso   1.00
C241   C     0.70955   0.01131   0.19160   0.00000  Uiso   1.00
C242   C     0.75128   0.93175   0.16412   0.00000  Uiso   1.00
C243   C     0.83031   0.80517   0.14218   0.00000  Uiso   1.00
C244   C     0.60415   0.04875   0.05720   0.00000  Uiso   1.00
C245   C     0.55455   0.00305   0.09918   0.00000  Uiso   1.00
C246   C     0.50880   0.92586   0.07924   0.00000  Uiso   1.00
C247   C     0.46779   0.89467   0.12494   0.00000  Uiso   1.00
C248   C     0.60526   0.19906   0.06218   0.00000  Uiso   1.00
C249   C     0.60216   0.28667   0.01114   0.00000  Uiso   1.00
C250   C     0.60384   0.42049   0.02569   0.00000  Uiso   1.00
C251   C     0.65848   0.00025   0.09013   0.00000  Uiso   1.00
C252   C     0.70014   0.92074   0.06259   0.00000  Uiso   1.00
C253   C     0.74665   0.88721   0.10067   0.00000  Uiso   1.00
H254   H     0.61625   0.16523   0.22311   0.00000  Uiso   1.00
H255   H     0.52180   0.05086   0.25725   0.00000  Uiso   1.00
H256   H     0.61515   0.41161   0.18916   0.00000  Uiso   1.00
H257   H     0.71311   0.04573   0.24060   0.00000  Uiso   1.00
H258   H     0.41503   0.90450   0.26717   0.00000  Uiso   1.00
H259   H     0.61188   0.66515   0.12360   0.00000  Uiso   1.00
H260   H     0.81846   0.89364   0.23207   0.00000  Uiso   1.00
H261   H     0.60056   0.01414   0.00789   0.00000  Uiso   1.00
H262   H     0.50524   0.89147   0.03023   0.00000  Uiso   1.00
H263   H     0.59859   0.25223   0.96214   0.00000  Uiso   1.00
H264   H     0.69655   0.88635   0.01358   0.00000  Uiso   1.00
H265   H     0.40159   0.77514   0.08291   0.00000  Uiso   1.00
H266   H     0.59844   0.53580   0.93934   0.00000  Uiso   1.00
H267   H     0.80502   0.76428   0.04781   0.00000  Uiso   1.00
O268   O     0.34589   0.76189   0.19361   0.00000  Uiso   1.00
O269   O     0.60415   0.75984   0.00526   0.00000  Uiso   1.00
O270   O     0.87518   0.74762   0.14757   0.00000  Uiso   1.00
N271   N     0.42496   0.89086   0.22074   0.00000  Uiso   1.00
N272   N     0.60899   0.60204   0.08652   0.00000  Uiso   1.00
N273   N     0.80213   0.88076   0.18792   0.00000  Uiso   1.00
N274   N     0.41773   0.82125   0.12159   0.00000  Uiso   1.00
N275   N     0.60176   0.53243   0.98737   0.00000  Uiso   1.00
N276   N     0.79490   0.81115   0.08877   0.00000  Uiso   1.00
C277   C     0.11119   0.48891   0.31968   0.00000  Uiso   1.00
C278   C     0.05785   0.57246   0.33110   0.00000  Uiso   1.00
C279   C     0.01701   0.60445   0.28538   0.00000  Uiso   1.00
C280   C     0.97135   0.68194   0.30537   0.00000  Uiso   1.00
C281   C     0.88921   0.80494   0.31345   0.00000  Uiso   1.00
C282   C     0.10813   0.37553   0.36769   0.00000  Uiso   1.00
C283   C     0.10957   0.24195   0.35273   0.00000  Uiso   1.00
C284   C     0.10624   0.15367   0.40352   0.00000  Uiso   1.00
C285   C     0.10220   0.97094   0.46841   0.00000  Uiso   1.00
C286   C     0.16178   0.57405   0.34030   0.00000  Uiso   1.00
C287   C     0.20834   0.60736   0.30232   0.00000  Uiso   1.00
C288   C     0.25019   0.68620   0.33005   0.00000  Uiso   1.00
C289   C     0.32945   0.81170   0.35241   0.00000  Uiso   1.00
C290   C     0.10271   0.56964   0.43647   0.00000  Uiso   1.00
C291   C     0.05325   0.61631   0.39454   0.00000  Uiso   1.00
C292   C     0.00764   0.69377   0.41459   0.00000  Uiso   1.00
C293   C     0.96674   0.72587   0.36891   0.00000  Uiso   1.00
C294   C     0.10352   0.41938   0.43112   0.00000  Uiso   1.00
C295   C     0.10019   0.33128   0.48194   0.00000  Uiso   1.00
C296   C     0.10163   0.19760   0.46707   0.00000  Uiso   1.00
C297   C     0.15717   0.61791   0.40373   0.00000  Uiso   1.00
C298   C     0.19896   0.69669   0.43153   0.00000  Uiso   1.00
C299   C     0.24558   0.73012   0.39360   0.00000  Uiso   1.00
H300   H     0.11477   0.45476   0.27030   0.00000  Uiso   1.00
H301   H     0.02059   0.57048   0.23630   0.00000  Uiso   1.00
H302   H     0.11314   0.20805   0.30364   0.00000  Uiso   1.00
H303   H     0.21189   0.57341   0.25323   0.00000  Uiso   1.00
H304   H     0.91413   0.71808   0.22658   0.00000  Uiso   1.00
H305   H     0.10929   0.95386   0.36857   0.00000  Uiso   1.00
H306   H     0.31753   0.72429   0.26228   0.00000  Uiso   1.00
H307   H     0.09913   0.60378   0.48586   0.00000  Uiso   1.00
H308   H     0.00408   0.72769   0.46369   0.00000  Uiso   1.00
H309   H     0.09663   0.36525   0.53102   0.00000  Uiso   1.00
H310   H     0.19539   0.73061   0.48062   0.00000  Uiso   1.00
H311   H     0.90073   0.84567   0.41114   0.00000  Uiso   1.00
H312   H     0.09590   0.08145   0.55313   0.00000  Uiso   1.00
H313   H     0.30414   0.85188   0.44684   0.00000  Uiso   1.00
O314   O     0.84518   0.86066   0.30039   0.00000  Uiso   1.00
O315   O     0.10124   0.85804   0.48668   0.00000  Uiso   1.00
O316   O     0.37444   0.86883   0.34722   0.00000  Uiso   1.00
N317   N     0.92402   0.73113   0.27306   0.00000  Uiso   1.00
N318   N     0.10648   0.01663   0.40581   0.00000  Uiso   1.00
N319   N     0.30118   0.73689   0.30644   0.00000  Uiso   1.00
N320   N     0.91681   0.79978   0.37236   0.00000  Uiso   1.00
N321   N     0.09927   0.08528   0.50512   0.00000  Uiso   1.00
N322   N     0.29397   0.80554   0.40575   0.00000  Uiso   1.00
C323   C     0.38734   0.86939   0.67380   0.00000  Uiso   1.00
C324   C     0.44084   0.95249   0.66251   0.00000  Uiso   1.00
C325   C     0.48179   0.98357   0.70825   0.00000  Uiso   1.00
C326   C     0.52758   0.06078   0.68838   0.00000  Uiso   1.00
C327   C     0.60995   0.18300   0.68048   0.00000  Uiso   1.00
C328   C     0.39013   0.75648   0.62552   0.00000  Uiso   1.00
C329   C     0.38843   0.62277   0.64015   0.00000  Uiso   1.00
C330   C     0.39153   0.53498   0.58914   0.00000  Uiso   1.00
C331   C     0.39513   0.35289   0.52380   0.00000  Uiso   1.00
C332   C     0.33690   0.95528   0.65347   0.00000  Uiso   1.00
C333   C     0.29045   0.98869   0.69160   0.00000  Uiso   1.00
C334   C     0.24872   0.06825   0.66412   0.00000  Uiso   1.00
C335   C     0.16969   0.19483   0.64218   0.00000  Uiso   1.00
C336   C     0.39585   0.95125   0.55720   0.00000  Uiso   1.00
C337   C     0.44545   0.99695   0.59918   0.00000  Uiso   1.00
C338   C     0.49120   0.07414   0.57924   0.00000  Uiso   1.00
C339   C     0.53221   0.10533   0.62494   0.00000  Uiso   1.00
C340   C     0.39474   0.80094   0.56218   0.00000  Uiso   1.00
C341   C     0.39784   0.71333   0.51114   0.00000  Uiso   1.00
C342   C     0.39616   0.57951   0.52569   0.00000  Uiso   1.00
C343   C     0.34152   0.99975   0.59013   0.00000  Uiso   1.00
C344   C     0.29986   0.07926   0.56259   0.00000  Uiso   1.00
C345   C     0.25335   0.11279   0.60067   0.00000  Uiso   1.00
H346   H     0.38375   0.83477   0.72311   0.00000  Uiso   1.00
H347   H     0.47820   0.94914   0.75725   0.00000  Uiso   1.00
H348   H     0.38485   0.58839   0.68916   0.00000  Uiso   1.00
H349   H     0.28689   0.95427   0.74060   0.00000  Uiso   1.00
H350   H     0.58497   0.09550   0.76717   0.00000  Uiso   1.00
H351   H     0.38812   0.33485   0.62360   0.00000  Uiso   1.00
H352   H     0.18154   0.10636   0.73207   0.00000  Uiso   1.00
H353   H     0.39944   0.98586   0.50789   0.00000  Uiso   1.00
H354   H     0.49476   0.10853   0.53023   0.00000  Uiso   1.00
H355   H     0.40141   0.74777   0.46214   0.00000  Uiso   1.00
H356   H     0.30345   0.11365   0.51358   0.00000  Uiso   1.00
H357   H     0.59841   0.22486   0.58291   0.00000  Uiso   1.00
H358   H     0.40156   0.46420   0.43934   0.00000  Uiso   1.00
H359   H     0.19498   0.23572   0.54781   0.00000  Uiso   1.00
O360   O     0.65411   0.23811   0.69361   0.00000  Uiso   1.00
O361   O     0.39585   0.24016   0.50526   0.00000  Uiso   1.00
O362   O     0.12482   0.25238   0.64757   0.00000  Uiso   1.00
N363   N     0.57504   0.10914   0.72074   0.00000  Uiso   1.00
N364   N     0.39101   0.39796   0.58652   0.00000  Uiso   1.00
N365   N     0.19787   0.11924   0.68792   0.00000  Uiso   1.00
N366   N     0.58227   0.17875   0.62159   0.00000  Uiso   1.00
N367   N     0.39824   0.46757   0.48737   0.00000  Uiso   1.00
N368   N     0.20510   0.18885   0.58877   0.00000  Uiso   1.00
