data_job_05979
_audit_creation_date              2018-12-19
_audit_creation_method            'Materials Studio'
_symmetry_space_group_name_H-M    'P1'
_symmetry_Int_Tables_number       1
_symmetry_cell_setting            triclinic
loop_
_symmetry_equiv_pos_as_xyz
  x,y,z
_cell_length_a                    16.7329
_cell_length_b                    16.7723
_cell_length_c                    16.8078
_cell_angle_alpha                 100.1940
_cell_angle_beta                  100.2090
_cell_angle_gamma                 100.2120
loop_
_atom_site_label
_atom_site_type_symbol
_atom_site_fract_x
_atom_site_fract_y
_atom_site_fract_z
_atom_site_U_iso_or_equiv
_atom_site_adp_type
_atom_site_occupancy
C1     C     0.13222   0.62664   0.58810   0.00000  Uiso   1.00
C2     C     0.19146   0.65470   0.67273   0.00000  Uiso   1.00
C3     C     0.18519   0.61951   0.74075   0.00000  Uiso   1.00
C4     C     0.24557   0.65416   0.81260   0.00000  Uiso   1.00
C5     C     0.32775   0.68749   0.94347   0.00000  Uiso   1.00
C6     C     0.10037   0.70281   0.57032   0.00000  Uiso   1.00
C7     C     0.01750   0.70806   0.55221   0.00000  Uiso   1.00
C8     C     0.00120   0.78320   0.53783   0.00000  Uiso   1.00
C9     C     0.94195   0.89121   0.50965   0.00000  Uiso   1.00
C10    C     0.18595   0.60749   0.52580   0.00000  Uiso   1.00
C11    C     0.17504   0.53260   0.47025   0.00000  Uiso   1.00
C12    C     0.23078   0.52749   0.41837   0.00000  Uiso   1.00
C13    C     0.30442   0.48750   0.32107   0.00000  Uiso   1.00
C14    C     0.25061   0.75076   0.59474   0.00000  Uiso   1.00
C15    C     0.25576   0.72212   0.67634   0.00000  Uiso   1.00
C16    C     0.31617   0.75683   0.74809   0.00000  Uiso   1.00
C17    C     0.30999   0.72169   0.81621   0.00000  Uiso   1.00
C18    C     0.16466   0.77023   0.57392   0.00000  Uiso   1.00
C19    C     0.14848   0.84538   0.55956   0.00000  Uiso   1.00
C20    C     0.06561   0.85074   0.54144   0.00000  Uiso   1.00
C21    C     0.25026   0.67490   0.52940   0.00000  Uiso   1.00
C22    C     0.30602   0.66992   0.47760   0.00000  Uiso   1.00
C23    C     0.29520   0.59503   0.42198   0.00000  Uiso   1.00
H24    H     0.08215   0.57416   0.58529   0.00000  Uiso   1.00
H25    H     0.13541   0.56734   0.73794   0.00000  Uiso   1.00
H26    H     0.96775   0.65587   0.54942   0.00000  Uiso   1.00
H27    H     0.12527   0.48044   0.46748   0.00000  Uiso   1.00
H28    H     0.22280   0.58953   0.90878   0.00000  Uiso   1.00
H29    H     0.86928   0.77619   0.51125   0.00000  Uiso   1.00
H30    H     0.20143   0.40626   0.33845   0.00000  Uiso   1.00
H31    H     0.30067   0.80325   0.59754   0.00000  Uiso   1.00
H32    H     0.36592   0.80900   0.75087   0.00000  Uiso   1.00
H33    H     0.19826   0.89754   0.56235   0.00000  Uiso   1.00
H34    H     0.35578   0.72210   0.48040   0.00000  Uiso   1.00
H35    H     0.40989   0.78567   0.91927   0.00000  Uiso   1.00
H36    H     0.05636   0.97234   0.52174   0.00000  Uiso   1.00
H37    H     0.38852   0.60240   0.34894   0.00000  Uiso   1.00
O38    O     0.35531   0.68726   0.01467   0.00000  Uiso   1.00
O39    O     0.89150   0.93215   0.49311   0.00000  Uiso   1.00
O40    O     0.32729   0.44681   0.26641   0.00000  Uiso   1.00
N41    N     0.25789   0.63489   0.89020   0.00000  Uiso   1.00
N42    N     0.92736   0.80942   0.51855   0.00000  Uiso   1.00
N43    N     0.23789   0.46356   0.35698   0.00000  Uiso   1.00
N44    N     0.35856   0.74043   0.89584   0.00000  Uiso   1.00
N45    N     0.02803   0.91496   0.52419   0.00000  Uiso   1.00
N46    N     0.33856   0.56911   0.36262   0.00000  Uiso   1.00
C47    C     0.58797   0.13214   0.62678   0.00000  Uiso   1.00
C48    C     0.67297   0.19128   0.65481   0.00000  Uiso   1.00
C49    C     0.74132   0.18506   0.61973   0.00000  Uiso   1.00
C50    C     0.81346   0.24532   0.65433   0.00000  Uiso   1.00
C51    C     0.94491   0.32737   0.68765   0.00000  Uiso   1.00
C52    C     0.57010   0.10034   0.70277   0.00000  Uiso   1.00
C53    C     0.55194   0.01767   0.70802   0.00000  Uiso   1.00
C54    C     0.53748   0.00139   0.78300   0.00000  Uiso   1.00
C55    C     0.50915   0.94225   0.89076   0.00000  Uiso   1.00
C56    C     0.52536   0.18572   0.60761   0.00000  Uiso   1.00
C57    C     0.46958   0.17482   0.53285   0.00000  Uiso   1.00
C58    C     0.41744   0.23040   0.52772   0.00000  Uiso   1.00
C59    C     0.31966   0.30382   0.48774   0.00000  Uiso   1.00
C60    C     0.59456   0.25022   0.75060   0.00000  Uiso   1.00
C61    C     0.67655   0.25541   0.72206   0.00000  Uiso   1.00
C62    C     0.74861   0.31570   0.75672   0.00000  Uiso   1.00
C63    C     0.81705   0.30958   0.72170   0.00000  Uiso   1.00
C64    C     0.57367   0.16447   0.77003   0.00000  Uiso   1.00
C65    C     0.55923   0.14831   0.84501   0.00000  Uiso   1.00
C66    C     0.54106   0.06563   0.85037   0.00000  Uiso   1.00
C67    C     0.52894   0.24985   0.67487   0.00000  Uiso   1.00
C68    C     0.47688   0.30546   0.66985   0.00000  Uiso   1.00
C69    C     0.42102   0.29465   0.59510   0.00000  Uiso   1.00
H70    H     0.58518   0.08221   0.57442   0.00000  Uiso   1.00
H71    H     0.73852   0.13542   0.56769   0.00000  Uiso   1.00
H72    H     0.54916   0.96805   0.65596   0.00000  Uiso   1.00
H73    H     0.46683   0.12518   0.48082   0.00000  Uiso   1.00
H74    H     0.91012   0.22267   0.58990   0.00000  Uiso   1.00
H75    H     0.51082   0.86978   0.77602   0.00000  Uiso   1.00
H76    H     0.33718   0.20111   0.40671   0.00000  Uiso   1.00
H77    H     0.59735   0.30015   0.80296   0.00000  Uiso   1.00
H78    H     0.75136   0.36532   0.80877   0.00000  Uiso   1.00
H79    H     0.56200   0.19795   0.89704   0.00000  Uiso   1.00
H80    H     0.47966   0.35508   0.72191   0.00000  Uiso   1.00
H81    H     0.92054   0.40927   0.78558   0.00000  Uiso   1.00
H82    H     0.52124   0.05637   0.97169   0.00000  Uiso   1.00
H83    H     0.34760   0.38770   0.60239   0.00000  Uiso   1.00
O84    O     0.01643   0.35489   0.68745   0.00000  Uiso   1.00
O85    O     0.49255   0.89191   0.93162   0.00000  Uiso   1.00
O86    O     0.26475   0.32661   0.44710   0.00000  Uiso   1.00
N87    N     0.89143   0.25765   0.63515   0.00000  Uiso   1.00
N88    N     0.51812   0.92772   0.80916   0.00000  Uiso   1.00
N89    N     0.35577   0.23747   0.46389   0.00000  Uiso   1.00
N90    N     0.89704   0.35806   0.74044   0.00000  Uiso   1.00
N91    N     0.52373   0.02812   0.91445   0.00000  Uiso   1.00
N92    N     0.36138   0.33788   0.56918   0.00000  Uiso   1.00
C93    C     0.62645   0.58800   0.13204   0.00000  Uiso   1.00
C94    C     0.65456   0.67279   0.19104   0.00000  Uiso   1.00
C95    C     0.61930   0.74095   0.18481   0.00000  Uiso   1.00
C96    C     0.65402   0.81293   0.24494   0.00000  Uiso   1.00
C97    C     0.68742   0.94406   0.32678   0.00000  Uiso   1.00
C98    C     0.70281   0.57021   0.10036   0.00000  Uiso   1.00
C99    C     0.70811   0.55212   0.01788   0.00000  Uiso   1.00
C100   C     0.78344   0.53774   0.00168   0.00000  Uiso   1.00
C101   C     0.89174   0.50955   0.94274   0.00000  Uiso   1.00
C102   C     0.60720   0.52553   0.18551   0.00000  Uiso   1.00
C103   C     0.53212   0.46984   0.17460   0.00000  Uiso   1.00
C104   C     0.52697   0.41782   0.23007   0.00000  Uiso   1.00
C105   C     0.48681   0.32025   0.30333   0.00000  Uiso   1.00
C106   C     0.75081   0.59461   0.24993   0.00000  Uiso   1.00
C107   C     0.72211   0.67638   0.25507   0.00000  Uiso   1.00
C108   C     0.75689   0.74827   0.31523   0.00000  Uiso   1.00
C109   C     0.72169   0.81653   0.30908   0.00000  Uiso   1.00
C110   C     0.77036   0.57381   0.16439   0.00000  Uiso   1.00
C111   C     0.84571   0.55944   0.14830   0.00000  Uiso   1.00
C112   C     0.85112   0.54133   0.06582   0.00000  Uiso   1.00
C113   C     0.67475   0.52912   0.24954   0.00000  Uiso   1.00
C114   C     0.66972   0.47716   0.30503   0.00000  Uiso   1.00
C115   C     0.59464   0.42141   0.29422   0.00000  Uiso   1.00
H116   H     0.57386   0.58520   0.08219   0.00000  Uiso   1.00
H117   H     0.56702   0.73815   0.13524   0.00000  Uiso   1.00
H118   H     0.65582   0.54934   0.96834   0.00000  Uiso   1.00
H119   H     0.47986   0.46708   0.12504   0.00000  Uiso   1.00
H120   H     0.58926   0.90932   0.22227   0.00000  Uiso   1.00
H121   H     0.77648   0.51117   0.87036   0.00000  Uiso   1.00
H122   H     0.40543   0.33770   0.20079   0.00000  Uiso   1.00
H123   H     0.80341   0.59741   0.29978   0.00000  Uiso   1.00
H124   H     0.80917   0.75103   0.36477   0.00000  Uiso   1.00
H125   H     0.89796   0.56222   0.19787   0.00000  Uiso   1.00
H126   H     0.72200   0.47996   0.35457   0.00000  Uiso   1.00
H127   H     0.78579   0.91978   0.40857   0.00000  Uiso   1.00
H128   H     0.97301   0.52162   0.05665   0.00000  Uiso   1.00
H129   H     0.60196   0.34816   0.38709   0.00000  Uiso   1.00
O130   O     0.68719   0.01540   0.35423   0.00000  Uiso   1.00
O131   O     0.93281   0.49302   0.89253   0.00000  Uiso   1.00
O132   O     0.44600   0.26544   0.32606   0.00000  Uiso   1.00
N133   N     0.63471   0.89069   0.25721   0.00000  Uiso   1.00
N134   N     0.80975   0.51846   0.92819   0.00000  Uiso   1.00
N135   N     0.46286   0.35627   0.23710   0.00000  Uiso   1.00
N136   N     0.74046   0.89632   0.35745   0.00000  Uiso   1.00
N137   N     0.91551   0.52408   0.02843   0.00000  Uiso   1.00
N138   N     0.56862   0.36189   0.33735   0.00000  Uiso   1.00
C139   C     0.86778   0.37336   0.41190   0.00000  Uiso   1.00
C140   C     0.80854   0.34530   0.32727   0.00000  Uiso   1.00
C141   C     0.81481   0.38049   0.25925   0.00000  Uiso   1.00
C142   C     0.75443   0.34584   0.18740   0.00000  Uiso   1.00
C143   C     0.67225   0.31251   0.05653   0.00000  Uiso   1.00
C144   C     0.89963   0.29719   0.42968   0.00000  Uiso   1.00
C145   C     0.98250   0.29194   0.44779   0.00000  Uiso   1.00
C146   C     0.99880   0.21680   0.46217   0.00000  Uiso   1.00
C147   C     0.05805   0.10879   0.49035   0.00000  Uiso   1.00
C148   C     0.81405   0.39251   0.47420   0.00000  Uiso   1.00
C149   C     0.82496   0.46740   0.52975   0.00000  Uiso   1.00
C150   C     0.76922   0.47251   0.58163   0.00000  Uiso   1.00
C151   C     0.69558   0.51250   0.67893   0.00000  Uiso   1.00
C152   C     0.74939   0.24924   0.40526   0.00000  Uiso   1.00
C153   C     0.74424   0.27788   0.32366   0.00000  Uiso   1.00
C154   C     0.68383   0.24317   0.25191   0.00000  Uiso   1.00
C155   C     0.69001   0.27831   0.18379   0.00000  Uiso   1.00
C156   C     0.83533   0.22977   0.42608   0.00000  Uiso   1.00
C157   C     0.85152   0.15462   0.44044   0.00000  Uiso   1.00
C158   C     0.93439   0.14926   0.45856   0.00000  Uiso   1.00
C159   C     0.74974   0.32510   0.47060   0.00000  Uiso   1.00
C160   C     0.69398   0.33008   0.52240   0.00000  Uiso   1.00
C161   C     0.70480   0.40497   0.57802   0.00000  Uiso   1.00
H162   H     0.91785   0.42584   0.41471   0.00000  Uiso   1.00
H163   H     0.86459   0.43266   0.26206   0.00000  Uiso   1.00
H164   H     0.03225   0.34413   0.45058   0.00000  Uiso   1.00
H165   H     0.87473   0.51956   0.53252   0.00000  Uiso   1.00
H166   H     0.77720   0.41047   0.09122   0.00000  Uiso   1.00
H167   H     0.13072   0.22381   0.48875   0.00000  Uiso   1.00
H168   H     0.79857   0.59374   0.66155   0.00000  Uiso   1.00
H169   H     0.69933   0.19674   0.40246   0.00000  Uiso   1.00
H170   H     0.63408   0.19100   0.24913   0.00000  Uiso   1.00
H171   H     0.80174   0.10246   0.43765   0.00000  Uiso   1.00
H172   H     0.64422   0.27790   0.51960   0.00000  Uiso   1.00
H173   H     0.59011   0.21433   0.08073   0.00000  Uiso   1.00
H174   H     0.94364   0.02766   0.47826   0.00000  Uiso   1.00
H175   H     0.61148   0.39760   0.65106   0.00000  Uiso   1.00
O176   O     0.64469   0.31274   0.98533   0.00000  Uiso   1.00
O177   O     0.10850   0.06785   0.50688   0.00000  Uiso   1.00
O178   O     0.67271   0.55319   0.73359   0.00000  Uiso   1.00
N179   N     0.74211   0.36511   0.10980   0.00000  Uiso   1.00
N180   N     0.07264   0.19058   0.48145   0.00000  Uiso   1.00
N181   N     0.76211   0.53644   0.64302   0.00000  Uiso   1.00
N182   N     0.64144   0.25957   0.10416   0.00000  Uiso   1.00
N183   N     0.97197   0.08504   0.47581   0.00000  Uiso   1.00
N184   N     0.66144   0.43089   0.63738   0.00000  Uiso   1.00
C185   C     0.41203   0.86786   0.37322   0.00000  Uiso   1.00
C186   C     0.32703   0.80872   0.34519   0.00000  Uiso   1.00
C187   C     0.25868   0.81494   0.38027   0.00000  Uiso   1.00
C188   C     0.18654   0.75468   0.34567   0.00000  Uiso   1.00
C189   C     0.05509   0.67263   0.31235   0.00000  Uiso   1.00
C190   C     0.42990   0.89966   0.29723   0.00000  Uiso   1.00
C191   C     0.44806   0.98233   0.29198   0.00000  Uiso   1.00
C192   C     0.46252   0.99861   0.21700   0.00000  Uiso   1.00
C193   C     0.49085   0.05775   0.10924   0.00000  Uiso   1.00
C194   C     0.47464   0.81428   0.39239   0.00000  Uiso   1.00
C195   C     0.53042   0.82518   0.46715   0.00000  Uiso   1.00
C196   C     0.58256   0.76960   0.47228   0.00000  Uiso   1.00
C197   C     0.68034   0.69618   0.51226   0.00000  Uiso   1.00
C198   C     0.40544   0.74978   0.24940   0.00000  Uiso   1.00
C199   C     0.32345   0.74459   0.27794   0.00000  Uiso   1.00
C200   C     0.25139   0.68430   0.24328   0.00000  Uiso   1.00
C201   C     0.18295   0.69042   0.27830   0.00000  Uiso   1.00
C202   C     0.42633   0.83553   0.22997   0.00000  Uiso   1.00
C203   C     0.44077   0.85169   0.15499   0.00000  Uiso   1.00
C204   C     0.45894   0.93437   0.14963   0.00000  Uiso   1.00
C205   C     0.47106   0.75015   0.32513   0.00000  Uiso   1.00
C206   C     0.52312   0.69454   0.33015   0.00000  Uiso   1.00
C207   C     0.57898   0.70535   0.40490   0.00000  Uiso   1.00
H208   H     0.41482   0.91779   0.42558   0.00000  Uiso   1.00
H209   H     0.26148   0.86458   0.43231   0.00000  Uiso   1.00
H210   H     0.45084   0.03194   0.34404   0.00000  Uiso   1.00
H211   H     0.53317   0.87482   0.51918   0.00000  Uiso   1.00
H212   H     0.08988   0.77733   0.41010   0.00000  Uiso   1.00
H213   H     0.48918   0.13022   0.22398   0.00000  Uiso   1.00
H214   H     0.66282   0.79889   0.59329   0.00000  Uiso   1.00
H215   H     0.40265   0.69985   0.19704   0.00000  Uiso   1.00
H216   H     0.24864   0.63468   0.19123   0.00000  Uiso   1.00
H217   H     0.43800   0.80205   0.10296   0.00000  Uiso   1.00
H218   H     0.52034   0.64492   0.27809   0.00000  Uiso   1.00
H219   H     0.07946   0.59073   0.21442   0.00000  Uiso   1.00
H220   H     0.47876   0.94363   0.02831   0.00000  Uiso   1.00
H221   H     0.65240   0.61230   0.39761   0.00000  Uiso   1.00
O222   O     0.98357   0.64511   0.31255   0.00000  Uiso   1.00
O223   O     0.50745   0.10809   0.06838   0.00000  Uiso   1.00
O224   O     0.73525   0.67339   0.55290   0.00000  Uiso   1.00
N225   N     0.10857   0.74234   0.36485   0.00000  Uiso   1.00
N226   N     0.48188   0.07228   0.19084   0.00000  Uiso   1.00
N227   N     0.64423   0.76253   0.53610   0.00000  Uiso   1.00
N228   N     0.10296   0.64194   0.25956   0.00000  Uiso   1.00
N229   N     0.47627   0.97188   0.08555   0.00000  Uiso   1.00
N230   N     0.63862   0.66212   0.43082   0.00000  Uiso   1.00
C231   C     0.37355   0.41200   0.86796   0.00000  Uiso   1.00
C232   C     0.34544   0.32721   0.80896   0.00000  Uiso   1.00
C233   C     0.38070   0.25905   0.81519   0.00000  Uiso   1.00
C234   C     0.34598   0.18707   0.75506   0.00000  Uiso   1.00
C235   C     0.31258   0.05594   0.67322   0.00000  Uiso   1.00
C236   C     0.29719   0.42979   0.89964   0.00000  Uiso   1.00
C237   C     0.29189   0.44788   0.98212   0.00000  Uiso   1.00
C238   C     0.21656   0.46226   0.99832   0.00000  Uiso   1.00
C239   C     0.10826   0.49045   0.05726   0.00000  Uiso   1.00
C240   C     0.39280   0.47447   0.81449   0.00000  Uiso   1.00
C241   C     0.46788   0.53016   0.82540   0.00000  Uiso   1.00
C242   C     0.47303   0.58218   0.76993   0.00000  Uiso   1.00
C243   C     0.51319   0.67975   0.69667   0.00000  Uiso   1.00
C244   C     0.24919   0.40539   0.75007   0.00000  Uiso   1.00
C245   C     0.27789   0.32362   0.74493   0.00000  Uiso   1.00
C246   C     0.24311   0.25173   0.68477   0.00000  Uiso   1.00
C247   C     0.27831   0.18347   0.69092   0.00000  Uiso   1.00
C248   C     0.22964   0.42619   0.83561   0.00000  Uiso   1.00
C249   C     0.15429   0.44056   0.85169   0.00000  Uiso   1.00
C250   C     0.14888   0.45867   0.93418   0.00000  Uiso   1.00
C251   C     0.32525   0.47088   0.75046   0.00000  Uiso   1.00
C252   C     0.33028   0.52284   0.69497   0.00000  Uiso   1.00
C253   C     0.40536   0.57859   0.70578   0.00000  Uiso   1.00
H254   H     0.42614   0.41480   0.91781   0.00000  Uiso   1.00
H255   H     0.43298   0.26185   0.86476   0.00000  Uiso   1.00
H256   H     0.34418   0.45066   0.03166   0.00000  Uiso   1.00
H257   H     0.52014   0.53292   0.87496   0.00000  Uiso   1.00
H258   H     0.41074   0.09068   0.77773   0.00000  Uiso   1.00
H259   H     0.22352   0.48883   0.12964   0.00000  Uiso   1.00
H260   H     0.59457   0.66230   0.79921   0.00000  Uiso   1.00
H261   H     0.19659   0.40259   0.70022   0.00000  Uiso   1.00
H262   H     0.19083   0.24897   0.63523   0.00000  Uiso   1.00
H263   H     0.10204   0.43778   0.80213   0.00000  Uiso   1.00
H264   H     0.27800   0.52004   0.64543   0.00000  Uiso   1.00
H265   H     0.21421   0.08022   0.59143   0.00000  Uiso   1.00
H266   H     0.02699   0.47838   0.94335   0.00000  Uiso   1.00
H267   H     0.39804   0.65184   0.61291   0.00000  Uiso   1.00
O268   O     0.31281   0.98460   0.64577   0.00000  Uiso   1.00
O269   O     0.06719   0.50698   0.10747   0.00000  Uiso   1.00
O270   O     0.55400   0.73456   0.67394   0.00000  Uiso   1.00
N271   N     0.36529   0.10931   0.74279   0.00000  Uiso   1.00
N272   N     0.19025   0.48154   0.07181   0.00000  Uiso   1.00
N273   N     0.53714   0.64373   0.76290   0.00000  Uiso   1.00
N274   N     0.25954   0.10368   0.64255   0.00000  Uiso   1.00
N275   N     0.08449   0.47592   0.97157   0.00000  Uiso   1.00
N276   N     0.43138   0.63811   0.66265   0.00000  Uiso   1.00
