data_job_00907
_audit_creation_date              2018-12-19
_audit_creation_method            'Materials Studio'
_symmetry_space_group_name_H-M    'P1'
_symmetry_Int_Tables_number       1
_symmetry_cell_setting            triclinic
loop_
_symmetry_equiv_pos_as_xyz
  x,y,z
_cell_length_a                    19.3100
_cell_length_b                    11.5645
_cell_length_c                    21.5753
_cell_angle_alpha                 90.0000
_cell_angle_beta                  90.0000
_cell_angle_gamma                 90.0000
loop_
_atom_site_label
_atom_site_type_symbol
_atom_site_fract_x
_atom_site_fract_y
_atom_site_fract_z
_atom_site_U_iso_or_equiv
_atom_site_adp_type
_atom_site_occupancy
C1     C     0.56677   0.64133   0.41883   0.00000  Uiso   1.00
C2     C     0.58609   0.76809   0.40984   0.00000  Uiso   1.00
C3     C     0.61619   0.83914   0.45412   0.00000  Uiso   1.00
C4     C     0.62985   0.95252   0.43683   0.00000  Uiso   1.00
C5     C     0.66223   0.14315   0.43192   0.00000  Uiso   1.00
C6     C     0.48980   0.63243   0.40377   0.00000  Uiso   1.00
C7     C     0.43895   0.58941   0.44295   0.00000  Uiso   1.00
C8     C     0.37155   0.58858   0.42055   0.00000  Uiso   1.00
C9     C     0.25445   0.56852   0.40620   0.00000  Uiso   1.00
C10    C     0.60435   0.57488   0.36789   0.00000  Uiso   1.00
C11    C     0.64981   0.48345   0.37690   0.00000  Uiso   1.00
C12    C     0.67883   0.43414   0.32429   0.00000  Uiso   1.00
C13    C     0.73959   0.32472   0.25423   0.00000  Uiso   1.00
C14    C     0.53749   0.71632   0.30939   0.00000  Uiso   1.00
C15    C     0.57018   0.80881   0.35039   0.00000  Uiso   1.00
C16    C     0.58379   0.92211   0.33303   0.00000  Uiso   1.00
C17    C     0.61391   0.99332   0.37728   0.00000  Uiso   1.00
C18    C     0.47389   0.67316   0.34433   0.00000  Uiso   1.00
C19    C     0.40655   0.67238   0.32186   0.00000  Uiso   1.00
C20    C     0.35561   0.62938   0.36100   0.00000  Uiso   1.00
C21    C     0.58845   0.61561   0.30844   0.00000  Uiso   1.00
C22    C     0.61741   0.56642   0.25581   0.00000  Uiso   1.00
C23    C     0.66290   0.47494   0.26473   0.00000  Uiso   1.00
H24    H     0.57915   0.60962   0.46512   0.00000  Uiso   1.00
H25    H     0.62849   0.80759   0.50012   0.00000  Uiso   1.00
H26    H     0.45128   0.55789   0.48895   0.00000  Uiso   1.00
H27    H     0.66210   0.45195   0.42291   0.00000  Uiso   1.00
H28    H     0.67615   0.04506   0.51272   0.00000  Uiso   1.00
H29    H     0.30249   0.51851   0.48916   0.00000  Uiso   1.00
H30    H     0.74705   0.29510   0.34990   0.00000  Uiso   1.00
H31    H     0.52510   0.74803   0.26311   0.00000  Uiso   1.00
H32    H     0.57148   0.95360   0.28703   0.00000  Uiso   1.00
H33    H     0.39426   0.70390   0.27586   0.00000  Uiso   1.00
H34    H     0.60508   0.59796   0.20981   0.00000  Uiso   1.00
H35    H     0.62987   0.16357   0.33977   0.00000  Uiso   1.00
H36    H     0.25621   0.63701   0.31620   0.00000  Uiso   1.00
H37    H     0.70078   0.41361   0.17694   0.00000  Uiso   1.00
O38    O     0.68447   0.23706   0.44563   0.00000  Uiso   1.00
O39    O     0.19425   0.54622   0.41471   0.00000  Uiso   1.00
O40    O     0.77751   0.25313   0.23200   0.00000  Uiso   1.00
N41    N     0.65891   0.04473   0.46873   0.00000  Uiso   1.00
N42    N     0.30956   0.55245   0.44670   0.00000  Uiso   1.00
N43    N     0.72517   0.34357   0.31650   0.00000  Uiso   1.00
N44    N     0.63401   0.10850   0.37567   0.00000  Uiso   1.00
N45    N     0.28465   0.61622   0.35364   0.00000  Uiso   1.00
N46    N     0.70027   0.40734   0.22344   0.00000  Uiso   1.00
C47    C     0.93323   0.35867   0.91883   0.00000  Uiso   1.00
C48    C     0.91391   0.23191   0.90984   0.00000  Uiso   1.00
C49    C     0.88381   0.16086   0.95412   0.00000  Uiso   1.00
C50    C     0.87015   0.04748   0.93683   0.00000  Uiso   1.00
C51    C     0.83777   0.85685   0.93192   0.00000  Uiso   1.00
C52    C     0.01020   0.36757   0.90377   0.00000  Uiso   1.00
C53    C     0.06105   0.41059   0.94295   0.00000  Uiso   1.00
C54    C     0.12845   0.41142   0.92055   0.00000  Uiso   1.00
C55    C     0.24555   0.43148   0.90620   0.00000  Uiso   1.00
C56    C     0.89565   0.42512   0.86789   0.00000  Uiso   1.00
C57    C     0.85019   0.51655   0.87690   0.00000  Uiso   1.00
C58    C     0.82117   0.56586   0.82429   0.00000  Uiso   1.00
C59    C     0.76041   0.67528   0.75423   0.00000  Uiso   1.00
C60    C     0.96251   0.28368   0.80939   0.00000  Uiso   1.00
C61    C     0.92982   0.19119   0.85039   0.00000  Uiso   1.00
C62    C     0.91621   0.07789   0.83303   0.00000  Uiso   1.00
C63    C     0.88609   0.00668   0.87728   0.00000  Uiso   1.00
C64    C     0.02611   0.32684   0.84433   0.00000  Uiso   1.00
C65    C     0.09345   0.32762   0.82186   0.00000  Uiso   1.00
C66    C     0.14439   0.37062   0.86100   0.00000  Uiso   1.00
C67    C     0.91155   0.38439   0.80844   0.00000  Uiso   1.00
C68    C     0.88259   0.43358   0.75581   0.00000  Uiso   1.00
C69    C     0.83710   0.52506   0.76473   0.00000  Uiso   1.00
H70    H     0.92085   0.39038   0.96512   0.00000  Uiso   1.00
H71    H     0.87151   0.19241   0.00012   0.00000  Uiso   1.00
H72    H     0.04872   0.44211   0.98895   0.00000  Uiso   1.00
H73    H     0.83790   0.54805   0.92291   0.00000  Uiso   1.00
H74    H     0.82385   0.95494   0.01272   0.00000  Uiso   1.00
H75    H     0.19751   0.48149   0.98916   0.00000  Uiso   1.00
H76    H     0.75295   0.70490   0.84990   0.00000  Uiso   1.00
H77    H     0.97490   0.25197   0.76311   0.00000  Uiso   1.00
H78    H     0.92852   0.04640   0.78703   0.00000  Uiso   1.00
H79    H     0.10574   0.29610   0.77586   0.00000  Uiso   1.00
H80    H     0.89492   0.40204   0.70981   0.00000  Uiso   1.00
H81    H     0.87013   0.83643   0.83977   0.00000  Uiso   1.00
H82    H     0.24379   0.36299   0.81620   0.00000  Uiso   1.00
H83    H     0.79922   0.58639   0.67694   0.00000  Uiso   1.00
O84    O     0.81553   0.76294   0.94563   0.00000  Uiso   1.00
O85    O     0.30575   0.45378   0.91471   0.00000  Uiso   1.00
O86    O     0.72249   0.74687   0.73200   0.00000  Uiso   1.00
N87    N     0.84109   0.95527   0.96873   0.00000  Uiso   1.00
N88    N     0.19044   0.44755   0.94670   0.00000  Uiso   1.00
N89    N     0.77483   0.65643   0.81650   0.00000  Uiso   1.00
N90    N     0.86599   0.89150   0.87567   0.00000  Uiso   1.00
N91    N     0.21535   0.38378   0.85364   0.00000  Uiso   1.00
N92    N     0.79973   0.59266   0.72344   0.00000  Uiso   1.00
C93    C     0.43323   0.14133   0.08117   0.00000  Uiso   1.00
C94    C     0.41391   0.26809   0.09016   0.00000  Uiso   1.00
C95    C     0.38381   0.33914   0.04588   0.00000  Uiso   1.00
C96    C     0.37015   0.45252   0.06317   0.00000  Uiso   1.00
C97    C     0.33777   0.64315   0.06808   0.00000  Uiso   1.00
C98    C     0.51020   0.13243   0.09623   0.00000  Uiso   1.00
C99    C     0.56105   0.08941   0.05705   0.00000  Uiso   1.00
C100   C     0.62845   0.08858   0.07945   0.00000  Uiso   1.00
C101   C     0.74555   0.06852   0.09380   0.00000  Uiso   1.00
C102   C     0.39565   0.07488   0.13211   0.00000  Uiso   1.00
C103   C     0.35019   0.98345   0.12310   0.00000  Uiso   1.00
C104   C     0.32117   0.93414   0.17571   0.00000  Uiso   1.00
C105   C     0.26041   0.82472   0.24577   0.00000  Uiso   1.00
C106   C     0.46251   0.21632   0.19061   0.00000  Uiso   1.00
C107   C     0.42982   0.30881   0.14961   0.00000  Uiso   1.00
C108   C     0.41621   0.42211   0.16697   0.00000  Uiso   1.00
C109   C     0.38609   0.49332   0.12272   0.00000  Uiso   1.00
C110   C     0.52611   0.17316   0.15567   0.00000  Uiso   1.00
C111   C     0.59345   0.17238   0.17814   0.00000  Uiso   1.00
C112   C     0.64439   0.12938   0.13900   0.00000  Uiso   1.00
C113   C     0.41155   0.11561   0.19156   0.00000  Uiso   1.00
C114   C     0.38259   0.06642   0.24419   0.00000  Uiso   1.00
C115   C     0.33710   0.97494   0.23527   0.00000  Uiso   1.00
H116   H     0.42085   0.10962   0.03488   0.00000  Uiso   1.00
H117   H     0.37151   0.30759   0.99988   0.00000  Uiso   1.00
H118   H     0.54872   0.05789   0.01105   0.00000  Uiso   1.00
H119   H     0.33790   0.95195   0.07709   0.00000  Uiso   1.00
H120   H     0.32385   0.54506   0.98728   0.00000  Uiso   1.00
H121   H     0.69751   0.01851   0.01084   0.00000  Uiso   1.00
H122   H     0.25295   0.79510   0.15010   0.00000  Uiso   1.00
H123   H     0.47490   0.24803   0.23689   0.00000  Uiso   1.00
H124   H     0.42852   0.45360   0.21297   0.00000  Uiso   1.00
H125   H     0.60574   0.20390   0.22414   0.00000  Uiso   1.00
H126   H     0.39492   0.09796   0.29019   0.00000  Uiso   1.00
H127   H     0.37013   0.66357   0.16023   0.00000  Uiso   1.00
H128   H     0.74379   0.13701   0.18380   0.00000  Uiso   1.00
H129   H     0.29922   0.91361   0.32306   0.00000  Uiso   1.00
O130   O     0.31553   0.73706   0.05437   0.00000  Uiso   1.00
O131   O     0.80575   0.04622   0.08529   0.00000  Uiso   1.00
O132   O     0.22249   0.75313   0.26800   0.00000  Uiso   1.00
N133   N     0.34109   0.54473   0.03127   0.00000  Uiso   1.00
N134   N     0.69044   0.05245   0.05330   0.00000  Uiso   1.00
N135   N     0.27483   0.84357   0.18350   0.00000  Uiso   1.00
N136   N     0.36599   0.60850   0.12433   0.00000  Uiso   1.00
N137   N     0.71535   0.11622   0.14636   0.00000  Uiso   1.00
N138   N     0.29973   0.90734   0.27656   0.00000  Uiso   1.00
C139   C     0.06677   0.85867   0.58117   0.00000  Uiso   1.00
C140   C     0.08609   0.73191   0.59016   0.00000  Uiso   1.00
C141   C     0.11619   0.66086   0.54588   0.00000  Uiso   1.00
C142   C     0.12985   0.54748   0.56317   0.00000  Uiso   1.00
C143   C     0.16223   0.35685   0.56808   0.00000  Uiso   1.00
C144   C     0.98980   0.86757   0.59623   0.00000  Uiso   1.00
C145   C     0.93895   0.91059   0.55705   0.00000  Uiso   1.00
C146   C     0.87155   0.91142   0.57945   0.00000  Uiso   1.00
C147   C     0.75445   0.93148   0.59380   0.00000  Uiso   1.00
C148   C     0.10435   0.92512   0.63211   0.00000  Uiso   1.00
C149   C     0.14981   0.01655   0.62310   0.00000  Uiso   1.00
C150   C     0.17883   0.06586   0.67571   0.00000  Uiso   1.00
C151   C     0.23959   0.17528   0.74577   0.00000  Uiso   1.00
C152   C     0.03749   0.78368   0.69061   0.00000  Uiso   1.00
C153   C     0.07018   0.69119   0.64961   0.00000  Uiso   1.00
C154   C     0.08379   0.57789   0.66697   0.00000  Uiso   1.00
C155   C     0.11391   0.50668   0.62272   0.00000  Uiso   1.00
C156   C     0.97389   0.82684   0.65567   0.00000  Uiso   1.00
C157   C     0.90655   0.82762   0.67814   0.00000  Uiso   1.00
C158   C     0.85561   0.87062   0.63900   0.00000  Uiso   1.00
C159   C     0.08845   0.88439   0.69156   0.00000  Uiso   1.00
C160   C     0.11741   0.93358   0.74419   0.00000  Uiso   1.00
C161   C     0.16290   0.02506   0.73527   0.00000  Uiso   1.00
H162   H     0.07915   0.89038   0.53488   0.00000  Uiso   1.00
H163   H     0.12849   0.69241   0.49988   0.00000  Uiso   1.00
H164   H     0.95128   0.94211   0.51105   0.00000  Uiso   1.00
H165   H     0.16210   0.04805   0.57709   0.00000  Uiso   1.00
H166   H     0.17615   0.45494   0.48728   0.00000  Uiso   1.00
H167   H     0.80249   0.98149   0.51084   0.00000  Uiso   1.00
H168   H     0.24705   0.20490   0.65010   0.00000  Uiso   1.00
H169   H     0.02510   0.75197   0.73689   0.00000  Uiso   1.00
H170   H     0.07148   0.54640   0.71297   0.00000  Uiso   1.00
H171   H     0.89426   0.79610   0.72414   0.00000  Uiso   1.00
H172   H     0.10508   0.90204   0.79019   0.00000  Uiso   1.00
H173   H     0.12987   0.33643   0.66023   0.00000  Uiso   1.00
H174   H     0.75621   0.86299   0.68380   0.00000  Uiso   1.00
H175   H     0.20078   0.08639   0.82306   0.00000  Uiso   1.00
O176   O     0.18447   0.26294   0.55437   0.00000  Uiso   1.00
O177   O     0.69425   0.95378   0.58529   0.00000  Uiso   1.00
O178   O     0.27751   0.24687   0.76800   0.00000  Uiso   1.00
N179   N     0.15891   0.45527   0.53127   0.00000  Uiso   1.00
N180   N     0.80956   0.94755   0.55330   0.00000  Uiso   1.00
N181   N     0.22517   0.15643   0.68350   0.00000  Uiso   1.00
N182   N     0.13401   0.39150   0.62433   0.00000  Uiso   1.00
N183   N     0.78465   0.88378   0.64636   0.00000  Uiso   1.00
N184   N     0.20027   0.09266   0.77656   0.00000  Uiso   1.00
C185   C     0.43323   0.35867   0.58117   0.00000  Uiso   1.00
C186   C     0.41391   0.23191   0.59016   0.00000  Uiso   1.00
C187   C     0.38381   0.16086   0.54588   0.00000  Uiso   1.00
C188   C     0.37015   0.04748   0.56317   0.00000  Uiso   1.00
C189   C     0.33777   0.85685   0.56808   0.00000  Uiso   1.00
C190   C     0.51020   0.36757   0.59623   0.00000  Uiso   1.00
C191   C     0.56105   0.41059   0.55705   0.00000  Uiso   1.00
C192   C     0.62845   0.41142   0.57945   0.00000  Uiso   1.00
C193   C     0.74555   0.43148   0.59380   0.00000  Uiso   1.00
C194   C     0.39565   0.42512   0.63211   0.00000  Uiso   1.00
C195   C     0.35019   0.51655   0.62310   0.00000  Uiso   1.00
C196   C     0.32117   0.56586   0.67571   0.00000  Uiso   1.00
C197   C     0.26041   0.67528   0.74577   0.00000  Uiso   1.00
C198   C     0.46251   0.28368   0.69061   0.00000  Uiso   1.00
C199   C     0.42982   0.19119   0.64961   0.00000  Uiso   1.00
C200   C     0.41621   0.07789   0.66697   0.00000  Uiso   1.00
C201   C     0.38609   0.00668   0.62272   0.00000  Uiso   1.00
C202   C     0.52611   0.32684   0.65567   0.00000  Uiso   1.00
C203   C     0.59345   0.32762   0.67814   0.00000  Uiso   1.00
C204   C     0.64439   0.37062   0.63900   0.00000  Uiso   1.00
C205   C     0.41155   0.38439   0.69156   0.00000  Uiso   1.00
C206   C     0.38259   0.43358   0.74419   0.00000  Uiso   1.00
C207   C     0.33710   0.52506   0.73527   0.00000  Uiso   1.00
H208   H     0.42085   0.39038   0.53488   0.00000  Uiso   1.00
H209   H     0.37151   0.19241   0.49988   0.00000  Uiso   1.00
H210   H     0.54872   0.44211   0.51105   0.00000  Uiso   1.00
H211   H     0.33790   0.54805   0.57709   0.00000  Uiso   1.00
H212   H     0.32385   0.95494   0.48728   0.00000  Uiso   1.00
H213   H     0.69751   0.48149   0.51084   0.00000  Uiso   1.00
H214   H     0.25295   0.70490   0.65010   0.00000  Uiso   1.00
H215   H     0.47490   0.25197   0.73689   0.00000  Uiso   1.00
H216   H     0.42852   0.04640   0.71297   0.00000  Uiso   1.00
H217   H     0.60574   0.29610   0.72414   0.00000  Uiso   1.00
H218   H     0.39492   0.40204   0.79019   0.00000  Uiso   1.00
H219   H     0.37013   0.83643   0.66023   0.00000  Uiso   1.00
H220   H     0.74379   0.36299   0.68380   0.00000  Uiso   1.00
H221   H     0.29922   0.58639   0.82306   0.00000  Uiso   1.00
O222   O     0.31553   0.76294   0.55437   0.00000  Uiso   1.00
O223   O     0.80575   0.45378   0.58529   0.00000  Uiso   1.00
O224   O     0.22249   0.74687   0.76800   0.00000  Uiso   1.00
N225   N     0.34109   0.95527   0.53127   0.00000  Uiso   1.00
N226   N     0.69044   0.44755   0.55330   0.00000  Uiso   1.00
N227   N     0.27483   0.65643   0.68350   0.00000  Uiso   1.00
N228   N     0.36599   0.89150   0.62433   0.00000  Uiso   1.00
N229   N     0.71535   0.38378   0.64636   0.00000  Uiso   1.00
N230   N     0.29973   0.59266   0.77656   0.00000  Uiso   1.00
C231   C     0.06677   0.64133   0.08117   0.00000  Uiso   1.00
C232   C     0.08609   0.76809   0.09016   0.00000  Uiso   1.00
C233   C     0.11619   0.83914   0.04588   0.00000  Uiso   1.00
C234   C     0.12985   0.95252   0.06317   0.00000  Uiso   1.00
C235   C     0.16223   0.14315   0.06808   0.00000  Uiso   1.00
C236   C     0.98980   0.63243   0.09623   0.00000  Uiso   1.00
C237   C     0.93895   0.58941   0.05705   0.00000  Uiso   1.00
C238   C     0.87155   0.58858   0.07945   0.00000  Uiso   1.00
C239   C     0.75445   0.56852   0.09380   0.00000  Uiso   1.00
C240   C     0.10435   0.57488   0.13211   0.00000  Uiso   1.00
C241   C     0.14981   0.48345   0.12310   0.00000  Uiso   1.00
C242   C     0.17883   0.43414   0.17571   0.00000  Uiso   1.00
C243   C     0.23959   0.32472   0.24577   0.00000  Uiso   1.00
C244   C     0.03749   0.71632   0.19061   0.00000  Uiso   1.00
C245   C     0.07018   0.80881   0.14961   0.00000  Uiso   1.00
C246   C     0.08379   0.92211   0.16697   0.00000  Uiso   1.00
C247   C     0.11391   0.99332   0.12272   0.00000  Uiso   1.00
C248   C     0.97389   0.67316   0.15567   0.00000  Uiso   1.00
C249   C     0.90655   0.67238   0.17814   0.00000  Uiso   1.00
C250   C     0.85561   0.62938   0.13900   0.00000  Uiso   1.00
C251   C     0.08845   0.61561   0.19156   0.00000  Uiso   1.00
C252   C     0.11741   0.56642   0.24419   0.00000  Uiso   1.00
C253   C     0.16290   0.47494   0.23527   0.00000  Uiso   1.00
H254   H     0.07915   0.60962   0.03488   0.00000  Uiso   1.00
H255   H     0.12849   0.80759   0.99988   0.00000  Uiso   1.00
H256   H     0.95128   0.55789   0.01105   0.00000  Uiso   1.00
H257   H     0.16210   0.45195   0.07709   0.00000  Uiso   1.00
H258   H     0.17615   0.04506   0.98728   0.00000  Uiso   1.00
H259   H     0.80249   0.51851   0.01084   0.00000  Uiso   1.00
H260   H     0.24705   0.29510   0.15010   0.00000  Uiso   1.00
H261   H     0.02510   0.74803   0.23689   0.00000  Uiso   1.00
H262   H     0.07148   0.95360   0.21297   0.00000  Uiso   1.00
H263   H     0.89426   0.70390   0.22414   0.00000  Uiso   1.00
H264   H     0.10508   0.59796   0.29019   0.00000  Uiso   1.00
H265   H     0.12987   0.16357   0.16023   0.00000  Uiso   1.00
H266   H     0.75621   0.63701   0.18380   0.00000  Uiso   1.00
H267   H     0.20078   0.41361   0.32306   0.00000  Uiso   1.00
O268   O     0.18447   0.23706   0.05437   0.00000  Uiso   1.00
O269   O     0.69425   0.54622   0.08529   0.00000  Uiso   1.00
O270   O     0.27751   0.25313   0.26800   0.00000  Uiso   1.00
N271   N     0.15891   0.04473   0.03127   0.00000  Uiso   1.00
N272   N     0.80956   0.55245   0.05330   0.00000  Uiso   1.00
N273   N     0.22517   0.34357   0.18350   0.00000  Uiso   1.00
N274   N     0.13401   0.10850   0.12433   0.00000  Uiso   1.00
N275   N     0.78465   0.61622   0.14636   0.00000  Uiso   1.00
N276   N     0.20027   0.40734   0.27656   0.00000  Uiso   1.00
C277   C     0.56677   0.85867   0.91883   0.00000  Uiso   1.00
C278   C     0.58609   0.73191   0.90984   0.00000  Uiso   1.00
C279   C     0.61619   0.66086   0.95412   0.00000  Uiso   1.00
C280   C     0.62985   0.54748   0.93683   0.00000  Uiso   1.00
C281   C     0.66223   0.35685   0.93192   0.00000  Uiso   1.00
C282   C     0.48980   0.86757   0.90377   0.00000  Uiso   1.00
C283   C     0.43895   0.91059   0.94295   0.00000  Uiso   1.00
C284   C     0.37155   0.91142   0.92055   0.00000  Uiso   1.00
C285   C     0.25445   0.93148   0.90620   0.00000  Uiso   1.00
C286   C     0.60435   0.92512   0.86789   0.00000  Uiso   1.00
C287   C     0.64981   0.01655   0.87690   0.00000  Uiso   1.00
C288   C     0.67883   0.06586   0.82429   0.00000  Uiso   1.00
C289   C     0.73959   0.17528   0.75423   0.00000  Uiso   1.00
C290   C     0.53749   0.78368   0.80939   0.00000  Uiso   1.00
C291   C     0.57018   0.69119   0.85039   0.00000  Uiso   1.00
C292   C     0.58379   0.57789   0.83303   0.00000  Uiso   1.00
C293   C     0.61391   0.50668   0.87728   0.00000  Uiso   1.00
C294   C     0.47389   0.82684   0.84433   0.00000  Uiso   1.00
C295   C     0.40655   0.82762   0.82186   0.00000  Uiso   1.00
C296   C     0.35561   0.87062   0.86100   0.00000  Uiso   1.00
C297   C     0.58845   0.88439   0.80844   0.00000  Uiso   1.00
C298   C     0.61741   0.93358   0.75581   0.00000  Uiso   1.00
C299   C     0.66290   0.02506   0.76473   0.00000  Uiso   1.00
H300   H     0.57915   0.89038   0.96512   0.00000  Uiso   1.00
H301   H     0.62849   0.69241   0.00012   0.00000  Uiso   1.00
H302   H     0.45128   0.94211   0.98895   0.00000  Uiso   1.00
H303   H     0.66210   0.04805   0.92291   0.00000  Uiso   1.00
H304   H     0.67615   0.45494   0.01272   0.00000  Uiso   1.00
H305   H     0.30249   0.98149   0.98916   0.00000  Uiso   1.00
H306   H     0.74705   0.20490   0.84990   0.00000  Uiso   1.00
H307   H     0.52510   0.75197   0.76311   0.00000  Uiso   1.00
H308   H     0.57148   0.54640   0.78703   0.00000  Uiso   1.00
H309   H     0.39426   0.79610   0.77586   0.00000  Uiso   1.00
H310   H     0.60508   0.90204   0.70981   0.00000  Uiso   1.00
H311   H     0.62987   0.33643   0.83977   0.00000  Uiso   1.00
H312   H     0.25621   0.86299   0.81620   0.00000  Uiso   1.00
H313   H     0.70078   0.08639   0.67694   0.00000  Uiso   1.00
O314   O     0.68447   0.26294   0.94563   0.00000  Uiso   1.00
O315   O     0.19425   0.95378   0.91471   0.00000  Uiso   1.00
O316   O     0.77751   0.24687   0.73200   0.00000  Uiso   1.00
N317   N     0.65891   0.45527   0.96873   0.00000  Uiso   1.00
N318   N     0.30956   0.94755   0.94670   0.00000  Uiso   1.00
N319   N     0.72517   0.15643   0.81650   0.00000  Uiso   1.00
N320   N     0.63401   0.39150   0.87567   0.00000  Uiso   1.00
N321   N     0.28465   0.88378   0.85364   0.00000  Uiso   1.00
N322   N     0.70027   0.09266   0.72344   0.00000  Uiso   1.00
C323   C     0.93323   0.14133   0.41883   0.00000  Uiso   1.00
C324   C     0.91391   0.26809   0.40984   0.00000  Uiso   1.00
C325   C     0.88381   0.33914   0.45412   0.00000  Uiso   1.00
C326   C     0.87015   0.45252   0.43683   0.00000  Uiso   1.00
C327   C     0.83777   0.64315   0.43192   0.00000  Uiso   1.00
C328   C     0.01020   0.13243   0.40377   0.00000  Uiso   1.00
C329   C     0.06105   0.08941   0.44295   0.00000  Uiso   1.00
C330   C     0.12845   0.08858   0.42055   0.00000  Uiso   1.00
C331   C     0.24555   0.06852   0.40620   0.00000  Uiso   1.00
C332   C     0.89565   0.07488   0.36789   0.00000  Uiso   1.00
C333   C     0.85019   0.98345   0.37690   0.00000  Uiso   1.00
C334   C     0.82117   0.93414   0.32429   0.00000  Uiso   1.00
C335   C     0.76041   0.82472   0.25423   0.00000  Uiso   1.00
C336   C     0.96251   0.21632   0.30939   0.00000  Uiso   1.00
C337   C     0.92982   0.30881   0.35039   0.00000  Uiso   1.00
C338   C     0.91621   0.42211   0.33303   0.00000  Uiso   1.00
C339   C     0.88609   0.49332   0.37728   0.00000  Uiso   1.00
C340   C     0.02611   0.17316   0.34433   0.00000  Uiso   1.00
C341   C     0.09345   0.17238   0.32186   0.00000  Uiso   1.00
C342   C     0.14439   0.12938   0.36100   0.00000  Uiso   1.00
C343   C     0.91155   0.11561   0.30844   0.00000  Uiso   1.00
C344   C     0.88259   0.06642   0.25581   0.00000  Uiso   1.00
C345   C     0.83710   0.97494   0.26473   0.00000  Uiso   1.00
H346   H     0.92085   0.10962   0.46512   0.00000  Uiso   1.00
H347   H     0.87151   0.30759   0.50012   0.00000  Uiso   1.00
H348   H     0.04872   0.05789   0.48895   0.00000  Uiso   1.00
H349   H     0.83790   0.95195   0.42291   0.00000  Uiso   1.00
H350   H     0.82385   0.54506   0.51272   0.00000  Uiso   1.00
H351   H     0.19751   0.01851   0.48916   0.00000  Uiso   1.00
H352   H     0.75295   0.79510   0.34990   0.00000  Uiso   1.00
H353   H     0.97490   0.24803   0.26311   0.00000  Uiso   1.00
H354   H     0.92852   0.45360   0.28703   0.00000  Uiso   1.00
H355   H     0.10574   0.20390   0.27586   0.00000  Uiso   1.00
H356   H     0.89492   0.09796   0.20981   0.00000  Uiso   1.00
H357   H     0.87013   0.66357   0.33977   0.00000  Uiso   1.00
H358   H     0.24379   0.13701   0.31620   0.00000  Uiso   1.00
H359   H     0.79922   0.91361   0.17694   0.00000  Uiso   1.00
O360   O     0.81553   0.73706   0.44563   0.00000  Uiso   1.00
O361   O     0.30575   0.04622   0.41471   0.00000  Uiso   1.00
O362   O     0.72249   0.75313   0.23200   0.00000  Uiso   1.00
N363   N     0.84109   0.54473   0.46873   0.00000  Uiso   1.00
N364   N     0.19044   0.05245   0.44670   0.00000  Uiso   1.00
N365   N     0.77483   0.84357   0.31650   0.00000  Uiso   1.00
N366   N     0.86599   0.60850   0.37567   0.00000  Uiso   1.00
N367   N     0.21535   0.11622   0.35364   0.00000  Uiso   1.00
N368   N     0.79973   0.90734   0.22344   0.00000  Uiso   1.00
