data_job_05485
_audit_creation_date              2018-12-19
_audit_creation_method            'Materials Studio'
_symmetry_space_group_name_H-M    'P1'
_symmetry_Int_Tables_number       1
_symmetry_cell_setting            triclinic
loop_
_symmetry_equiv_pos_as_xyz
  x,y,z
_cell_length_a                    17.5319
_cell_length_b                    17.0091
_cell_length_c                    21.5079
_cell_angle_alpha                 90.0000
_cell_angle_beta                  90.0000
_cell_angle_gamma                 90.0000
loop_
_atom_site_label
_atom_site_type_symbol
_atom_site_fract_x
_atom_site_fract_y
_atom_site_fract_z
_atom_site_U_iso_or_equiv
_atom_site_adp_type
_atom_site_occupancy
C1     C     0.61984   0.15720   0.57599   0.00000  Uiso   1.00
C2     C     0.54598   0.12490   0.60338   0.00000  Uiso   1.00
C3     C     0.53329   0.04756   0.62114   0.00000  Uiso   1.00
C4     C     0.46185   0.02977   0.64518   0.00000  Uiso   1.00
C5     C     0.35578   0.97085   0.68676   0.00000  Uiso   1.00
C6     C     0.59817   0.19448   0.51397   0.00000  Uiso   1.00
C7     C     0.62936   0.17564   0.45656   0.00000  Uiso   1.00
C8     C     0.60185   0.21643   0.40534   0.00000  Uiso   1.00
C9     C     0.57684   0.26557   0.30812   0.00000  Uiso   1.00
C10    C     0.64387   0.22482   0.61821   0.00000  Uiso   1.00
C11    C     0.71351   0.23152   0.64844   0.00000  Uiso   1.00
C12    C     0.72449   0.29787   0.68497   0.00000  Uiso   1.00
C13    C     0.77044   0.39413   0.74960   0.00000  Uiso   1.00
C14    C     0.51553   0.26313   0.58709   0.00000  Uiso   1.00
C15    C     0.48933   0.18244   0.60940   0.00000  Uiso   1.00
C16    C     0.41789   0.16476   0.63342   0.00000  Uiso   1.00
C17    C     0.40509   0.08741   0.65122   0.00000  Uiso   1.00
C18    C     0.54151   0.25201   0.52000   0.00000  Uiso   1.00
C19    C     0.51396   0.29284   0.46884   0.00000  Uiso   1.00
C20    C     0.54510   0.27407   0.41138   0.00000  Uiso   1.00
C21    C     0.58722   0.28236   0.62424   0.00000  Uiso   1.00
C22    C     0.59810   0.34871   0.66072   0.00000  Uiso   1.00
C23    C     0.66773   0.35551   0.69101   0.00000  Uiso   1.00
H24    H     0.66395   0.11241   0.57129   0.00000  Uiso   1.00
H25    H     0.57715   0.00305   0.61646   0.00000  Uiso   1.00
H26    H     0.67321   0.13112   0.45191   0.00000  Uiso   1.00
H27    H     0.75734   0.18698   0.64376   0.00000  Uiso   1.00
H28    H     0.45593   0.90717   0.66919   0.00000  Uiso   1.00
H29    H     0.65849   0.17723   0.32223   0.00000  Uiso   1.00
H30    H     0.83589   0.29504   0.72678   0.00000  Uiso   1.00
H31    H     0.47142   0.30793   0.59178   0.00000  Uiso   1.00
H32    H     0.37405   0.20929   0.63808   0.00000  Uiso   1.00
H33    H     0.47011   0.33737   0.47353   0.00000  Uiso   1.00
H34    H     0.55424   0.39323   0.66538   0.00000  Uiso   1.00
H35    H     0.29109   0.07456   0.68673   0.00000  Uiso   1.00
H36    H     0.49365   0.34463   0.33977   0.00000  Uiso   1.00
H37    H     0.67105   0.46243   0.74432   0.00000  Uiso   1.00
O38    O     0.31293   0.92245   0.70803   0.00000  Uiso   1.00
O39    O     0.57869   0.27677   0.25283   0.00000  Uiso   1.00
O40    O     0.81143   0.43132   0.78359   0.00000  Uiso   1.00
N41    N     0.43050   0.96011   0.66697   0.00000  Uiso   1.00
N42    N     0.61988   0.21259   0.34258   0.00000  Uiso   1.00
N43    N     0.78574   0.32274   0.72079   0.00000  Uiso   1.00
N44    N     0.34180   0.05018   0.67641   0.00000  Uiso   1.00
N45    N     0.53118   0.30267   0.35202   0.00000  Uiso   1.00
N46    N     0.69704   0.41281   0.73023   0.00000  Uiso   1.00
C47    C     0.88016   0.84280   0.57599   0.00000  Uiso   1.00
C48    C     0.95402   0.87510   0.60338   0.00000  Uiso   1.00
C49    C     0.96671   0.95244   0.62114   0.00000  Uiso   1.00
C50    C     0.03815   0.97023   0.64518   0.00000  Uiso   1.00
C51    C     0.14422   0.02915   0.68676   0.00000  Uiso   1.00
C52    C     0.90183   0.80552   0.51397   0.00000  Uiso   1.00
C53    C     0.87064   0.82436   0.45656   0.00000  Uiso   1.00
C54    C     0.89815   0.78357   0.40534   0.00000  Uiso   1.00
C55    C     0.92316   0.73443   0.30812   0.00000  Uiso   1.00
C56    C     0.85613   0.77518   0.61821   0.00000  Uiso   1.00
C57    C     0.78649   0.76848   0.64844   0.00000  Uiso   1.00
C58    C     0.77551   0.70213   0.68497   0.00000  Uiso   1.00
C59    C     0.72956   0.60587   0.74960   0.00000  Uiso   1.00
C60    C     0.98447   0.73687   0.58709   0.00000  Uiso   1.00
C61    C     0.01067   0.81756   0.60940   0.00000  Uiso   1.00
C62    C     0.08211   0.83524   0.63342   0.00000  Uiso   1.00
C63    C     0.09491   0.91259   0.65122   0.00000  Uiso   1.00
C64    C     0.95849   0.74799   0.52000   0.00000  Uiso   1.00
C65    C     0.98604   0.70716   0.46884   0.00000  Uiso   1.00
C66    C     0.95490   0.72593   0.41138   0.00000  Uiso   1.00
C67    C     0.91278   0.71764   0.62424   0.00000  Uiso   1.00
C68    C     0.90190   0.65129   0.66072   0.00000  Uiso   1.00
C69    C     0.83227   0.64449   0.69101   0.00000  Uiso   1.00
H70    H     0.83605   0.88759   0.57129   0.00000  Uiso   1.00
H71    H     0.92285   0.99695   0.61646   0.00000  Uiso   1.00
H72    H     0.82679   0.86888   0.45191   0.00000  Uiso   1.00
H73    H     0.74266   0.81302   0.64376   0.00000  Uiso   1.00
H74    H     0.04407   0.09283   0.66919   0.00000  Uiso   1.00
H75    H     0.84151   0.82277   0.32223   0.00000  Uiso   1.00
H76    H     0.66411   0.70496   0.72678   0.00000  Uiso   1.00
H77    H     0.02858   0.69207   0.59178   0.00000  Uiso   1.00
H78    H     0.12595   0.79071   0.63808   0.00000  Uiso   1.00
H79    H     0.02989   0.66263   0.47353   0.00000  Uiso   1.00
H80    H     0.94576   0.60677   0.66538   0.00000  Uiso   1.00
H81    H     0.20891   0.92544   0.68673   0.00000  Uiso   1.00
H82    H     0.00635   0.65537   0.33977   0.00000  Uiso   1.00
H83    H     0.82895   0.53757   0.74432   0.00000  Uiso   1.00
O84    O     0.18707   0.07755   0.70803   0.00000  Uiso   1.00
O85    O     0.92131   0.72323   0.25283   0.00000  Uiso   1.00
O86    O     0.68857   0.56868   0.78359   0.00000  Uiso   1.00
N87    N     0.06950   0.03989   0.66697   0.00000  Uiso   1.00
N88    N     0.88012   0.78741   0.34258   0.00000  Uiso   1.00
N89    N     0.71426   0.67726   0.72079   0.00000  Uiso   1.00
N90    N     0.15820   0.94982   0.67641   0.00000  Uiso   1.00
N91    N     0.96882   0.69733   0.35202   0.00000  Uiso   1.00
N92    N     0.80296   0.58719   0.73023   0.00000  Uiso   1.00
C93    C     0.38016   0.15720   0.92401   0.00000  Uiso   1.00
C94    C     0.45402   0.12490   0.89662   0.00000  Uiso   1.00
C95    C     0.46671   0.04756   0.87886   0.00000  Uiso   1.00
C96    C     0.53815   0.02977   0.85482   0.00000  Uiso   1.00
C97    C     0.64422   0.97085   0.81324   0.00000  Uiso   1.00
C98    C     0.40183   0.19448   0.98603   0.00000  Uiso   1.00
C99    C     0.37064   0.17564   0.04344   0.00000  Uiso   1.00
C100   C     0.39815   0.21643   0.09466   0.00000  Uiso   1.00
C101   C     0.42316   0.26557   0.19188   0.00000  Uiso   1.00
C102   C     0.35613   0.22482   0.88179   0.00000  Uiso   1.00
C103   C     0.28649   0.23152   0.85156   0.00000  Uiso   1.00
C104   C     0.27551   0.29787   0.81503   0.00000  Uiso   1.00
C105   C     0.22956   0.39413   0.75040   0.00000  Uiso   1.00
C106   C     0.48447   0.26313   0.91291   0.00000  Uiso   1.00
C107   C     0.51067   0.18244   0.89060   0.00000  Uiso   1.00
C108   C     0.58211   0.16476   0.86658   0.00000  Uiso   1.00
C109   C     0.59491   0.08741   0.84878   0.00000  Uiso   1.00
C110   C     0.45849   0.25201   0.98000   0.00000  Uiso   1.00
C111   C     0.48604   0.29284   0.03116   0.00000  Uiso   1.00
C112   C     0.45490   0.27407   0.08862   0.00000  Uiso   1.00
C113   C     0.41278   0.28236   0.87576   0.00000  Uiso   1.00
C114   C     0.40190   0.34871   0.83928   0.00000  Uiso   1.00
C115   C     0.33227   0.35551   0.80899   0.00000  Uiso   1.00
H116   H     0.33605   0.11241   0.92871   0.00000  Uiso   1.00
H117   H     0.42285   0.00305   0.88354   0.00000  Uiso   1.00
H118   H     0.32679   0.13112   0.04809   0.00000  Uiso   1.00
H119   H     0.24266   0.18698   0.85624   0.00000  Uiso   1.00
H120   H     0.54407   0.90717   0.83081   0.00000  Uiso   1.00
H121   H     0.34151   0.17723   0.17777   0.00000  Uiso   1.00
H122   H     0.16411   0.29504   0.77322   0.00000  Uiso   1.00
H123   H     0.52858   0.30793   0.90822   0.00000  Uiso   1.00
H124   H     0.62595   0.20929   0.86192   0.00000  Uiso   1.00
H125   H     0.52989   0.33737   0.02647   0.00000  Uiso   1.00
H126   H     0.44576   0.39323   0.83462   0.00000  Uiso   1.00
H127   H     0.70891   0.07456   0.81327   0.00000  Uiso   1.00
H128   H     0.50635   0.34463   0.16023   0.00000  Uiso   1.00
H129   H     0.32895   0.46243   0.75568   0.00000  Uiso   1.00
O130   O     0.68707   0.92245   0.79197   0.00000  Uiso   1.00
O131   O     0.42131   0.27677   0.24717   0.00000  Uiso   1.00
O132   O     0.18857   0.43132   0.71641   0.00000  Uiso   1.00
N133   N     0.56950   0.96011   0.83303   0.00000  Uiso   1.00
N134   N     0.38012   0.21259   0.15742   0.00000  Uiso   1.00
N135   N     0.21426   0.32274   0.77921   0.00000  Uiso   1.00
N136   N     0.65820   0.05018   0.82359   0.00000  Uiso   1.00
N137   N     0.46882   0.30267   0.14798   0.00000  Uiso   1.00
N138   N     0.30296   0.41281   0.76977   0.00000  Uiso   1.00
C139   C     0.11984   0.84280   0.92401   0.00000  Uiso   1.00
C140   C     0.04598   0.87510   0.89662   0.00000  Uiso   1.00
C141   C     0.03329   0.95244   0.87886   0.00000  Uiso   1.00
C142   C     0.96185   0.97023   0.85482   0.00000  Uiso   1.00
C143   C     0.85578   0.02915   0.81324   0.00000  Uiso   1.00
C144   C     0.09817   0.80552   0.98603   0.00000  Uiso   1.00
C145   C     0.12936   0.82436   0.04344   0.00000  Uiso   1.00
C146   C     0.10185   0.78357   0.09466   0.00000  Uiso   1.00
C147   C     0.07684   0.73443   0.19188   0.00000  Uiso   1.00
C148   C     0.14387   0.77518   0.88179   0.00000  Uiso   1.00
C149   C     0.21351   0.76848   0.85156   0.00000  Uiso   1.00
C150   C     0.22449   0.70213   0.81503   0.00000  Uiso   1.00
C151   C     0.27044   0.60587   0.75040   0.00000  Uiso   1.00
C152   C     0.01553   0.73687   0.91291   0.00000  Uiso   1.00
C153   C     0.98933   0.81756   0.89060   0.00000  Uiso   1.00
C154   C     0.91789   0.83524   0.86658   0.00000  Uiso   1.00
C155   C     0.90509   0.91259   0.84878   0.00000  Uiso   1.00
C156   C     0.04151   0.74799   0.98000   0.00000  Uiso   1.00
C157   C     0.01396   0.70716   0.03116   0.00000  Uiso   1.00
C158   C     0.04510   0.72593   0.08862   0.00000  Uiso   1.00
C159   C     0.08722   0.71764   0.87576   0.00000  Uiso   1.00
C160   C     0.09810   0.65129   0.83928   0.00000  Uiso   1.00
C161   C     0.16773   0.64449   0.80899   0.00000  Uiso   1.00
H162   H     0.16395   0.88759   0.92871   0.00000  Uiso   1.00
H163   H     0.07715   0.99695   0.88354   0.00000  Uiso   1.00
H164   H     0.17321   0.86888   0.04809   0.00000  Uiso   1.00
H165   H     0.25734   0.81302   0.85624   0.00000  Uiso   1.00
H166   H     0.95593   0.09283   0.83081   0.00000  Uiso   1.00
H167   H     0.15849   0.82277   0.17777   0.00000  Uiso   1.00
H168   H     0.33589   0.70496   0.77322   0.00000  Uiso   1.00
H169   H     0.97142   0.69207   0.90822   0.00000  Uiso   1.00
H170   H     0.87405   0.79071   0.86192   0.00000  Uiso   1.00
H171   H     0.97011   0.66263   0.02647   0.00000  Uiso   1.00
H172   H     0.05424   0.60677   0.83462   0.00000  Uiso   1.00
H173   H     0.79109   0.92544   0.81327   0.00000  Uiso   1.00
H174   H     0.99365   0.65537   0.16023   0.00000  Uiso   1.00
H175   H     0.17105   0.53757   0.75568   0.00000  Uiso   1.00
O176   O     0.81293   0.07755   0.79197   0.00000  Uiso   1.00
O177   O     0.07869   0.72323   0.24717   0.00000  Uiso   1.00
O178   O     0.31143   0.56868   0.71641   0.00000  Uiso   1.00
N179   N     0.93050   0.03989   0.83303   0.00000  Uiso   1.00
N180   N     0.11988   0.78741   0.15742   0.00000  Uiso   1.00
N181   N     0.28574   0.67726   0.77921   0.00000  Uiso   1.00
N182   N     0.84180   0.94982   0.82359   0.00000  Uiso   1.00
N183   N     0.03118   0.69733   0.14798   0.00000  Uiso   1.00
N184   N     0.19704   0.58719   0.76977   0.00000  Uiso   1.00
C185   C     0.38016   0.84280   0.42401   0.00000  Uiso   1.00
C186   C     0.45402   0.87510   0.39662   0.00000  Uiso   1.00
C187   C     0.46671   0.95244   0.37886   0.00000  Uiso   1.00
C188   C     0.53815   0.97023   0.35482   0.00000  Uiso   1.00
C189   C     0.64422   0.02915   0.31324   0.00000  Uiso   1.00
C190   C     0.40183   0.80552   0.48603   0.00000  Uiso   1.00
C191   C     0.37064   0.82436   0.54344   0.00000  Uiso   1.00
C192   C     0.39815   0.78357   0.59466   0.00000  Uiso   1.00
C193   C     0.42316   0.73443   0.69188   0.00000  Uiso   1.00
C194   C     0.35613   0.77518   0.38179   0.00000  Uiso   1.00
C195   C     0.28649   0.76848   0.35156   0.00000  Uiso   1.00
C196   C     0.27551   0.70213   0.31503   0.00000  Uiso   1.00
C197   C     0.22956   0.60587   0.25040   0.00000  Uiso   1.00
C198   C     0.48447   0.73687   0.41291   0.00000  Uiso   1.00
C199   C     0.51067   0.81756   0.39060   0.00000  Uiso   1.00
C200   C     0.58211   0.83524   0.36658   0.00000  Uiso   1.00
C201   C     0.59491   0.91259   0.34878   0.00000  Uiso   1.00
C202   C     0.45849   0.74799   0.48000   0.00000  Uiso   1.00
C203   C     0.48604   0.70716   0.53116   0.00000  Uiso   1.00
C204   C     0.45490   0.72593   0.58862   0.00000  Uiso   1.00
C205   C     0.41278   0.71764   0.37576   0.00000  Uiso   1.00
C206   C     0.40190   0.65129   0.33928   0.00000  Uiso   1.00
C207   C     0.33227   0.64449   0.30899   0.00000  Uiso   1.00
H208   H     0.33605   0.88759   0.42871   0.00000  Uiso   1.00
H209   H     0.42285   0.99695   0.38354   0.00000  Uiso   1.00
H210   H     0.32679   0.86888   0.54809   0.00000  Uiso   1.00
H211   H     0.24266   0.81302   0.35624   0.00000  Uiso   1.00
H212   H     0.54407   0.09283   0.33081   0.00000  Uiso   1.00
H213   H     0.34151   0.82277   0.67777   0.00000  Uiso   1.00
H214   H     0.16411   0.70496   0.27322   0.00000  Uiso   1.00
H215   H     0.52858   0.69207   0.40822   0.00000  Uiso   1.00
H216   H     0.62595   0.79071   0.36192   0.00000  Uiso   1.00
H217   H     0.52989   0.66263   0.52647   0.00000  Uiso   1.00
H218   H     0.44576   0.60677   0.33462   0.00000  Uiso   1.00
H219   H     0.70891   0.92544   0.31327   0.00000  Uiso   1.00
H220   H     0.50635   0.65537   0.66023   0.00000  Uiso   1.00
H221   H     0.32895   0.53757   0.25568   0.00000  Uiso   1.00
O222   O     0.68707   0.07755   0.29197   0.00000  Uiso   1.00
O223   O     0.42131   0.72323   0.74717   0.00000  Uiso   1.00
O224   O     0.18857   0.56868   0.21641   0.00000  Uiso   1.00
N225   N     0.56950   0.03989   0.33303   0.00000  Uiso   1.00
N226   N     0.38012   0.78741   0.65742   0.00000  Uiso   1.00
N227   N     0.21426   0.67726   0.27921   0.00000  Uiso   1.00
N228   N     0.65820   0.94982   0.32359   0.00000  Uiso   1.00
N229   N     0.46882   0.69733   0.64798   0.00000  Uiso   1.00
N230   N     0.30296   0.58719   0.26977   0.00000  Uiso   1.00
C231   C     0.11984   0.15720   0.42401   0.00000  Uiso   1.00
C232   C     0.04598   0.12490   0.39662   0.00000  Uiso   1.00
C233   C     0.03329   0.04756   0.37886   0.00000  Uiso   1.00
C234   C     0.96185   0.02977   0.35482   0.00000  Uiso   1.00
C235   C     0.85578   0.97085   0.31324   0.00000  Uiso   1.00
C236   C     0.09817   0.19448   0.48603   0.00000  Uiso   1.00
C237   C     0.12936   0.17564   0.54344   0.00000  Uiso   1.00
C238   C     0.10185   0.21643   0.59466   0.00000  Uiso   1.00
C239   C     0.07684   0.26557   0.69188   0.00000  Uiso   1.00
C240   C     0.14387   0.22482   0.38179   0.00000  Uiso   1.00
C241   C     0.21351   0.23152   0.35156   0.00000  Uiso   1.00
C242   C     0.22449   0.29787   0.31503   0.00000  Uiso   1.00
C243   C     0.27044   0.39413   0.25040   0.00000  Uiso   1.00
C244   C     0.01553   0.26313   0.41291   0.00000  Uiso   1.00
C245   C     0.98933   0.18244   0.39060   0.00000  Uiso   1.00
C246   C     0.91789   0.16476   0.36658   0.00000  Uiso   1.00
C247   C     0.90509   0.08741   0.34878   0.00000  Uiso   1.00
C248   C     0.04151   0.25201   0.48000   0.00000  Uiso   1.00
C249   C     0.01396   0.29284   0.53116   0.00000  Uiso   1.00
C250   C     0.04510   0.27407   0.58862   0.00000  Uiso   1.00
C251   C     0.08722   0.28236   0.37576   0.00000  Uiso   1.00
C252   C     0.09810   0.34871   0.33928   0.00000  Uiso   1.00
C253   C     0.16773   0.35551   0.30899   0.00000  Uiso   1.00
H254   H     0.16395   0.11241   0.42871   0.00000  Uiso   1.00
H255   H     0.07715   0.00305   0.38354   0.00000  Uiso   1.00
H256   H     0.17321   0.13112   0.54809   0.00000  Uiso   1.00
H257   H     0.25734   0.18698   0.35624   0.00000  Uiso   1.00
H258   H     0.95593   0.90717   0.33081   0.00000  Uiso   1.00
H259   H     0.15849   0.17723   0.67777   0.00000  Uiso   1.00
H260   H     0.33589   0.29504   0.27322   0.00000  Uiso   1.00
H261   H     0.97142   0.30793   0.40822   0.00000  Uiso   1.00
H262   H     0.87405   0.20929   0.36192   0.00000  Uiso   1.00
H263   H     0.97011   0.33737   0.52647   0.00000  Uiso   1.00
H264   H     0.05424   0.39323   0.33462   0.00000  Uiso   1.00
H265   H     0.79109   0.07456   0.31327   0.00000  Uiso   1.00
H266   H     0.99365   0.34463   0.66023   0.00000  Uiso   1.00
H267   H     0.17105   0.46243   0.25568   0.00000  Uiso   1.00
O268   O     0.81293   0.92245   0.29197   0.00000  Uiso   1.00
O269   O     0.07869   0.27677   0.74717   0.00000  Uiso   1.00
O270   O     0.31143   0.43132   0.21641   0.00000  Uiso   1.00
N271   N     0.93050   0.96011   0.33303   0.00000  Uiso   1.00
N272   N     0.11988   0.21259   0.65742   0.00000  Uiso   1.00
N273   N     0.28574   0.32274   0.27921   0.00000  Uiso   1.00
N274   N     0.84180   0.05018   0.32359   0.00000  Uiso   1.00
N275   N     0.03118   0.30267   0.64798   0.00000  Uiso   1.00
N276   N     0.19704   0.41281   0.26977   0.00000  Uiso   1.00
C277   C     0.61984   0.84280   0.07599   0.00000  Uiso   1.00
C278   C     0.54598   0.87510   0.10338   0.00000  Uiso   1.00
C279   C     0.53329   0.95244   0.12114   0.00000  Uiso   1.00
C280   C     0.46185   0.97023   0.14518   0.00000  Uiso   1.00
C281   C     0.35578   0.02915   0.18676   0.00000  Uiso   1.00
C282   C     0.59817   0.80552   0.01397   0.00000  Uiso   1.00
C283   C     0.62936   0.82436   0.95656   0.00000  Uiso   1.00
C284   C     0.60185   0.78357   0.90534   0.00000  Uiso   1.00
C285   C     0.57684   0.73443   0.80812   0.00000  Uiso   1.00
C286   C     0.64387   0.77518   0.11821   0.00000  Uiso   1.00
C287   C     0.71351   0.76848   0.14844   0.00000  Uiso   1.00
C288   C     0.72449   0.70213   0.18497   0.00000  Uiso   1.00
C289   C     0.77044   0.60587   0.24960   0.00000  Uiso   1.00
C290   C     0.51553   0.73687   0.08709   0.00000  Uiso   1.00
C291   C     0.48933   0.81756   0.10940   0.00000  Uiso   1.00
C292   C     0.41789   0.83524   0.13342   0.00000  Uiso   1.00
C293   C     0.40509   0.91259   0.15122   0.00000  Uiso   1.00
C294   C     0.54151   0.74799   0.02000   0.00000  Uiso   1.00
C295   C     0.51396   0.70716   0.96884   0.00000  Uiso   1.00
C296   C     0.54510   0.72593   0.91138   0.00000  Uiso   1.00
C297   C     0.58722   0.71764   0.12424   0.00000  Uiso   1.00
C298   C     0.59810   0.65129   0.16072   0.00000  Uiso   1.00
C299   C     0.66773   0.64449   0.19101   0.00000  Uiso   1.00
H300   H     0.66395   0.88759   0.07129   0.00000  Uiso   1.00
H301   H     0.57715   0.99695   0.11646   0.00000  Uiso   1.00
H302   H     0.67321   0.86888   0.95191   0.00000  Uiso   1.00
H303   H     0.75734   0.81302   0.14376   0.00000  Uiso   1.00
H304   H     0.45593   0.09283   0.16919   0.00000  Uiso   1.00
H305   H     0.65849   0.82277   0.82223   0.00000  Uiso   1.00
H306   H     0.83589   0.70496   0.22678   0.00000  Uiso   1.00
H307   H     0.47142   0.69207   0.09178   0.00000  Uiso   1.00
H308   H     0.37405   0.79071   0.13808   0.00000  Uiso   1.00
H309   H     0.47011   0.66263   0.97353   0.00000  Uiso   1.00
H310   H     0.55424   0.60677   0.16538   0.00000  Uiso   1.00
H311   H     0.29109   0.92544   0.18673   0.00000  Uiso   1.00
H312   H     0.49365   0.65537   0.83977   0.00000  Uiso   1.00
H313   H     0.67105   0.53757   0.24432   0.00000  Uiso   1.00
O314   O     0.31293   0.07755   0.20803   0.00000  Uiso   1.00
O315   O     0.57869   0.72323   0.75283   0.00000  Uiso   1.00
O316   O     0.81143   0.56868   0.28359   0.00000  Uiso   1.00
N317   N     0.43050   0.03989   0.16697   0.00000  Uiso   1.00
N318   N     0.61988   0.78741   0.84258   0.00000  Uiso   1.00
N319   N     0.78574   0.67726   0.22079   0.00000  Uiso   1.00
N320   N     0.34180   0.94982   0.17641   0.00000  Uiso   1.00
N321   N     0.53118   0.69733   0.85202   0.00000  Uiso   1.00
N322   N     0.69704   0.58719   0.23023   0.00000  Uiso   1.00
C323   C     0.88016   0.15720   0.07599   0.00000  Uiso   1.00
C324   C     0.95402   0.12490   0.10338   0.00000  Uiso   1.00
C325   C     0.96671   0.04756   0.12114   0.00000  Uiso   1.00
C326   C     0.03815   0.02977   0.14518   0.00000  Uiso   1.00
C327   C     0.14422   0.97085   0.18676   0.00000  Uiso   1.00
C328   C     0.90183   0.19448   0.01397   0.00000  Uiso   1.00
C329   C     0.87064   0.17564   0.95656   0.00000  Uiso   1.00
C330   C     0.89815   0.21643   0.90534   0.00000  Uiso   1.00
C331   C     0.92316   0.26557   0.80812   0.00000  Uiso   1.00
C332   C     0.85613   0.22482   0.11821   0.00000  Uiso   1.00
C333   C     0.78649   0.23152   0.14844   0.00000  Uiso   1.00
C334   C     0.77551   0.29787   0.18497   0.00000  Uiso   1.00
C335   C     0.72956   0.39413   0.24960   0.00000  Uiso   1.00
C336   C     0.98447   0.26313   0.08709   0.00000  Uiso   1.00
C337   C     0.01067   0.18244   0.10940   0.00000  Uiso   1.00
C338   C     0.08211   0.16476   0.13342   0.00000  Uiso   1.00
C339   C     0.09491   0.08741   0.15122   0.00000  Uiso   1.00
C340   C     0.95849   0.25201   0.02000   0.00000  Uiso   1.00
C341   C     0.98604   0.29284   0.96884   0.00000  Uiso   1.00
C342   C     0.95490   0.27407   0.91138   0.00000  Uiso   1.00
C343   C     0.91278   0.28236   0.12424   0.00000  Uiso   1.00
C344   C     0.90190   0.34871   0.16072   0.00000  Uiso   1.00
C345   C     0.83227   0.35551   0.19101   0.00000  Uiso   1.00
H346   H     0.83605   0.11241   0.07129   0.00000  Uiso   1.00
H347   H     0.92285   0.00305   0.11646   0.00000  Uiso   1.00
H348   H     0.82679   0.13112   0.95191   0.00000  Uiso   1.00
H349   H     0.74266   0.18698   0.14376   0.00000  Uiso   1.00
H350   H     0.04407   0.90717   0.16919   0.00000  Uiso   1.00
H351   H     0.84151   0.17723   0.82223   0.00000  Uiso   1.00
H352   H     0.66411   0.29504   0.22678   0.00000  Uiso   1.00
H353   H     0.02858   0.30793   0.09178   0.00000  Uiso   1.00
H354   H     0.12595   0.20929   0.13808   0.00000  Uiso   1.00
H355   H     0.02989   0.33737   0.97353   0.00000  Uiso   1.00
H356   H     0.94576   0.39323   0.16538   0.00000  Uiso   1.00
H357   H     0.20891   0.07456   0.18673   0.00000  Uiso   1.00
H358   H     0.00635   0.34463   0.83977   0.00000  Uiso   1.00
H359   H     0.82895   0.46243   0.24432   0.00000  Uiso   1.00
O360   O     0.18707   0.92245   0.20803   0.00000  Uiso   1.00
O361   O     0.92131   0.27677   0.75283   0.00000  Uiso   1.00
O362   O     0.68857   0.43132   0.28359   0.00000  Uiso   1.00
N363   N     0.06950   0.96011   0.16697   0.00000  Uiso   1.00
N364   N     0.88012   0.21259   0.84258   0.00000  Uiso   1.00
N365   N     0.71426   0.32274   0.22079   0.00000  Uiso   1.00
N366   N     0.15820   0.05018   0.17641   0.00000  Uiso   1.00
N367   N     0.96882   0.30267   0.85202   0.00000  Uiso   1.00
N368   N     0.80296   0.41281   0.23023   0.00000  Uiso   1.00
