data_job_03539
_audit_creation_date              2018-12-19
_audit_creation_method            'Materials Studio'
_symmetry_space_group_name_H-M    'P1'
_symmetry_Int_Tables_number       1
_symmetry_cell_setting            triclinic
loop_
_symmetry_equiv_pos_as_xyz
  x,y,z
_cell_length_a                    18.3385
_cell_length_b                    44.3186
_cell_length_c                    10.0691
_cell_angle_alpha                 90.0000
_cell_angle_beta                  117.8080
_cell_angle_gamma                 90.0000
loop_
_atom_site_label
_atom_site_type_symbol
_atom_site_fract_x
_atom_site_fract_y
_atom_site_fract_z
_atom_site_U_iso_or_equiv
_atom_site_adp_type
_atom_site_occupancy
C1     C     0.28859   0.62574   0.65217   0.00000  Uiso   1.00
C2     C     0.29529   0.62898   0.50748   0.00000  Uiso   1.00
C3     C     0.36787   0.62838   0.49623   0.00000  Uiso   1.00
C4     C     0.36097   0.63175   0.35373   0.00000  Uiso   1.00
C5     C     0.38305   0.63622   0.14833   0.00000  Uiso   1.00
C6     C     0.24319   0.65377   0.66220   0.00000  Uiso   1.00
C7     C     0.27197   0.67401   0.78106   0.00000  Uiso   1.00
C8     C     0.22121   0.69824   0.76880   0.00000  Uiso   1.00
C9     C     0.16239   0.74119   0.80366   0.00000  Uiso   1.00
C10    C     0.23042   0.59928   0.62710   0.00000  Uiso   1.00
C11    C     0.24844   0.57370   0.71646   0.00000  Uiso   1.00
C12    C     0.18691   0.55205   0.67467   0.00000  Uiso   1.00
C13    C     0.10826   0.51039   0.65503   0.00000  Uiso   1.00
C14    C     0.14725   0.63277   0.41909   0.00000  Uiso   1.00
C15    C     0.21852   0.63280   0.38088   0.00000  Uiso   1.00
C16    C     0.21150   0.63617   0.23835   0.00000  Uiso   1.00
C17    C     0.28406   0.63557   0.22690   0.00000  Uiso   1.00
C18    C     0.16643   0.65759   0.53561   0.00000  Uiso   1.00
C19    C     0.11560   0.68180   0.52318   0.00000  Uiso   1.00
C20    C     0.14430   0.70207   0.64197   0.00000  Uiso   1.00
C21    C     0.15365   0.60310   0.50049   0.00000  Uiso   1.00
C22    C     0.09207   0.58149   0.45857   0.00000  Uiso   1.00
C23    C     0.11000   0.55588   0.54784   0.00000  Uiso   1.00
H24    H     0.34835   0.62276   0.75074   0.00000  Uiso   1.00
H25    H     0.42727   0.62543   0.59424   0.00000  Uiso   1.00
H26    H     0.33138   0.67105   0.87902   0.00000  Uiso   1.00
H27    H     0.30786   0.57075   0.81442   0.00000  Uiso   1.00
H28    H     0.48091   0.63008   0.36490   0.00000  Uiso   1.00
H29    H     0.27872   0.72627   0.96541   0.00000  Uiso   1.00
H30    H     0.22911   0.51478   0.82919   0.00000  Uiso   1.00
H31    H     0.08748   0.63575   0.32052   0.00000  Uiso   1.00
H32    H     0.15208   0.63912   0.14040   0.00000  Uiso   1.00
H33    H     0.05620   0.68475   0.42519   0.00000  Uiso   1.00
H34    H     0.03267   0.58445   0.36059   0.00000  Uiso   1.00
H35    H     0.25756   0.64120   0.99655   0.00000  Uiso   1.00
H36    H     0.05537   0.73739   0.59707   0.00000  Uiso   1.00
H37    H     0.00576   0.52590   0.46085   0.00000  Uiso   1.00
O38    O     0.41645   0.63764   0.07001   0.00000  Uiso   1.00
O39    O     0.15117   0.76383   0.85787   0.00000  Uiso   1.00
O40    O     0.08609   0.48636   0.67915   0.00000  Uiso   1.00
N41    N     0.41948   0.63223   0.30293   0.00000  Uiso   1.00
N42    N     0.23045   0.72216   0.86435   0.00000  Uiso   1.00
N43    N     0.18406   0.52444   0.73703   0.00000  Uiso   1.00
N44    N     0.29930   0.63821   0.10472   0.00000  Uiso   1.00
N45    N     0.11026   0.72814   0.66615   0.00000  Uiso   1.00
N46    N     0.06388   0.53042   0.53882   0.00000  Uiso   1.00
C47    C     0.78859   0.12574   0.65217   0.00000  Uiso   1.00
C48    C     0.79529   0.12898   0.50748   0.00000  Uiso   1.00
C49    C     0.86787   0.12838   0.49623   0.00000  Uiso   1.00
C50    C     0.86097   0.13175   0.35373   0.00000  Uiso   1.00
C51    C     0.88305   0.13622   0.14833   0.00000  Uiso   1.00
C52    C     0.74319   0.15377   0.66220   0.00000  Uiso   1.00
C53    C     0.77197   0.17401   0.78106   0.00000  Uiso   1.00
C54    C     0.72121   0.19824   0.76880   0.00000  Uiso   1.00
C55    C     0.66239   0.24119   0.80366   0.00000  Uiso   1.00
C56    C     0.73042   0.09928   0.62710   0.00000  Uiso   1.00
C57    C     0.74844   0.07370   0.71646   0.00000  Uiso   1.00
C58    C     0.68691   0.05205   0.67467   0.00000  Uiso   1.00
C59    C     0.60826   0.01039   0.65503   0.00000  Uiso   1.00
C60    C     0.64725   0.13277   0.41909   0.00000  Uiso   1.00
C61    C     0.71852   0.13280   0.38088   0.00000  Uiso   1.00
C62    C     0.71150   0.13617   0.23835   0.00000  Uiso   1.00
C63    C     0.78406   0.13557   0.22690   0.00000  Uiso   1.00
C64    C     0.66643   0.15759   0.53561   0.00000  Uiso   1.00
C65    C     0.61560   0.18180   0.52318   0.00000  Uiso   1.00
C66    C     0.64430   0.20207   0.64197   0.00000  Uiso   1.00
C67    C     0.65365   0.10310   0.50049   0.00000  Uiso   1.00
C68    C     0.59207   0.08149   0.45857   0.00000  Uiso   1.00
C69    C     0.61000   0.05588   0.54784   0.00000  Uiso   1.00
H70    H     0.84835   0.12276   0.75074   0.00000  Uiso   1.00
H71    H     0.92727   0.12543   0.59424   0.00000  Uiso   1.00
H72    H     0.83138   0.17105   0.87902   0.00000  Uiso   1.00
H73    H     0.80786   0.07075   0.81442   0.00000  Uiso   1.00
H74    H     0.98091   0.13008   0.36490   0.00000  Uiso   1.00
H75    H     0.77872   0.22627   0.96541   0.00000  Uiso   1.00
H76    H     0.72911   0.01478   0.82919   0.00000  Uiso   1.00
H77    H     0.58748   0.13575   0.32052   0.00000  Uiso   1.00
H78    H     0.65208   0.13912   0.14040   0.00000  Uiso   1.00
H79    H     0.55620   0.18475   0.42519   0.00000  Uiso   1.00
H80    H     0.53267   0.08445   0.36059   0.00000  Uiso   1.00
H81    H     0.75756   0.14120   0.99655   0.00000  Uiso   1.00
H82    H     0.55537   0.23739   0.59707   0.00000  Uiso   1.00
H83    H     0.50576   0.02590   0.46085   0.00000  Uiso   1.00
O84    O     0.91645   0.13764   0.07001   0.00000  Uiso   1.00
O85    O     0.65117   0.26383   0.85787   0.00000  Uiso   1.00
O86    O     0.58609   0.98636   0.67915   0.00000  Uiso   1.00
N87    N     0.91948   0.13223   0.30293   0.00000  Uiso   1.00
N88    N     0.73045   0.22216   0.86435   0.00000  Uiso   1.00
N89    N     0.68406   0.02444   0.73703   0.00000  Uiso   1.00
N90    N     0.79930   0.13821   0.10472   0.00000  Uiso   1.00
N91    N     0.61026   0.22814   0.66615   0.00000  Uiso   1.00
N92    N     0.56388   0.03042   0.53882   0.00000  Uiso   1.00
C93    C     0.71141   0.62574   0.84783   0.00000  Uiso   1.00
C94    C     0.70471   0.62898   0.99252   0.00000  Uiso   1.00
C95    C     0.63213   0.62838   0.00377   0.00000  Uiso   1.00
C96    C     0.63903   0.63175   0.14627   0.00000  Uiso   1.00
C97    C     0.61695   0.63622   0.35167   0.00000  Uiso   1.00
C98    C     0.75681   0.65377   0.83780   0.00000  Uiso   1.00
C99    C     0.72803   0.67401   0.71894   0.00000  Uiso   1.00
C100   C     0.77879   0.69824   0.73120   0.00000  Uiso   1.00
C101   C     0.83761   0.74119   0.69634   0.00000  Uiso   1.00
C102   C     0.76958   0.59928   0.87290   0.00000  Uiso   1.00
C103   C     0.75156   0.57370   0.78354   0.00000  Uiso   1.00
C104   C     0.81309   0.55205   0.82533   0.00000  Uiso   1.00
C105   C     0.89174   0.51039   0.84497   0.00000  Uiso   1.00
C106   C     0.85275   0.63277   0.08091   0.00000  Uiso   1.00
C107   C     0.78148   0.63280   0.11912   0.00000  Uiso   1.00
C108   C     0.78850   0.63617   0.26165   0.00000  Uiso   1.00
C109   C     0.71594   0.63557   0.27310   0.00000  Uiso   1.00
C110   C     0.83357   0.65759   0.96439   0.00000  Uiso   1.00
C111   C     0.88440   0.68180   0.97682   0.00000  Uiso   1.00
C112   C     0.85570   0.70207   0.85803   0.00000  Uiso   1.00
C113   C     0.84635   0.60310   0.99951   0.00000  Uiso   1.00
C114   C     0.90793   0.58149   0.04143   0.00000  Uiso   1.00
C115   C     0.89000   0.55588   0.95216   0.00000  Uiso   1.00
H116   H     0.65165   0.62276   0.74926   0.00000  Uiso   1.00
H117   H     0.57273   0.62543   0.90576   0.00000  Uiso   1.00
H118   H     0.66862   0.67105   0.62098   0.00000  Uiso   1.00
H119   H     0.69214   0.57075   0.68558   0.00000  Uiso   1.00
H120   H     0.51909   0.63008   0.13510   0.00000  Uiso   1.00
H121   H     0.72128   0.72627   0.53459   0.00000  Uiso   1.00
H122   H     0.77089   0.51478   0.67081   0.00000  Uiso   1.00
H123   H     0.91252   0.63575   0.17948   0.00000  Uiso   1.00
H124   H     0.84792   0.63912   0.35960   0.00000  Uiso   1.00
H125   H     0.94380   0.68475   0.07481   0.00000  Uiso   1.00
H126   H     0.96733   0.58445   0.13941   0.00000  Uiso   1.00
H127   H     0.74244   0.64120   0.50345   0.00000  Uiso   1.00
H128   H     0.94463   0.73739   0.90293   0.00000  Uiso   1.00
H129   H     0.99424   0.52590   0.03915   0.00000  Uiso   1.00
O130   O     0.58355   0.63764   0.42999   0.00000  Uiso   1.00
O131   O     0.84883   0.76383   0.64213   0.00000  Uiso   1.00
O132   O     0.91391   0.48636   0.82085   0.00000  Uiso   1.00
N133   N     0.58052   0.63223   0.19707   0.00000  Uiso   1.00
N134   N     0.76955   0.72216   0.63565   0.00000  Uiso   1.00
N135   N     0.81594   0.52444   0.76297   0.00000  Uiso   1.00
N136   N     0.70070   0.63821   0.39528   0.00000  Uiso   1.00
N137   N     0.88974   0.72814   0.83385   0.00000  Uiso   1.00
N138   N     0.93612   0.53042   0.96118   0.00000  Uiso   1.00
C139   C     0.21141   0.12574   0.84783   0.00000  Uiso   1.00
C140   C     0.20471   0.12898   0.99252   0.00000  Uiso   1.00
C141   C     0.13213   0.12838   0.00377   0.00000  Uiso   1.00
C142   C     0.13903   0.13175   0.14627   0.00000  Uiso   1.00
C143   C     0.11695   0.13622   0.35167   0.00000  Uiso   1.00
C144   C     0.25681   0.15377   0.83780   0.00000  Uiso   1.00
C145   C     0.22803   0.17401   0.71894   0.00000  Uiso   1.00
C146   C     0.27879   0.19824   0.73120   0.00000  Uiso   1.00
C147   C     0.33761   0.24119   0.69634   0.00000  Uiso   1.00
C148   C     0.26958   0.09928   0.87290   0.00000  Uiso   1.00
C149   C     0.25156   0.07370   0.78354   0.00000  Uiso   1.00
C150   C     0.31309   0.05205   0.82533   0.00000  Uiso   1.00
C151   C     0.39174   0.01039   0.84497   0.00000  Uiso   1.00
C152   C     0.35275   0.13277   0.08091   0.00000  Uiso   1.00
C153   C     0.28148   0.13280   0.11912   0.00000  Uiso   1.00
C154   C     0.28850   0.13617   0.26165   0.00000  Uiso   1.00
C155   C     0.21594   0.13557   0.27310   0.00000  Uiso   1.00
C156   C     0.33357   0.15759   0.96439   0.00000  Uiso   1.00
C157   C     0.38440   0.18180   0.97682   0.00000  Uiso   1.00
C158   C     0.35570   0.20207   0.85803   0.00000  Uiso   1.00
C159   C     0.34635   0.10310   0.99951   0.00000  Uiso   1.00
C160   C     0.40793   0.08149   0.04143   0.00000  Uiso   1.00
C161   C     0.39000   0.05588   0.95216   0.00000  Uiso   1.00
H162   H     0.15165   0.12276   0.74926   0.00000  Uiso   1.00
H163   H     0.07273   0.12543   0.90576   0.00000  Uiso   1.00
H164   H     0.16862   0.17105   0.62098   0.00000  Uiso   1.00
H165   H     0.19214   0.07075   0.68558   0.00000  Uiso   1.00
H166   H     0.01909   0.13008   0.13510   0.00000  Uiso   1.00
H167   H     0.22128   0.22627   0.53459   0.00000  Uiso   1.00
H168   H     0.27089   0.01478   0.67081   0.00000  Uiso   1.00
H169   H     0.41252   0.13575   0.17948   0.00000  Uiso   1.00
H170   H     0.34792   0.13912   0.35960   0.00000  Uiso   1.00
H171   H     0.44380   0.18475   0.07481   0.00000  Uiso   1.00
H172   H     0.46733   0.08445   0.13941   0.00000  Uiso   1.00
H173   H     0.24244   0.14120   0.50345   0.00000  Uiso   1.00
H174   H     0.44463   0.23739   0.90293   0.00000  Uiso   1.00
H175   H     0.49424   0.02590   0.03915   0.00000  Uiso   1.00
O176   O     0.08355   0.13764   0.42999   0.00000  Uiso   1.00
O177   O     0.34883   0.26383   0.64213   0.00000  Uiso   1.00
O178   O     0.41391   0.98636   0.82085   0.00000  Uiso   1.00
N179   N     0.08052   0.13223   0.19707   0.00000  Uiso   1.00
N180   N     0.26955   0.22216   0.63565   0.00000  Uiso   1.00
N181   N     0.31594   0.02444   0.76297   0.00000  Uiso   1.00
N182   N     0.20070   0.13821   0.39528   0.00000  Uiso   1.00
N183   N     0.38974   0.22814   0.83385   0.00000  Uiso   1.00
N184   N     0.43612   0.03042   0.96118   0.00000  Uiso   1.00
C185   C     0.71141   0.37426   0.34783   0.00000  Uiso   1.00
C186   C     0.70471   0.37102   0.49252   0.00000  Uiso   1.00
C187   C     0.63213   0.37162   0.50377   0.00000  Uiso   1.00
C188   C     0.63903   0.36825   0.64627   0.00000  Uiso   1.00
C189   C     0.61695   0.36378   0.85167   0.00000  Uiso   1.00
C190   C     0.75681   0.34623   0.33780   0.00000  Uiso   1.00
C191   C     0.72803   0.32599   0.21894   0.00000  Uiso   1.00
C192   C     0.77879   0.30176   0.23120   0.00000  Uiso   1.00
C193   C     0.83761   0.25881   0.19634   0.00000  Uiso   1.00
C194   C     0.76958   0.40072   0.37290   0.00000  Uiso   1.00
C195   C     0.75156   0.42630   0.28354   0.00000  Uiso   1.00
C196   C     0.81309   0.44795   0.32533   0.00000  Uiso   1.00
C197   C     0.89174   0.48961   0.34497   0.00000  Uiso   1.00
C198   C     0.85275   0.36723   0.58091   0.00000  Uiso   1.00
C199   C     0.78148   0.36720   0.61912   0.00000  Uiso   1.00
C200   C     0.78850   0.36383   0.76165   0.00000  Uiso   1.00
C201   C     0.71594   0.36443   0.77310   0.00000  Uiso   1.00
C202   C     0.83357   0.34241   0.46439   0.00000  Uiso   1.00
C203   C     0.88440   0.31820   0.47682   0.00000  Uiso   1.00
C204   C     0.85570   0.29793   0.35803   0.00000  Uiso   1.00
C205   C     0.84635   0.39690   0.49951   0.00000  Uiso   1.00
C206   C     0.90793   0.41851   0.54143   0.00000  Uiso   1.00
C207   C     0.89000   0.44412   0.45216   0.00000  Uiso   1.00
H208   H     0.65165   0.37724   0.24926   0.00000  Uiso   1.00
H209   H     0.57273   0.37457   0.40576   0.00000  Uiso   1.00
H210   H     0.66862   0.32895   0.12098   0.00000  Uiso   1.00
H211   H     0.69214   0.42925   0.18558   0.00000  Uiso   1.00
H212   H     0.51909   0.36992   0.63510   0.00000  Uiso   1.00
H213   H     0.72128   0.27373   0.03459   0.00000  Uiso   1.00
H214   H     0.77089   0.48522   0.17081   0.00000  Uiso   1.00
H215   H     0.91252   0.36425   0.67948   0.00000  Uiso   1.00
H216   H     0.84792   0.36088   0.85960   0.00000  Uiso   1.00
H217   H     0.94380   0.31525   0.57481   0.00000  Uiso   1.00
H218   H     0.96733   0.41555   0.63941   0.00000  Uiso   1.00
H219   H     0.74244   0.35880   0.00345   0.00000  Uiso   1.00
H220   H     0.94463   0.26261   0.40293   0.00000  Uiso   1.00
H221   H     0.99424   0.47410   0.53915   0.00000  Uiso   1.00
O222   O     0.58355   0.36236   0.92999   0.00000  Uiso   1.00
O223   O     0.84883   0.23617   0.14213   0.00000  Uiso   1.00
O224   O     0.91391   0.51364   0.32085   0.00000  Uiso   1.00
N225   N     0.58052   0.36777   0.69707   0.00000  Uiso   1.00
N226   N     0.76955   0.27784   0.13565   0.00000  Uiso   1.00
N227   N     0.81594   0.47556   0.26297   0.00000  Uiso   1.00
N228   N     0.70070   0.36179   0.89528   0.00000  Uiso   1.00
N229   N     0.88974   0.27186   0.33385   0.00000  Uiso   1.00
N230   N     0.93612   0.46958   0.46118   0.00000  Uiso   1.00
C231   C     0.21141   0.87426   0.34783   0.00000  Uiso   1.00
C232   C     0.20471   0.87102   0.49252   0.00000  Uiso   1.00
C233   C     0.13213   0.87162   0.50377   0.00000  Uiso   1.00
C234   C     0.13903   0.86825   0.64627   0.00000  Uiso   1.00
C235   C     0.11695   0.86378   0.85167   0.00000  Uiso   1.00
C236   C     0.25681   0.84623   0.33780   0.00000  Uiso   1.00
C237   C     0.22803   0.82599   0.21894   0.00000  Uiso   1.00
C238   C     0.27879   0.80176   0.23120   0.00000  Uiso   1.00
C239   C     0.33761   0.75881   0.19634   0.00000  Uiso   1.00
C240   C     0.26958   0.90072   0.37290   0.00000  Uiso   1.00
C241   C     0.25156   0.92630   0.28354   0.00000  Uiso   1.00
C242   C     0.31309   0.94795   0.32533   0.00000  Uiso   1.00
C243   C     0.39174   0.98961   0.34497   0.00000  Uiso   1.00
C244   C     0.35275   0.86723   0.58091   0.00000  Uiso   1.00
C245   C     0.28148   0.86720   0.61912   0.00000  Uiso   1.00
C246   C     0.28850   0.86383   0.76165   0.00000  Uiso   1.00
C247   C     0.21594   0.86443   0.77310   0.00000  Uiso   1.00
C248   C     0.33357   0.84241   0.46439   0.00000  Uiso   1.00
C249   C     0.38440   0.81820   0.47682   0.00000  Uiso   1.00
C250   C     0.35570   0.79793   0.35803   0.00000  Uiso   1.00
C251   C     0.34635   0.89690   0.49951   0.00000  Uiso   1.00
C252   C     0.40793   0.91851   0.54143   0.00000  Uiso   1.00
C253   C     0.39000   0.94412   0.45216   0.00000  Uiso   1.00
H254   H     0.15165   0.87724   0.24926   0.00000  Uiso   1.00
H255   H     0.07273   0.87457   0.40576   0.00000  Uiso   1.00
H256   H     0.16862   0.82895   0.12098   0.00000  Uiso   1.00
H257   H     0.19214   0.92925   0.18558   0.00000  Uiso   1.00
H258   H     0.01909   0.86992   0.63510   0.00000  Uiso   1.00
H259   H     0.22128   0.77373   0.03459   0.00000  Uiso   1.00
H260   H     0.27089   0.98522   0.17081   0.00000  Uiso   1.00
H261   H     0.41252   0.86425   0.67948   0.00000  Uiso   1.00
H262   H     0.34792   0.86088   0.85960   0.00000  Uiso   1.00
H263   H     0.44380   0.81525   0.57481   0.00000  Uiso   1.00
H264   H     0.46733   0.91555   0.63941   0.00000  Uiso   1.00
H265   H     0.24244   0.85880   0.00345   0.00000  Uiso   1.00
H266   H     0.44463   0.76261   0.40293   0.00000  Uiso   1.00
H267   H     0.49424   0.97410   0.53915   0.00000  Uiso   1.00
O268   O     0.08355   0.86236   0.92999   0.00000  Uiso   1.00
O269   O     0.34883   0.73617   0.14213   0.00000  Uiso   1.00
O270   O     0.41391   0.01364   0.32085   0.00000  Uiso   1.00
N271   N     0.08052   0.86777   0.69707   0.00000  Uiso   1.00
N272   N     0.26955   0.77784   0.13565   0.00000  Uiso   1.00
N273   N     0.31594   0.97556   0.26297   0.00000  Uiso   1.00
N274   N     0.20070   0.86179   0.89528   0.00000  Uiso   1.00
N275   N     0.38974   0.77186   0.33385   0.00000  Uiso   1.00
N276   N     0.43612   0.96958   0.46118   0.00000  Uiso   1.00
C277   C     0.28859   0.37426   0.15217   0.00000  Uiso   1.00
C278   C     0.29529   0.37102   0.00748   0.00000  Uiso   1.00
C279   C     0.36787   0.37162   0.99623   0.00000  Uiso   1.00
C280   C     0.36097   0.36825   0.85373   0.00000  Uiso   1.00
C281   C     0.38305   0.36378   0.64833   0.00000  Uiso   1.00
C282   C     0.24319   0.34623   0.16220   0.00000  Uiso   1.00
C283   C     0.27197   0.32599   0.28106   0.00000  Uiso   1.00
C284   C     0.22121   0.30176   0.26880   0.00000  Uiso   1.00
C285   C     0.16239   0.25881   0.30366   0.00000  Uiso   1.00
C286   C     0.23042   0.40072   0.12710   0.00000  Uiso   1.00
C287   C     0.24844   0.42630   0.21646   0.00000  Uiso   1.00
C288   C     0.18691   0.44795   0.17467   0.00000  Uiso   1.00
C289   C     0.10826   0.48961   0.15503   0.00000  Uiso   1.00
C290   C     0.14725   0.36723   0.91909   0.00000  Uiso   1.00
C291   C     0.21852   0.36720   0.88088   0.00000  Uiso   1.00
C292   C     0.21150   0.36383   0.73835   0.00000  Uiso   1.00
C293   C     0.28406   0.36443   0.72690   0.00000  Uiso   1.00
C294   C     0.16643   0.34241   0.03561   0.00000  Uiso   1.00
C295   C     0.11560   0.31820   0.02318   0.00000  Uiso   1.00
C296   C     0.14430   0.29793   0.14197   0.00000  Uiso   1.00
C297   C     0.15365   0.39690   0.00049   0.00000  Uiso   1.00
C298   C     0.09207   0.41851   0.95857   0.00000  Uiso   1.00
C299   C     0.11000   0.44412   0.04784   0.00000  Uiso   1.00
H300   H     0.34835   0.37724   0.25074   0.00000  Uiso   1.00
H301   H     0.42727   0.37457   0.09424   0.00000  Uiso   1.00
H302   H     0.33138   0.32895   0.37902   0.00000  Uiso   1.00
H303   H     0.30786   0.42925   0.31442   0.00000  Uiso   1.00
H304   H     0.48091   0.36992   0.86490   0.00000  Uiso   1.00
H305   H     0.27872   0.27373   0.46541   0.00000  Uiso   1.00
H306   H     0.22911   0.48522   0.32919   0.00000  Uiso   1.00
H307   H     0.08748   0.36425   0.82052   0.00000  Uiso   1.00
H308   H     0.15208   0.36088   0.64040   0.00000  Uiso   1.00
H309   H     0.05620   0.31525   0.92519   0.00000  Uiso   1.00
H310   H     0.03267   0.41555   0.86059   0.00000  Uiso   1.00
H311   H     0.25756   0.35880   0.49655   0.00000  Uiso   1.00
H312   H     0.05537   0.26261   0.09707   0.00000  Uiso   1.00
H313   H     0.00576   0.47410   0.96085   0.00000  Uiso   1.00
O314   O     0.41645   0.36236   0.57001   0.00000  Uiso   1.00
O315   O     0.15117   0.23617   0.35787   0.00000  Uiso   1.00
O316   O     0.08609   0.51364   0.17915   0.00000  Uiso   1.00
N317   N     0.41948   0.36777   0.80293   0.00000  Uiso   1.00
N318   N     0.23045   0.27784   0.36435   0.00000  Uiso   1.00
N319   N     0.18406   0.47556   0.23703   0.00000  Uiso   1.00
N320   N     0.29930   0.36179   0.60472   0.00000  Uiso   1.00
N321   N     0.11026   0.27186   0.16615   0.00000  Uiso   1.00
N322   N     0.06388   0.46958   0.03882   0.00000  Uiso   1.00
C323   C     0.78859   0.87426   0.15217   0.00000  Uiso   1.00
C324   C     0.79529   0.87102   0.00748   0.00000  Uiso   1.00
C325   C     0.86787   0.87162   0.99623   0.00000  Uiso   1.00
C326   C     0.86097   0.86825   0.85373   0.00000  Uiso   1.00
C327   C     0.88305   0.86378   0.64833   0.00000  Uiso   1.00
C328   C     0.74319   0.84623   0.16220   0.00000  Uiso   1.00
C329   C     0.77197   0.82599   0.28106   0.00000  Uiso   1.00
C330   C     0.72121   0.80176   0.26880   0.00000  Uiso   1.00
C331   C     0.66239   0.75881   0.30366   0.00000  Uiso   1.00
C332   C     0.73042   0.90072   0.12710   0.00000  Uiso   1.00
C333   C     0.74844   0.92630   0.21646   0.00000  Uiso   1.00
C334   C     0.68691   0.94795   0.17467   0.00000  Uiso   1.00
C335   C     0.60826   0.98961   0.15503   0.00000  Uiso   1.00
C336   C     0.64725   0.86723   0.91909   0.00000  Uiso   1.00
C337   C     0.71852   0.86720   0.88088   0.00000  Uiso   1.00
C338   C     0.71150   0.86383   0.73835   0.00000  Uiso   1.00
C339   C     0.78406   0.86443   0.72690   0.00000  Uiso   1.00
C340   C     0.66643   0.84241   0.03561   0.00000  Uiso   1.00
C341   C     0.61560   0.81820   0.02318   0.00000  Uiso   1.00
C342   C     0.64430   0.79793   0.14197   0.00000  Uiso   1.00
C343   C     0.65365   0.89690   0.00049   0.00000  Uiso   1.00
C344   C     0.59207   0.91851   0.95857   0.00000  Uiso   1.00
C345   C     0.61000   0.94412   0.04784   0.00000  Uiso   1.00
H346   H     0.84835   0.87724   0.25074   0.00000  Uiso   1.00
H347   H     0.92727   0.87457   0.09424   0.00000  Uiso   1.00
H348   H     0.83138   0.82895   0.37902   0.00000  Uiso   1.00
H349   H     0.80786   0.92925   0.31442   0.00000  Uiso   1.00
H350   H     0.98091   0.86992   0.86490   0.00000  Uiso   1.00
H351   H     0.77872   0.77373   0.46541   0.00000  Uiso   1.00
H352   H     0.72911   0.98522   0.32919   0.00000  Uiso   1.00
H353   H     0.58748   0.86425   0.82052   0.00000  Uiso   1.00
H354   H     0.65208   0.86088   0.64040   0.00000  Uiso   1.00
H355   H     0.55620   0.81525   0.92519   0.00000  Uiso   1.00
H356   H     0.53267   0.91555   0.86059   0.00000  Uiso   1.00
H357   H     0.75756   0.85880   0.49655   0.00000  Uiso   1.00
H358   H     0.55537   0.76261   0.09707   0.00000  Uiso   1.00
H359   H     0.50576   0.97410   0.96085   0.00000  Uiso   1.00
O360   O     0.91645   0.86236   0.57001   0.00000  Uiso   1.00
O361   O     0.65117   0.73617   0.35787   0.00000  Uiso   1.00
O362   O     0.58609   0.01364   0.17915   0.00000  Uiso   1.00
N363   N     0.91948   0.86777   0.80293   0.00000  Uiso   1.00
N364   N     0.73045   0.77784   0.36435   0.00000  Uiso   1.00
N365   N     0.68406   0.97556   0.23703   0.00000  Uiso   1.00
N366   N     0.79930   0.86179   0.60472   0.00000  Uiso   1.00
N367   N     0.61026   0.77186   0.16615   0.00000  Uiso   1.00
N368   N     0.56388   0.96958   0.03882   0.00000  Uiso   1.00
