data_job_04538
_audit_creation_date              2018-12-19
_audit_creation_method            'Materials Studio'
_symmetry_space_group_name_H-M    'P1'
_symmetry_Int_Tables_number       1
_symmetry_cell_setting            triclinic
loop_
_symmetry_equiv_pos_as_xyz
  x,y,z
_cell_length_a                    12.5397
_cell_length_b                    13.9839
_cell_length_c                    14.4563
_cell_angle_alpha                 87.4036
_cell_angle_beta                  68.5538
_cell_angle_gamma                 89.3361
loop_
_atom_site_label
_atom_site_type_symbol
_atom_site_fract_x
_atom_site_fract_y
_atom_site_fract_z
_atom_site_U_iso_or_equiv
_atom_site_adp_type
_atom_site_occupancy
C1     C     0.29684   0.25136   0.28266   0.00000  Uiso   1.00
C2     C     0.19106   0.29764   0.27185   0.00000  Uiso   1.00
C3     C     0.09283   0.32372   0.34951   0.00000  Uiso   1.00
C4     C     0.00550   0.36507   0.32415   0.00000  Uiso   1.00
C5     C     0.83960   0.43466   0.32250   0.00000  Uiso   1.00
C6     C     0.31533   0.15854   0.22753   0.00000  Uiso   1.00
C7     C     0.32161   0.06766   0.26791   0.00000  Uiso   1.00
C8     C     0.33891   0.99192   0.20523   0.00000  Uiso   1.00
C9     C     0.36604   0.84555   0.13474   0.00000  Uiso   1.00
C10    C     0.39756   0.31645   0.22311   0.00000  Uiso   1.00
C11    C     0.47300   0.35832   0.25977   0.00000  Uiso   1.00
C12    C     0.55955   0.41551   0.19336   0.00000  Uiso   1.00
C13    C     0.71435   0.51432   0.11602   0.00000  Uiso   1.00
C14    C     0.31644   0.27844   0.09954   0.00000  Uiso   1.00
C15    C     0.20170   0.31235   0.17239   0.00000  Uiso   1.00
C16    C     0.11451   0.35368   0.14690   0.00000  Uiso   1.00
C17    C     0.01616   0.37981   0.22450   0.00000  Uiso   1.00
C18    C     0.32598   0.17325   0.12807   0.00000  Uiso   1.00
C19    C     0.34328   0.09763   0.06531   0.00000  Uiso   1.00
C20    C     0.34957   0.00666   0.10559   0.00000  Uiso   1.00
C21    C     0.40820   0.33116   0.12364   0.00000  Uiso   1.00
C22    C     0.49467   0.38829   0.05717   0.00000  Uiso   1.00
C23    C     0.57021   0.43025   0.09372   0.00000  Uiso   1.00
H24    H     0.28856   0.23990   0.36010   0.00000  Uiso   1.00
H25    H     0.08462   0.31231   0.42647   0.00000  Uiso   1.00
H26    H     0.31338   0.05630   0.34488   0.00000  Uiso   1.00
H27    H     0.46473   0.34692   0.33674   0.00000  Uiso   1.00
H28    H     0.86319   0.39905   0.45620   0.00000  Uiso   1.00
H29    H     0.34558   0.85923   0.28416   0.00000  Uiso   1.00
H30    H     0.66475   0.47206   0.26699   0.00000  Uiso   1.00
H31    H     0.32473   0.28990   0.02210   0.00000  Uiso   1.00
H32    H     0.12277   0.36506   0.06992   0.00000  Uiso   1.00
H33    H     0.35152   0.10904   0.98834   0.00000  Uiso   1.00
H34    H     0.50288   0.39966   0.98020   0.00000  Uiso   1.00
H35    H     0.89415   0.44185   0.16681   0.00000  Uiso   1.00
H36    H     0.37654   0.90204   0.99477   0.00000  Uiso   1.00
H37    H     0.69571   0.51487   0.97761   0.00000  Uiso   1.00
O38    O     0.74515   0.46896   0.34907   0.00000  Uiso   1.00
O39    O     0.37804   0.76075   0.12335   0.00000  Uiso   1.00
O40    O     0.79678   0.56476   0.10084   0.00000  Uiso   1.00
N41    N     0.89821   0.39883   0.38153   0.00000  Uiso   1.00
N42    N     0.34919   0.89413   0.22068   0.00000  Uiso   1.00
N43    N     0.64760   0.46705   0.20463   0.00000  Uiso   1.00
N44    N     0.91486   0.42186   0.22581   0.00000  Uiso   1.00
N45    N     0.36585   0.91716   0.06497   0.00000  Uiso   1.00
N46    N     0.66426   0.49008   0.04891   0.00000  Uiso   1.00
C47    C     0.23287   0.15461   0.67715   0.00000  Uiso   1.00
C48    C     0.33763   0.20670   0.68018   0.00000  Uiso   1.00
C49    C     0.43444   0.23265   0.59836   0.00000  Uiso   1.00
C50    C     0.52100   0.27984   0.61674   0.00000  Uiso   1.00
C51    C     0.68521   0.35757   0.60674   0.00000  Uiso   1.00
C52    C     0.21792   0.06485   0.74473   0.00000  Uiso   1.00
C53    C     0.21407   0.97154   0.71718   0.00000  Uiso   1.00
C54    C     0.19986   0.89933   0.78990   0.00000  Uiso   1.00
C55    C     0.17814   0.75685   0.88013   0.00000  Uiso   1.00
C56    C     0.13044   0.21806   0.72860   0.00000  Uiso   1.00
C57    C     0.05301   0.25355   0.68750   0.00000  Uiso   1.00
C58    C     0.96512   0.31030   0.74665   0.00000  Uiso   1.00
C59    C     0.80757   0.40570   0.81184   0.00000  Uiso   1.00
C60    C     0.21444   0.19226   0.85529   0.00000  Uiso   1.00
C61    C     0.32761   0.22715   0.77695   0.00000  Uiso   1.00
C62    C     0.41405   0.27431   0.79545   0.00000  Uiso   1.00
C63    C     0.51097   0.30033   0.71367   0.00000  Uiso   1.00
C64    C     0.20792   0.08530   0.84149   0.00000  Uiso   1.00
C65    C     0.19369   0.01320   0.91427   0.00000  Uiso   1.00
C66    C     0.18983   0.91981   0.88683   0.00000  Uiso   1.00
C67    C     0.12043   0.23851   0.82536   0.00000  Uiso   1.00
C68    C     0.03263   0.29521   0.88459   0.00000  Uiso   1.00
C69    C     0.95509   0.33079   0.84359   0.00000  Uiso   1.00
H70    H     0.24066   0.13868   0.60182   0.00000  Uiso   1.00
H71    H     0.44215   0.21680   0.52349   0.00000  Uiso   1.00
H72    H     0.22181   0.95574   0.64229   0.00000  Uiso   1.00
H73    H     0.06078   0.23771   0.61262   0.00000  Uiso   1.00
H74    H     0.66115   0.31241   0.47933   0.00000  Uiso   1.00
H75    H     0.19651   0.76195   0.72984   0.00000  Uiso   1.00
H76    H     0.85694   0.35652   0.66727   0.00000  Uiso   1.00
H77    H     0.20665   0.20818   0.93062   0.00000  Uiso   1.00
H78    H     0.40628   0.29013   0.87034   0.00000  Uiso   1.00
H79    H     0.18594   0.02906   0.98914   0.00000  Uiso   1.00
H80    H     0.02491   0.31103   0.95947   0.00000  Uiso   1.00
H81    H     0.63204   0.37192   0.76084   0.00000  Uiso   1.00
H82    H     0.16739   0.82145   0.01135   0.00000  Uiso   1.00
H83    H     0.82783   0.41603   0.94878   0.00000  Uiso   1.00
O84    O     0.77855   0.39478   0.57450   0.00000  Uiso   1.00
O85    O     0.16894   0.67260   0.90316   0.00000  Uiso   1.00
O86    O     0.72344   0.45268   0.82107   0.00000  Uiso   1.00
N87    N     0.62689   0.31518   0.55385   0.00000  Uiso   1.00
N88    N     0.19250   0.80053   0.78806   0.00000  Uiso   1.00
N89    N     0.87501   0.35639   0.72957   0.00000  Uiso   1.00
N90    N     0.61123   0.34721   0.70533   0.00000  Uiso   1.00
N91    N     0.17684   0.83256   0.93954   0.00000  Uiso   1.00
N92    N     0.85935   0.38842   0.88105   0.00000  Uiso   1.00
C93    C     0.70316   0.74864   0.71734   0.00000  Uiso   1.00
C94    C     0.80894   0.70236   0.72815   0.00000  Uiso   1.00
C95    C     0.90717   0.67628   0.65049   0.00000  Uiso   1.00
C96    C     0.99450   0.63493   0.67585   0.00000  Uiso   1.00
C97    C     0.16040   0.56534   0.67750   0.00000  Uiso   1.00
C98    C     0.68467   0.84146   0.77247   0.00000  Uiso   1.00
C99    C     0.67839   0.93234   0.73209   0.00000  Uiso   1.00
C100   C     0.66109   0.00808   0.79477   0.00000  Uiso   1.00
C101   C     0.63396   0.15445   0.86526   0.00000  Uiso   1.00
C102   C     0.60244   0.68355   0.77689   0.00000  Uiso   1.00
C103   C     0.52700   0.64168   0.74023   0.00000  Uiso   1.00
C104   C     0.44045   0.58449   0.80664   0.00000  Uiso   1.00
C105   C     0.28565   0.48568   0.88398   0.00000  Uiso   1.00
C106   C     0.68356   0.72156   0.90046   0.00000  Uiso   1.00
C107   C     0.79830   0.68765   0.82761   0.00000  Uiso   1.00
C108   C     0.88549   0.64632   0.85310   0.00000  Uiso   1.00
C109   C     0.98384   0.62019   0.77550   0.00000  Uiso   1.00
C110   C     0.67402   0.82675   0.87193   0.00000  Uiso   1.00
C111   C     0.65672   0.90237   0.93469   0.00000  Uiso   1.00
C112   C     0.65043   0.99334   0.89441   0.00000  Uiso   1.00
C113   C     0.59180   0.66884   0.87636   0.00000  Uiso   1.00
C114   C     0.50533   0.61171   0.94283   0.00000  Uiso   1.00
C115   C     0.42979   0.56975   0.90628   0.00000  Uiso   1.00
H116   H     0.71144   0.76010   0.63990   0.00000  Uiso   1.00
H117   H     0.91538   0.68769   0.57353   0.00000  Uiso   1.00
H118   H     0.68662   0.94370   0.65512   0.00000  Uiso   1.00
H119   H     0.53527   0.65308   0.66326   0.00000  Uiso   1.00
H120   H     0.13681   0.60095   0.54380   0.00000  Uiso   1.00
H121   H     0.65442   0.14077   0.71584   0.00000  Uiso   1.00
H122   H     0.33525   0.52794   0.73301   0.00000  Uiso   1.00
H123   H     0.67527   0.71010   0.97790   0.00000  Uiso   1.00
H124   H     0.87723   0.63494   0.93008   0.00000  Uiso   1.00
H125   H     0.64848   0.89096   0.01166   0.00000  Uiso   1.00
H126   H     0.49712   0.60034   0.01980   0.00000  Uiso   1.00
H127   H     0.10585   0.55815   0.83319   0.00000  Uiso   1.00
H128   H     0.62346   0.09796   0.00523   0.00000  Uiso   1.00
H129   H     0.30429   0.48513   0.02239   0.00000  Uiso   1.00
O130   O     0.25485   0.53104   0.65093   0.00000  Uiso   1.00
O131   O     0.62196   0.23925   0.87665   0.00000  Uiso   1.00
O132   O     0.20322   0.43524   0.89916   0.00000  Uiso   1.00
N133   N     0.10179   0.60117   0.61847   0.00000  Uiso   1.00
N134   N     0.65081   0.10587   0.77932   0.00000  Uiso   1.00
N135   N     0.35240   0.53295   0.79537   0.00000  Uiso   1.00
N136   N     0.08514   0.57814   0.77419   0.00000  Uiso   1.00
N137   N     0.63415   0.08284   0.93503   0.00000  Uiso   1.00
N138   N     0.33574   0.50992   0.95109   0.00000  Uiso   1.00
C139   C     0.76713   0.84539   0.32285   0.00000  Uiso   1.00
C140   C     0.66237   0.79330   0.31982   0.00000  Uiso   1.00
C141   C     0.56556   0.76735   0.40164   0.00000  Uiso   1.00
C142   C     0.47900   0.72016   0.38326   0.00000  Uiso   1.00
C143   C     0.31479   0.64243   0.39326   0.00000  Uiso   1.00
C144   C     0.78208   0.93515   0.25527   0.00000  Uiso   1.00
C145   C     0.78593   0.02846   0.28282   0.00000  Uiso   1.00
C146   C     0.80014   0.10067   0.21010   0.00000  Uiso   1.00
C147   C     0.82186   0.24315   0.11987   0.00000  Uiso   1.00
C148   C     0.86956   0.78194   0.27140   0.00000  Uiso   1.00
C149   C     0.94699   0.74645   0.31250   0.00000  Uiso   1.00
C150   C     0.03488   0.68970   0.25335   0.00000  Uiso   1.00
C151   C     0.19243   0.59430   0.18816   0.00000  Uiso   1.00
C152   C     0.78556   0.80774   0.14471   0.00000  Uiso   1.00
C153   C     0.67239   0.77285   0.22305   0.00000  Uiso   1.00
C154   C     0.58595   0.72569   0.20455   0.00000  Uiso   1.00
C155   C     0.48903   0.69967   0.28633   0.00000  Uiso   1.00
C156   C     0.79208   0.91470   0.15851   0.00000  Uiso   1.00
C157   C     0.80631   0.98680   0.08573   0.00000  Uiso   1.00
C158   C     0.81017   0.08019   0.11317   0.00000  Uiso   1.00
C159   C     0.87957   0.76149   0.17464   0.00000  Uiso   1.00
C160   C     0.96737   0.70479   0.11541   0.00000  Uiso   1.00
C161   C     0.04491   0.66921   0.15641   0.00000  Uiso   1.00
H162   H     0.75934   0.86132   0.39818   0.00000  Uiso   1.00
H163   H     0.55785   0.78320   0.47651   0.00000  Uiso   1.00
H164   H     0.77819   0.04426   0.35771   0.00000  Uiso   1.00
H165   H     0.93922   0.76229   0.38738   0.00000  Uiso   1.00
H166   H     0.33885   0.68759   0.52067   0.00000  Uiso   1.00
H167   H     0.80349   0.23805   0.27016   0.00000  Uiso   1.00
H168   H     0.14306   0.64348   0.33273   0.00000  Uiso   1.00
H169   H     0.79335   0.79182   0.06938   0.00000  Uiso   1.00
H170   H     0.59372   0.70987   0.12966   0.00000  Uiso   1.00
H171   H     0.81406   0.97094   0.01086   0.00000  Uiso   1.00
H172   H     0.97509   0.68897   0.04053   0.00000  Uiso   1.00
H173   H     0.36796   0.62808   0.23916   0.00000  Uiso   1.00
H174   H     0.83261   0.17855   0.98865   0.00000  Uiso   1.00
H175   H     0.17217   0.58397   0.05122   0.00000  Uiso   1.00
O176   O     0.22145   0.60522   0.42550   0.00000  Uiso   1.00
O177   O     0.83106   0.32740   0.09684   0.00000  Uiso   1.00
O178   O     0.27656   0.54732   0.17893   0.00000  Uiso   1.00
N179   N     0.37311   0.68482   0.44615   0.00000  Uiso   1.00
N180   N     0.80750   0.19947   0.21194   0.00000  Uiso   1.00
N181   N     0.12499   0.64361   0.27043   0.00000  Uiso   1.00
N182   N     0.38877   0.65279   0.29467   0.00000  Uiso   1.00
N183   N     0.82316   0.16744   0.06046   0.00000  Uiso   1.00
N184   N     0.14065   0.61158   0.11895   0.00000  Uiso   1.00
