data_job_03630
_audit_creation_date              2018-12-19
_audit_creation_method            'Materials Studio'
_symmetry_space_group_name_H-M    'P1'
_symmetry_Int_Tables_number       1
_symmetry_cell_setting            triclinic
loop_
_symmetry_equiv_pos_as_xyz
  x,y,z
_cell_length_a                    14.3825
_cell_length_b                    14.0657
_cell_length_c                    14.1376
_cell_angle_alpha                 90.0000
_cell_angle_beta                  90.0000
_cell_angle_gamma                 90.0000
loop_
_atom_site_label
_atom_site_type_symbol
_atom_site_fract_x
_atom_site_fract_y
_atom_site_fract_z
_atom_site_U_iso_or_equiv
_atom_site_adp_type
_atom_site_occupancy
C1     C     0.41585   0.23207   0.42559   0.00000  Uiso   1.00
C2     C     0.38579   0.19128   0.52073   0.00000  Uiso   1.00
C3     C     0.41234   0.10384   0.55729   0.00000  Uiso   1.00
C4     C     0.37731   0.07945   0.64553   0.00000  Uiso   1.00
C5     C     0.33964   0.00681   0.78567   0.00000  Uiso   1.00
C6     C     0.32643   0.25373   0.37177   0.00000  Uiso   1.00
C7     C     0.30309   0.21881   0.28308   0.00000  Uiso   1.00
C8     C     0.21810   0.24701   0.24592   0.00000  Uiso   1.00
C9     C     0.08831   0.27139   0.15476   0.00000  Uiso   1.00
C10    C     0.46031   0.32809   0.44709   0.00000  Uiso   1.00
C11    C     0.54953   0.35569   0.42170   0.00000  Uiso   1.00
C12    C     0.57725   0.44650   0.44793   0.00000  Uiso   1.00
C13    C     0.65533   0.58633   0.47371   0.00000  Uiso   1.00
C14    C     0.30641   0.34427   0.51727   0.00000  Uiso   1.00
C15    C     0.32635   0.25222   0.57053   0.00000  Uiso   1.00
C16    C     0.29127   0.22796   0.65873   0.00000  Uiso   1.00
C17    C     0.31777   0.14050   0.69542   0.00000  Uiso   1.00
C18    C     0.26700   0.31467   0.42157   0.00000  Uiso   1.00
C19    C     0.18202   0.34293   0.38452   0.00000  Uiso   1.00
C20    C     0.15855   0.30805   0.29581   0.00000  Uiso   1.00
C21    C     0.40088   0.38903   0.49689   0.00000  Uiso   1.00
C22    C     0.42846   0.47982   0.52315   0.00000  Uiso   1.00
C23    C     0.51770   0.50755   0.49781   0.00000  Uiso   1.00
H24    H     0.46212   0.18463   0.38681   0.00000  Uiso   1.00
H25    H     0.45834   0.05669   0.51873   0.00000  Uiso   1.00
H26    H     0.34911   0.17166   0.24456   0.00000  Uiso   1.00
H27    H     0.59551   0.30852   0.38316   0.00000  Uiso   1.00
H28    H     0.42790   0.94170   0.68693   0.00000  Uiso   1.00
H29    H     0.19760   0.18414   0.10882   0.00000  Uiso   1.00
H30    H     0.71719   0.47274   0.40108   0.00000  Uiso   1.00
H31    H     0.26013   0.39171   0.55604   0.00000  Uiso   1.00
H32    H     0.24527   0.27513   0.69725   0.00000  Uiso   1.00
H33    H     0.13604   0.39010   0.42308   0.00000  Uiso   1.00
H34    H     0.38244   0.52695   0.56168   0.00000  Uiso   1.00
H35    H     0.25497   0.11900   0.83182   0.00000  Uiso   1.00
H36    H     0.02467   0.36144   0.25370   0.00000  Uiso   1.00
H37    H     0.54425   0.65003   0.54598   0.00000  Uiso   1.00
O38    O     0.33528   0.94991   0.84920   0.00000  Uiso   1.00
O39    O     0.03314   0.26799   0.09073   0.00000  Uiso   1.00
O40    O     0.71482   0.64662   0.47418   0.00000  Uiso   1.00
N41    N     0.38926   0.99944   0.70166   0.00000  Uiso   1.00
N42    N     0.17393   0.22609   0.16116   0.00000  Uiso   1.00
N43    N     0.65969   0.49591   0.43439   0.00000  Uiso   1.00
N44    N     0.29620   0.09484   0.77963   0.00000  Uiso   1.00
N45    N     0.08088   0.32149   0.23913   0.00000  Uiso   1.00
N46    N     0.56664   0.59131   0.51235   0.00000  Uiso   1.00
C47    C     0.08415   0.76793   0.92559   0.00000  Uiso   1.00
C48    C     0.11421   0.80872   0.02073   0.00000  Uiso   1.00
C49    C     0.08766   0.89616   0.05729   0.00000  Uiso   1.00
C50    C     0.12269   0.92055   0.14553   0.00000  Uiso   1.00
C51    C     0.16036   0.99319   0.28567   0.00000  Uiso   1.00
C52    C     0.17357   0.74627   0.87177   0.00000  Uiso   1.00
C53    C     0.19691   0.78119   0.78308   0.00000  Uiso   1.00
C54    C     0.28190   0.75299   0.74592   0.00000  Uiso   1.00
C55    C     0.41169   0.72861   0.65476   0.00000  Uiso   1.00
C56    C     0.03969   0.67191   0.94709   0.00000  Uiso   1.00
C57    C     0.95047   0.64431   0.92170   0.00000  Uiso   1.00
C58    C     0.92275   0.55350   0.94793   0.00000  Uiso   1.00
C59    C     0.84467   0.41367   0.97371   0.00000  Uiso   1.00
C60    C     0.19359   0.65573   0.01727   0.00000  Uiso   1.00
C61    C     0.17365   0.74778   0.07053   0.00000  Uiso   1.00
C62    C     0.20873   0.77204   0.15873   0.00000  Uiso   1.00
C63    C     0.18223   0.85950   0.19542   0.00000  Uiso   1.00
C64    C     0.23300   0.68533   0.92157   0.00000  Uiso   1.00
C65    C     0.31798   0.65707   0.88452   0.00000  Uiso   1.00
C66    C     0.34145   0.69195   0.79581   0.00000  Uiso   1.00
C67    C     0.09912   0.61097   0.99689   0.00000  Uiso   1.00
C68    C     0.07154   0.52018   0.02315   0.00000  Uiso   1.00
C69    C     0.98230   0.49245   0.99781   0.00000  Uiso   1.00
H70    H     0.03788   0.81537   0.88681   0.00000  Uiso   1.00
H71    H     0.04166   0.94331   0.01873   0.00000  Uiso   1.00
H72    H     0.15089   0.82834   0.74456   0.00000  Uiso   1.00
H73    H     0.90449   0.69148   0.88316   0.00000  Uiso   1.00
H74    H     0.07210   0.05830   0.18693   0.00000  Uiso   1.00
H75    H     0.30240   0.81586   0.60882   0.00000  Uiso   1.00
H76    H     0.78281   0.52726   0.90108   0.00000  Uiso   1.00
H77    H     0.23987   0.60829   0.05604   0.00000  Uiso   1.00
H78    H     0.25473   0.72487   0.19725   0.00000  Uiso   1.00
H79    H     0.36396   0.60990   0.92308   0.00000  Uiso   1.00
H80    H     0.11756   0.47305   0.06168   0.00000  Uiso   1.00
H81    H     0.24503   0.88100   0.33182   0.00000  Uiso   1.00
H82    H     0.47533   0.63856   0.75370   0.00000  Uiso   1.00
H83    H     0.95575   0.34997   0.04598   0.00000  Uiso   1.00
O84    O     0.16472   0.05009   0.34920   0.00000  Uiso   1.00
O85    O     0.46686   0.73201   0.59073   0.00000  Uiso   1.00
O86    O     0.78518   0.35338   0.97418   0.00000  Uiso   1.00
N87    N     0.11074   0.00056   0.20166   0.00000  Uiso   1.00
N88    N     0.32607   0.77391   0.66116   0.00000  Uiso   1.00
N89    N     0.84031   0.50409   0.93439   0.00000  Uiso   1.00
N90    N     0.20380   0.90516   0.27963   0.00000  Uiso   1.00
N91    N     0.41912   0.67851   0.73913   0.00000  Uiso   1.00
N92    N     0.93336   0.40869   0.01235   0.00000  Uiso   1.00
C93    C     0.58415   0.73207   0.07441   0.00000  Uiso   1.00
C94    C     0.61421   0.69128   0.97927   0.00000  Uiso   1.00
C95    C     0.58766   0.60384   0.94271   0.00000  Uiso   1.00
C96    C     0.62269   0.57945   0.85447   0.00000  Uiso   1.00
C97    C     0.66036   0.50681   0.71433   0.00000  Uiso   1.00
C98    C     0.67357   0.75373   0.12823   0.00000  Uiso   1.00
C99    C     0.69691   0.71881   0.21692   0.00000  Uiso   1.00
C100   C     0.78190   0.74701   0.25408   0.00000  Uiso   1.00
C101   C     0.91169   0.77139   0.34524   0.00000  Uiso   1.00
C102   C     0.53969   0.82809   0.05291   0.00000  Uiso   1.00
C103   C     0.45047   0.85569   0.07830   0.00000  Uiso   1.00
C104   C     0.42275   0.94650   0.05207   0.00000  Uiso   1.00
C105   C     0.34467   0.08633   0.02629   0.00000  Uiso   1.00
C106   C     0.69359   0.84427   0.98273   0.00000  Uiso   1.00
C107   C     0.67365   0.75222   0.92947   0.00000  Uiso   1.00
C108   C     0.70873   0.72796   0.84127   0.00000  Uiso   1.00
C109   C     0.68223   0.64050   0.80458   0.00000  Uiso   1.00
C110   C     0.73300   0.81467   0.07843   0.00000  Uiso   1.00
C111   C     0.81798   0.84293   0.11548   0.00000  Uiso   1.00
C112   C     0.84145   0.80805   0.20419   0.00000  Uiso   1.00
C113   C     0.59912   0.88903   0.00311   0.00000  Uiso   1.00
C114   C     0.57154   0.97982   0.97685   0.00000  Uiso   1.00
C115   C     0.48230   0.00755   0.00219   0.00000  Uiso   1.00
H116   H     0.53788   0.68463   0.11319   0.00000  Uiso   1.00
H117   H     0.54166   0.55669   0.98127   0.00000  Uiso   1.00
H118   H     0.65089   0.67166   0.25544   0.00000  Uiso   1.00
H119   H     0.40449   0.80852   0.11684   0.00000  Uiso   1.00
H120   H     0.57210   0.44170   0.81307   0.00000  Uiso   1.00
H121   H     0.80240   0.68414   0.39118   0.00000  Uiso   1.00
H122   H     0.28281   0.97274   0.09892   0.00000  Uiso   1.00
H123   H     0.73987   0.89171   0.94396   0.00000  Uiso   1.00
H124   H     0.75473   0.77513   0.80275   0.00000  Uiso   1.00
H125   H     0.86396   0.89010   0.07692   0.00000  Uiso   1.00
H126   H     0.61756   0.02695   0.93832   0.00000  Uiso   1.00
H127   H     0.74503   0.61900   0.66818   0.00000  Uiso   1.00
H128   H     0.97533   0.86144   0.24630   0.00000  Uiso   1.00
H129   H     0.45575   0.15003   0.95402   0.00000  Uiso   1.00
O130   O     0.66472   0.44991   0.65080   0.00000  Uiso   1.00
O131   O     0.96686   0.76799   0.40927   0.00000  Uiso   1.00
O132   O     0.28518   0.14662   0.02582   0.00000  Uiso   1.00
N133   N     0.61074   0.49944   0.79834   0.00000  Uiso   1.00
N134   N     0.82607   0.72609   0.33884   0.00000  Uiso   1.00
N135   N     0.34031   0.99591   0.06561   0.00000  Uiso   1.00
N136   N     0.70380   0.59484   0.72037   0.00000  Uiso   1.00
N137   N     0.91912   0.82149   0.26087   0.00000  Uiso   1.00
N138   N     0.43336   0.09131   0.98765   0.00000  Uiso   1.00
C139   C     0.91585   0.26793   0.57441   0.00000  Uiso   1.00
C140   C     0.88579   0.30872   0.47927   0.00000  Uiso   1.00
C141   C     0.91234   0.39616   0.44271   0.00000  Uiso   1.00
C142   C     0.87731   0.42055   0.35447   0.00000  Uiso   1.00
C143   C     0.83964   0.49319   0.21433   0.00000  Uiso   1.00
C144   C     0.82643   0.24627   0.62823   0.00000  Uiso   1.00
C145   C     0.80309   0.28119   0.71692   0.00000  Uiso   1.00
C146   C     0.71810   0.25299   0.75408   0.00000  Uiso   1.00
C147   C     0.58831   0.22861   0.84524   0.00000  Uiso   1.00
C148   C     0.96031   0.17191   0.55291   0.00000  Uiso   1.00
C149   C     0.04953   0.14431   0.57830   0.00000  Uiso   1.00
C150   C     0.07725   0.05350   0.55207   0.00000  Uiso   1.00
C151   C     0.15533   0.91367   0.52629   0.00000  Uiso   1.00
C152   C     0.80641   0.15573   0.48273   0.00000  Uiso   1.00
C153   C     0.82635   0.24778   0.42947   0.00000  Uiso   1.00
C154   C     0.79127   0.27204   0.34127   0.00000  Uiso   1.00
C155   C     0.81777   0.35950   0.30458   0.00000  Uiso   1.00
C156   C     0.76700   0.18533   0.57843   0.00000  Uiso   1.00
C157   C     0.68202   0.15707   0.61548   0.00000  Uiso   1.00
C158   C     0.65855   0.19195   0.70419   0.00000  Uiso   1.00
C159   C     0.90088   0.11097   0.50311   0.00000  Uiso   1.00
C160   C     0.92846   0.02018   0.47685   0.00000  Uiso   1.00
C161   C     0.01770   0.99245   0.50219   0.00000  Uiso   1.00
H162   H     0.96212   0.31537   0.61319   0.00000  Uiso   1.00
H163   H     0.95834   0.44331   0.48127   0.00000  Uiso   1.00
H164   H     0.84911   0.32834   0.75544   0.00000  Uiso   1.00
H165   H     0.09551   0.19148   0.61684   0.00000  Uiso   1.00
H166   H     0.92790   0.55830   0.31307   0.00000  Uiso   1.00
H167   H     0.69760   0.31586   0.89118   0.00000  Uiso   1.00
H168   H     0.21719   0.02726   0.59892   0.00000  Uiso   1.00
H169   H     0.76013   0.10829   0.44396   0.00000  Uiso   1.00
H170   H     0.74527   0.22487   0.30275   0.00000  Uiso   1.00
H171   H     0.63604   0.10990   0.57692   0.00000  Uiso   1.00
H172   H     0.88244   0.97305   0.43832   0.00000  Uiso   1.00
H173   H     0.75497   0.38100   0.16818   0.00000  Uiso   1.00
H174   H     0.52467   0.13856   0.74630   0.00000  Uiso   1.00
H175   H     0.04425   0.84997   0.45402   0.00000  Uiso   1.00
O176   O     0.83528   0.55009   0.15080   0.00000  Uiso   1.00
O177   O     0.53314   0.23201   0.90927   0.00000  Uiso   1.00
O178   O     0.21482   0.85338   0.52582   0.00000  Uiso   1.00
N179   N     0.88926   0.50056   0.29834   0.00000  Uiso   1.00
N180   N     0.67393   0.27391   0.83884   0.00000  Uiso   1.00
N181   N     0.15969   0.00409   0.56561   0.00000  Uiso   1.00
N182   N     0.79620   0.40516   0.22037   0.00000  Uiso   1.00
N183   N     0.58088   0.17851   0.76087   0.00000  Uiso   1.00
N184   N     0.06664   0.90869   0.48765   0.00000  Uiso   1.00
