data_job_02883
_audit_creation_date              2018-12-19
_audit_creation_method            'Materials Studio'
_symmetry_space_group_name_H-M    'P1'
_symmetry_Int_Tables_number       1
_symmetry_cell_setting            triclinic
loop_
_symmetry_equiv_pos_as_xyz
  x,y,z
_cell_length_a                    12.7997
_cell_length_b                    26.8230
_cell_length_c                    16.8289
_cell_angle_alpha                 90.0000
_cell_angle_beta                  84.4882
_cell_angle_gamma                 90.0000
loop_
_atom_site_label
_atom_site_type_symbol
_atom_site_fract_x
_atom_site_fract_y
_atom_site_fract_z
_atom_site_U_iso_or_equiv
_atom_site_adp_type
_atom_site_occupancy
C1     C     0.00295   0.67913   0.96608   0.00000  Uiso   1.00
C2     C     0.96199   0.70867   0.04001   0.00000  Uiso   1.00
C3     C     0.93585   0.75889   0.04166   0.00000  Uiso   1.00
C4     C     0.89984   0.77900   0.11525   0.00000  Uiso   1.00
C5     C     0.83774   0.82930   0.21951   0.00000  Uiso   1.00
C6     C     0.10715   0.65657   0.98483   0.00000  Uiso   1.00
C7     C     0.20306   0.66300   0.94008   0.00000  Uiso   1.00
C8     C     0.28923   0.63925   0.96721   0.00000  Uiso   1.00
C9     C     0.45248   0.60864   0.98576   0.00000  Uiso   1.00
C10    C     0.92773   0.63541   0.96094   0.00000  Uiso   1.00
C11    C     0.87280   0.62403   0.89609   0.00000  Uiso   1.00
C12    C     0.80793   0.58246   0.90311   0.00000  Uiso   1.00
C13    C     0.69260   0.51900   0.88457   0.00000  Uiso   1.00
C14    C     0.98547   0.62553   0.09384   0.00000  Uiso   1.00
C15    C     0.95250   0.67955   0.10941   0.00000  Uiso   1.00
C16    C     0.91651   0.69959   0.18302   0.00000  Uiso   1.00
C17    C     0.89032   0.74984   0.18477   0.00000  Uiso   1.00
C18    C     0.09766   0.62746   0.05422   0.00000  Uiso   1.00
C19    C     0.18371   0.60369   0.08143   0.00000  Uiso   1.00
C20    C     0.27972   0.61008   0.03673   0.00000  Uiso   1.00
C21    C     0.91823   0.60630   0.03034   0.00000  Uiso   1.00
C22    C     0.85345   0.56473   0.03745   0.00000  Uiso   1.00
C23    C     0.79842   0.55329   0.97263   0.00000  Uiso   1.00
H24    H     0.01035   0.70179   0.91205   0.00000  Uiso   1.00
H25    H     0.94322   0.78141   0.98795   0.00000  Uiso   1.00
H26    H     0.21038   0.68552   0.88637   0.00000  Uiso   1.00
H27    H     0.88016   0.64657   0.84240   0.00000  Uiso   1.00
H28    H     0.86465   0.85685   0.10270   0.00000  Uiso   1.00
H29    H     0.42795   0.65465   0.88851   0.00000  Uiso   1.00
H30    H     0.73164   0.57251   0.79579   0.00000  Uiso   1.00
H31    H     0.97808   0.60286   0.14787   0.00000  Uiso   1.00
H32    H     0.90918   0.67705   0.23671   0.00000  Uiso   1.00
H33    H     0.17634   0.58117   0.13513   0.00000  Uiso   1.00
H34    H     0.84612   0.54221   0.09116   0.00000  Uiso   1.00
H35    H     0.83702   0.77215   0.30461   0.00000  Uiso   1.00
H36    H     0.40033   0.56995   0.09041   0.00000  Uiso   1.00
H37    H     0.70401   0.48781   0.99770   0.00000  Uiso   1.00
O38    O     0.80613   0.86509   0.25784   0.00000  Uiso   1.00
O39    O     0.54515   0.59981   0.97683   0.00000  Uiso   1.00
O40    O     0.63160   0.49205   0.85518   0.00000  Uiso   1.00
N41    N     0.86758   0.82673   0.13802   0.00000  Uiso   1.00
N42    N     0.39424   0.63770   0.93778   0.00000  Uiso   1.00
N43    N     0.74327   0.56089   0.85108   0.00000  Uiso   1.00
N44    N     0.85272   0.78115   0.24667   0.00000  Uiso   1.00
N45    N     0.37938   0.59212   0.04642   0.00000  Uiso   1.00
N46    N     0.72840   0.51531   0.95973   0.00000  Uiso   1.00
C47    C     0.50295   0.17913   0.96608   0.00000  Uiso   1.00
C48    C     0.46199   0.20867   0.04001   0.00000  Uiso   1.00
C49    C     0.43585   0.25889   0.04166   0.00000  Uiso   1.00
C50    C     0.39984   0.27900   0.11525   0.00000  Uiso   1.00
C51    C     0.33774   0.32930   0.21951   0.00000  Uiso   1.00
C52    C     0.60715   0.15657   0.98483   0.00000  Uiso   1.00
C53    C     0.70306   0.16300   0.94008   0.00000  Uiso   1.00
C54    C     0.78923   0.13925   0.96721   0.00000  Uiso   1.00
C55    C     0.95248   0.10864   0.98576   0.00000  Uiso   1.00
C56    C     0.42773   0.13541   0.96094   0.00000  Uiso   1.00
C57    C     0.37280   0.12403   0.89609   0.00000  Uiso   1.00
C58    C     0.30793   0.08246   0.90311   0.00000  Uiso   1.00
C59    C     0.19260   0.01900   0.88457   0.00000  Uiso   1.00
C60    C     0.48547   0.12553   0.09384   0.00000  Uiso   1.00
C61    C     0.45250   0.17955   0.10941   0.00000  Uiso   1.00
C62    C     0.41651   0.19959   0.18302   0.00000  Uiso   1.00
C63    C     0.39032   0.24984   0.18477   0.00000  Uiso   1.00
C64    C     0.59766   0.12746   0.05422   0.00000  Uiso   1.00
C65    C     0.68371   0.10369   0.08143   0.00000  Uiso   1.00
C66    C     0.77972   0.11008   0.03673   0.00000  Uiso   1.00
C67    C     0.41823   0.10630   0.03034   0.00000  Uiso   1.00
C68    C     0.35345   0.06473   0.03745   0.00000  Uiso   1.00
C69    C     0.29842   0.05329   0.97263   0.00000  Uiso   1.00
H70    H     0.51035   0.20179   0.91205   0.00000  Uiso   1.00
H71    H     0.44322   0.28141   0.98795   0.00000  Uiso   1.00
H72    H     0.71038   0.18552   0.88637   0.00000  Uiso   1.00
H73    H     0.38016   0.14657   0.84240   0.00000  Uiso   1.00
H74    H     0.36465   0.35685   0.10270   0.00000  Uiso   1.00
H75    H     0.92795   0.15465   0.88851   0.00000  Uiso   1.00
H76    H     0.23164   0.07251   0.79579   0.00000  Uiso   1.00
H77    H     0.47808   0.10286   0.14787   0.00000  Uiso   1.00
H78    H     0.40918   0.17705   0.23671   0.00000  Uiso   1.00
H79    H     0.67634   0.08117   0.13513   0.00000  Uiso   1.00
H80    H     0.34612   0.04221   0.09116   0.00000  Uiso   1.00
H81    H     0.33702   0.27215   0.30461   0.00000  Uiso   1.00
H82    H     0.90033   0.06995   0.09041   0.00000  Uiso   1.00
H83    H     0.20401   0.98781   0.99770   0.00000  Uiso   1.00
O84    O     0.30613   0.36509   0.25784   0.00000  Uiso   1.00
O85    O     0.04515   0.09981   0.97683   0.00000  Uiso   1.00
O86    O     0.13160   0.99205   0.85518   0.00000  Uiso   1.00
N87    N     0.36758   0.32673   0.13802   0.00000  Uiso   1.00
N88    N     0.89424   0.13770   0.93778   0.00000  Uiso   1.00
N89    N     0.24327   0.06089   0.85108   0.00000  Uiso   1.00
N90    N     0.35272   0.28115   0.24667   0.00000  Uiso   1.00
N91    N     0.87938   0.09212   0.04642   0.00000  Uiso   1.00
N92    N     0.22840   0.01531   0.95973   0.00000  Uiso   1.00
C93    C     0.99705   0.67913   0.53392   0.00000  Uiso   1.00
C94    C     0.03801   0.70867   0.45999   0.00000  Uiso   1.00
C95    C     0.06415   0.75889   0.45834   0.00000  Uiso   1.00
C96    C     0.10016   0.77900   0.38475   0.00000  Uiso   1.00
C97    C     0.16226   0.82930   0.28049   0.00000  Uiso   1.00
C98    C     0.89285   0.65657   0.51517   0.00000  Uiso   1.00
C99    C     0.79694   0.66300   0.55992   0.00000  Uiso   1.00
C100   C     0.71077   0.63925   0.53279   0.00000  Uiso   1.00
C101   C     0.54752   0.60864   0.51424   0.00000  Uiso   1.00
C102   C     0.07227   0.63541   0.53906   0.00000  Uiso   1.00
C103   C     0.12720   0.62403   0.60391   0.00000  Uiso   1.00
C104   C     0.19207   0.58246   0.59689   0.00000  Uiso   1.00
C105   C     0.30740   0.51900   0.61543   0.00000  Uiso   1.00
C106   C     0.01453   0.62553   0.40616   0.00000  Uiso   1.00
C107   C     0.04750   0.67955   0.39059   0.00000  Uiso   1.00
C108   C     0.08349   0.69959   0.31698   0.00000  Uiso   1.00
C109   C     0.10968   0.74984   0.31523   0.00000  Uiso   1.00
C110   C     0.90234   0.62746   0.44578   0.00000  Uiso   1.00
C111   C     0.81629   0.60369   0.41857   0.00000  Uiso   1.00
C112   C     0.72028   0.61008   0.46327   0.00000  Uiso   1.00
C113   C     0.08177   0.60630   0.46966   0.00000  Uiso   1.00
C114   C     0.14655   0.56473   0.46255   0.00000  Uiso   1.00
C115   C     0.20158   0.55329   0.52737   0.00000  Uiso   1.00
H116   H     0.98965   0.70179   0.58795   0.00000  Uiso   1.00
H117   H     0.05678   0.78141   0.51205   0.00000  Uiso   1.00
H118   H     0.78962   0.68552   0.61363   0.00000  Uiso   1.00
H119   H     0.11984   0.64657   0.65760   0.00000  Uiso   1.00
H120   H     0.13535   0.85685   0.39730   0.00000  Uiso   1.00
H121   H     0.57205   0.65465   0.61149   0.00000  Uiso   1.00
H122   H     0.26836   0.57251   0.70421   0.00000  Uiso   1.00
H123   H     0.02192   0.60286   0.35213   0.00000  Uiso   1.00
H124   H     0.09082   0.67705   0.26329   0.00000  Uiso   1.00
H125   H     0.82366   0.58117   0.36487   0.00000  Uiso   1.00
H126   H     0.15388   0.54221   0.40884   0.00000  Uiso   1.00
H127   H     0.16298   0.77215   0.19539   0.00000  Uiso   1.00
H128   H     0.59967   0.56995   0.40959   0.00000  Uiso   1.00
H129   H     0.29599   0.48781   0.50230   0.00000  Uiso   1.00
O130   O     0.19387   0.86509   0.24216   0.00000  Uiso   1.00
O131   O     0.45485   0.59981   0.52317   0.00000  Uiso   1.00
O132   O     0.36840   0.49205   0.64482   0.00000  Uiso   1.00
N133   N     0.13242   0.82673   0.36198   0.00000  Uiso   1.00
N134   N     0.60576   0.63770   0.56222   0.00000  Uiso   1.00
N135   N     0.25673   0.56089   0.64892   0.00000  Uiso   1.00
N136   N     0.14728   0.78115   0.25333   0.00000  Uiso   1.00
N137   N     0.62062   0.59212   0.45358   0.00000  Uiso   1.00
N138   N     0.27160   0.51531   0.54027   0.00000  Uiso   1.00
C139   C     0.49705   0.17913   0.53392   0.00000  Uiso   1.00
C140   C     0.53801   0.20867   0.45999   0.00000  Uiso   1.00
C141   C     0.56415   0.25889   0.45834   0.00000  Uiso   1.00
C142   C     0.60016   0.27900   0.38475   0.00000  Uiso   1.00
C143   C     0.66226   0.32930   0.28049   0.00000  Uiso   1.00
C144   C     0.39285   0.15657   0.51517   0.00000  Uiso   1.00
C145   C     0.29694   0.16300   0.55992   0.00000  Uiso   1.00
C146   C     0.21077   0.13925   0.53279   0.00000  Uiso   1.00
C147   C     0.04752   0.10864   0.51424   0.00000  Uiso   1.00
C148   C     0.57227   0.13541   0.53906   0.00000  Uiso   1.00
C149   C     0.62720   0.12403   0.60391   0.00000  Uiso   1.00
C150   C     0.69207   0.08246   0.59689   0.00000  Uiso   1.00
C151   C     0.80740   0.01900   0.61543   0.00000  Uiso   1.00
C152   C     0.51453   0.12553   0.40616   0.00000  Uiso   1.00
C153   C     0.54750   0.17955   0.39059   0.00000  Uiso   1.00
C154   C     0.58349   0.19959   0.31698   0.00000  Uiso   1.00
C155   C     0.60968   0.24984   0.31523   0.00000  Uiso   1.00
C156   C     0.40234   0.12746   0.44578   0.00000  Uiso   1.00
C157   C     0.31629   0.10369   0.41857   0.00000  Uiso   1.00
C158   C     0.22028   0.11008   0.46327   0.00000  Uiso   1.00
C159   C     0.58177   0.10630   0.46966   0.00000  Uiso   1.00
C160   C     0.64655   0.06473   0.46255   0.00000  Uiso   1.00
C161   C     0.70158   0.05329   0.52737   0.00000  Uiso   1.00
H162   H     0.48965   0.20179   0.58795   0.00000  Uiso   1.00
H163   H     0.55678   0.28141   0.51205   0.00000  Uiso   1.00
H164   H     0.28962   0.18552   0.61363   0.00000  Uiso   1.00
H165   H     0.61984   0.14657   0.65760   0.00000  Uiso   1.00
H166   H     0.63535   0.35685   0.39730   0.00000  Uiso   1.00
H167   H     0.07205   0.15465   0.61149   0.00000  Uiso   1.00
H168   H     0.76836   0.07251   0.70421   0.00000  Uiso   1.00
H169   H     0.52192   0.10286   0.35213   0.00000  Uiso   1.00
H170   H     0.59082   0.17705   0.26329   0.00000  Uiso   1.00
H171   H     0.32366   0.08117   0.36487   0.00000  Uiso   1.00
H172   H     0.65388   0.04221   0.40884   0.00000  Uiso   1.00
H173   H     0.66298   0.27215   0.19539   0.00000  Uiso   1.00
H174   H     0.09967   0.06995   0.40959   0.00000  Uiso   1.00
H175   H     0.79599   0.98781   0.50230   0.00000  Uiso   1.00
O176   O     0.69387   0.36509   0.24216   0.00000  Uiso   1.00
O177   O     0.95485   0.09981   0.52317   0.00000  Uiso   1.00
O178   O     0.86840   0.99205   0.64482   0.00000  Uiso   1.00
N179   N     0.63242   0.32673   0.36198   0.00000  Uiso   1.00
N180   N     0.10576   0.13770   0.56222   0.00000  Uiso   1.00
N181   N     0.75673   0.06089   0.64892   0.00000  Uiso   1.00
N182   N     0.64728   0.28115   0.25333   0.00000  Uiso   1.00
N183   N     0.12062   0.09212   0.45358   0.00000  Uiso   1.00
N184   N     0.77160   0.01531   0.54027   0.00000  Uiso   1.00
C185   C     0.99705   0.32087   0.03392   0.00000  Uiso   1.00
C186   C     0.03801   0.29133   0.95999   0.00000  Uiso   1.00
C187   C     0.06415   0.24111   0.95834   0.00000  Uiso   1.00
C188   C     0.10016   0.22100   0.88475   0.00000  Uiso   1.00
C189   C     0.16226   0.17070   0.78049   0.00000  Uiso   1.00
C190   C     0.89285   0.34343   0.01517   0.00000  Uiso   1.00
C191   C     0.79694   0.33700   0.05992   0.00000  Uiso   1.00
C192   C     0.71077   0.36075   0.03279   0.00000  Uiso   1.00
C193   C     0.54752   0.39136   0.01424   0.00000  Uiso   1.00
C194   C     0.07227   0.36459   0.03906   0.00000  Uiso   1.00
C195   C     0.12720   0.37597   0.10391   0.00000  Uiso   1.00
C196   C     0.19207   0.41754   0.09689   0.00000  Uiso   1.00
C197   C     0.30740   0.48100   0.11543   0.00000  Uiso   1.00
C198   C     0.01453   0.37447   0.90616   0.00000  Uiso   1.00
C199   C     0.04750   0.32045   0.89059   0.00000  Uiso   1.00
C200   C     0.08349   0.30041   0.81698   0.00000  Uiso   1.00
C201   C     0.10968   0.25016   0.81523   0.00000  Uiso   1.00
C202   C     0.90234   0.37254   0.94578   0.00000  Uiso   1.00
C203   C     0.81629   0.39631   0.91857   0.00000  Uiso   1.00
C204   C     0.72028   0.38992   0.96327   0.00000  Uiso   1.00
C205   C     0.08177   0.39370   0.96966   0.00000  Uiso   1.00
C206   C     0.14655   0.43527   0.96255   0.00000  Uiso   1.00
C207   C     0.20158   0.44671   0.02737   0.00000  Uiso   1.00
H208   H     0.98965   0.29821   0.08795   0.00000  Uiso   1.00
H209   H     0.05678   0.21859   0.01205   0.00000  Uiso   1.00
H210   H     0.78962   0.31448   0.11363   0.00000  Uiso   1.00
H211   H     0.11984   0.35343   0.15760   0.00000  Uiso   1.00
H212   H     0.13535   0.14315   0.89730   0.00000  Uiso   1.00
H213   H     0.57205   0.34535   0.11149   0.00000  Uiso   1.00
H214   H     0.26836   0.42749   0.20421   0.00000  Uiso   1.00
H215   H     0.02192   0.39714   0.85213   0.00000  Uiso   1.00
H216   H     0.09082   0.32295   0.76329   0.00000  Uiso   1.00
H217   H     0.82366   0.41883   0.86487   0.00000  Uiso   1.00
H218   H     0.15388   0.45779   0.90884   0.00000  Uiso   1.00
H219   H     0.16298   0.22785   0.69539   0.00000  Uiso   1.00
H220   H     0.59967   0.43005   0.90959   0.00000  Uiso   1.00
H221   H     0.29599   0.51219   0.00230   0.00000  Uiso   1.00
O222   O     0.19387   0.13491   0.74216   0.00000  Uiso   1.00
O223   O     0.45485   0.40019   0.02317   0.00000  Uiso   1.00
O224   O     0.36840   0.50795   0.14482   0.00000  Uiso   1.00
N225   N     0.13242   0.17327   0.86198   0.00000  Uiso   1.00
N226   N     0.60576   0.36230   0.06222   0.00000  Uiso   1.00
N227   N     0.25673   0.43911   0.14892   0.00000  Uiso   1.00
N228   N     0.14728   0.21885   0.75333   0.00000  Uiso   1.00
N229   N     0.62062   0.40788   0.95358   0.00000  Uiso   1.00
N230   N     0.27160   0.48469   0.04027   0.00000  Uiso   1.00
C231   C     0.49705   0.82087   0.03392   0.00000  Uiso   1.00
C232   C     0.53801   0.79133   0.95999   0.00000  Uiso   1.00
C233   C     0.56415   0.74111   0.95834   0.00000  Uiso   1.00
C234   C     0.60016   0.72100   0.88475   0.00000  Uiso   1.00
C235   C     0.66226   0.67070   0.78049   0.00000  Uiso   1.00
C236   C     0.39285   0.84343   0.01517   0.00000  Uiso   1.00
C237   C     0.29694   0.83700   0.05992   0.00000  Uiso   1.00
C238   C     0.21077   0.86075   0.03279   0.00000  Uiso   1.00
C239   C     0.04752   0.89136   0.01424   0.00000  Uiso   1.00
C240   C     0.57227   0.86459   0.03906   0.00000  Uiso   1.00
C241   C     0.62720   0.87597   0.10391   0.00000  Uiso   1.00
C242   C     0.69207   0.91754   0.09689   0.00000  Uiso   1.00
C243   C     0.80740   0.98100   0.11543   0.00000  Uiso   1.00
C244   C     0.51453   0.87447   0.90616   0.00000  Uiso   1.00
C245   C     0.54750   0.82045   0.89059   0.00000  Uiso   1.00
C246   C     0.58349   0.80041   0.81698   0.00000  Uiso   1.00
C247   C     0.60968   0.75016   0.81523   0.00000  Uiso   1.00
C248   C     0.40234   0.87254   0.94578   0.00000  Uiso   1.00
C249   C     0.31629   0.89631   0.91857   0.00000  Uiso   1.00
C250   C     0.22028   0.88992   0.96327   0.00000  Uiso   1.00
C251   C     0.58177   0.89370   0.96966   0.00000  Uiso   1.00
C252   C     0.64655   0.93527   0.96255   0.00000  Uiso   1.00
C253   C     0.70158   0.94671   0.02737   0.00000  Uiso   1.00
H254   H     0.48965   0.79821   0.08795   0.00000  Uiso   1.00
H255   H     0.55678   0.71859   0.01205   0.00000  Uiso   1.00
H256   H     0.28962   0.81448   0.11363   0.00000  Uiso   1.00
H257   H     0.61984   0.85343   0.15760   0.00000  Uiso   1.00
H258   H     0.63535   0.64315   0.89730   0.00000  Uiso   1.00
H259   H     0.07205   0.84535   0.11149   0.00000  Uiso   1.00
H260   H     0.76836   0.92749   0.20421   0.00000  Uiso   1.00
H261   H     0.52192   0.89714   0.85213   0.00000  Uiso   1.00
H262   H     0.59082   0.82295   0.76329   0.00000  Uiso   1.00
H263   H     0.32366   0.91883   0.86487   0.00000  Uiso   1.00
H264   H     0.65388   0.95779   0.90884   0.00000  Uiso   1.00
H265   H     0.66298   0.72785   0.69539   0.00000  Uiso   1.00
H266   H     0.09967   0.93005   0.90959   0.00000  Uiso   1.00
H267   H     0.79599   0.01219   0.00230   0.00000  Uiso   1.00
O268   O     0.69387   0.63491   0.74216   0.00000  Uiso   1.00
O269   O     0.95485   0.90019   0.02317   0.00000  Uiso   1.00
O270   O     0.86840   0.00795   0.14482   0.00000  Uiso   1.00
N271   N     0.63242   0.67327   0.86198   0.00000  Uiso   1.00
N272   N     0.10576   0.86230   0.06222   0.00000  Uiso   1.00
N273   N     0.75673   0.93911   0.14892   0.00000  Uiso   1.00
N274   N     0.64728   0.71885   0.75333   0.00000  Uiso   1.00
N275   N     0.12062   0.90788   0.95358   0.00000  Uiso   1.00
N276   N     0.77160   0.98469   0.04027   0.00000  Uiso   1.00
C277   C     0.00295   0.32087   0.46608   0.00000  Uiso   1.00
C278   C     0.96199   0.29133   0.54001   0.00000  Uiso   1.00
C279   C     0.93585   0.24111   0.54166   0.00000  Uiso   1.00
C280   C     0.89984   0.22100   0.61525   0.00000  Uiso   1.00
C281   C     0.83774   0.17070   0.71951   0.00000  Uiso   1.00
C282   C     0.10715   0.34343   0.48483   0.00000  Uiso   1.00
C283   C     0.20306   0.33700   0.44008   0.00000  Uiso   1.00
C284   C     0.28923   0.36075   0.46721   0.00000  Uiso   1.00
C285   C     0.45248   0.39136   0.48576   0.00000  Uiso   1.00
C286   C     0.92773   0.36459   0.46094   0.00000  Uiso   1.00
C287   C     0.87280   0.37597   0.39609   0.00000  Uiso   1.00
C288   C     0.80793   0.41754   0.40311   0.00000  Uiso   1.00
C289   C     0.69260   0.48100   0.38457   0.00000  Uiso   1.00
C290   C     0.98547   0.37447   0.59384   0.00000  Uiso   1.00
C291   C     0.95250   0.32045   0.60941   0.00000  Uiso   1.00
C292   C     0.91651   0.30041   0.68302   0.00000  Uiso   1.00
C293   C     0.89032   0.25016   0.68477   0.00000  Uiso   1.00
C294   C     0.09766   0.37254   0.55422   0.00000  Uiso   1.00
C295   C     0.18371   0.39631   0.58143   0.00000  Uiso   1.00
C296   C     0.27972   0.38992   0.53673   0.00000  Uiso   1.00
C297   C     0.91823   0.39370   0.53034   0.00000  Uiso   1.00
C298   C     0.85345   0.43527   0.53745   0.00000  Uiso   1.00
C299   C     0.79842   0.44671   0.47263   0.00000  Uiso   1.00
H300   H     0.01035   0.29821   0.41205   0.00000  Uiso   1.00
H301   H     0.94322   0.21859   0.48795   0.00000  Uiso   1.00
H302   H     0.21038   0.31448   0.38637   0.00000  Uiso   1.00
H303   H     0.88016   0.35343   0.34240   0.00000  Uiso   1.00
H304   H     0.86465   0.14315   0.60270   0.00000  Uiso   1.00
H305   H     0.42795   0.34535   0.38851   0.00000  Uiso   1.00
H306   H     0.73164   0.42749   0.29579   0.00000  Uiso   1.00
H307   H     0.97808   0.39714   0.64787   0.00000  Uiso   1.00
H308   H     0.90918   0.32295   0.73671   0.00000  Uiso   1.00
H309   H     0.17634   0.41883   0.63513   0.00000  Uiso   1.00
H310   H     0.84612   0.45779   0.59116   0.00000  Uiso   1.00
H311   H     0.83702   0.22785   0.80461   0.00000  Uiso   1.00
H312   H     0.40033   0.43005   0.59041   0.00000  Uiso   1.00
H313   H     0.70401   0.51219   0.49770   0.00000  Uiso   1.00
O314   O     0.80613   0.13491   0.75784   0.00000  Uiso   1.00
O315   O     0.54515   0.40019   0.47683   0.00000  Uiso   1.00
O316   O     0.63160   0.50795   0.35518   0.00000  Uiso   1.00
N317   N     0.86758   0.17327   0.63802   0.00000  Uiso   1.00
N318   N     0.39424   0.36230   0.43778   0.00000  Uiso   1.00
N319   N     0.74327   0.43911   0.35108   0.00000  Uiso   1.00
N320   N     0.85272   0.21885   0.74667   0.00000  Uiso   1.00
N321   N     0.37938   0.40788   0.54642   0.00000  Uiso   1.00
N322   N     0.72840   0.48469   0.45973   0.00000  Uiso   1.00
C323   C     0.50295   0.82087   0.46608   0.00000  Uiso   1.00
C324   C     0.46199   0.79133   0.54001   0.00000  Uiso   1.00
C325   C     0.43585   0.74111   0.54166   0.00000  Uiso   1.00
C326   C     0.39984   0.72100   0.61525   0.00000  Uiso   1.00
C327   C     0.33774   0.67070   0.71951   0.00000  Uiso   1.00
C328   C     0.60715   0.84343   0.48483   0.00000  Uiso   1.00
C329   C     0.70306   0.83700   0.44008   0.00000  Uiso   1.00
C330   C     0.78923   0.86075   0.46721   0.00000  Uiso   1.00
C331   C     0.95248   0.89136   0.48576   0.00000  Uiso   1.00
C332   C     0.42773   0.86459   0.46094   0.00000  Uiso   1.00
C333   C     0.37280   0.87597   0.39609   0.00000  Uiso   1.00
C334   C     0.30793   0.91754   0.40311   0.00000  Uiso   1.00
C335   C     0.19260   0.98100   0.38457   0.00000  Uiso   1.00
C336   C     0.48547   0.87447   0.59384   0.00000  Uiso   1.00
C337   C     0.45250   0.82045   0.60941   0.00000  Uiso   1.00
C338   C     0.41651   0.80041   0.68302   0.00000  Uiso   1.00
C339   C     0.39032   0.75016   0.68477   0.00000  Uiso   1.00
C340   C     0.59766   0.87254   0.55422   0.00000  Uiso   1.00
C341   C     0.68371   0.89631   0.58143   0.00000  Uiso   1.00
C342   C     0.77972   0.88992   0.53673   0.00000  Uiso   1.00
C343   C     0.41823   0.89370   0.53034   0.00000  Uiso   1.00
C344   C     0.35345   0.93527   0.53745   0.00000  Uiso   1.00
C345   C     0.29842   0.94671   0.47263   0.00000  Uiso   1.00
H346   H     0.51035   0.79821   0.41205   0.00000  Uiso   1.00
H347   H     0.44322   0.71859   0.48795   0.00000  Uiso   1.00
H348   H     0.71038   0.81448   0.38637   0.00000  Uiso   1.00
H349   H     0.38016   0.85343   0.34240   0.00000  Uiso   1.00
H350   H     0.36465   0.64315   0.60270   0.00000  Uiso   1.00
H351   H     0.92795   0.84535   0.38851   0.00000  Uiso   1.00
H352   H     0.23164   0.92749   0.29579   0.00000  Uiso   1.00
H353   H     0.47808   0.89714   0.64787   0.00000  Uiso   1.00
H354   H     0.40918   0.82295   0.73671   0.00000  Uiso   1.00
H355   H     0.67634   0.91883   0.63513   0.00000  Uiso   1.00
H356   H     0.34612   0.95779   0.59116   0.00000  Uiso   1.00
H357   H     0.33702   0.72785   0.80461   0.00000  Uiso   1.00
H358   H     0.90033   0.93005   0.59041   0.00000  Uiso   1.00
H359   H     0.20401   0.01219   0.49770   0.00000  Uiso   1.00
O360   O     0.30613   0.63491   0.75784   0.00000  Uiso   1.00
O361   O     0.04515   0.90019   0.47683   0.00000  Uiso   1.00
O362   O     0.13160   0.00795   0.35518   0.00000  Uiso   1.00
N363   N     0.36758   0.67327   0.63802   0.00000  Uiso   1.00
N364   N     0.89424   0.86230   0.43778   0.00000  Uiso   1.00
N365   N     0.24327   0.93911   0.35108   0.00000  Uiso   1.00
N366   N     0.35272   0.71885   0.74667   0.00000  Uiso   1.00
N367   N     0.87938   0.90788   0.54642   0.00000  Uiso   1.00
N368   N     0.22840   0.98469   0.45973   0.00000  Uiso   1.00
