data_job_04113
_audit_creation_date              2018-12-19
_audit_creation_method            'Materials Studio'
_symmetry_space_group_name_H-M    'P1'
_symmetry_Int_Tables_number       1
_symmetry_cell_setting            triclinic
loop_
_symmetry_equiv_pos_as_xyz
  x,y,z
_cell_length_a                    23.0847
_cell_length_b                    29.8818
_cell_length_c                    15.1309
_cell_angle_alpha                 90.0000
_cell_angle_beta                  90.0000
_cell_angle_gamma                 90.0000
loop_
_atom_site_label
_atom_site_type_symbol
_atom_site_fract_x
_atom_site_fract_y
_atom_site_fract_z
_atom_site_U_iso_or_equiv
_atom_site_adp_type
_atom_site_occupancy
C1     C     0.21157   0.89459   0.69453   0.00000  Uiso   1.00
C2     C     0.19840   0.84459   0.69535   0.00000  Uiso   1.00
C3     C     0.18714   0.81837   0.62162   0.00000  Uiso   1.00
C4     C     0.17608   0.77330   0.63626   0.00000  Uiso   1.00
C5     C     0.15557   0.69842   0.62455   0.00000  Uiso   1.00
C6     C     0.16678   0.91627   0.75499   0.00000  Uiso   1.00
C7     C     0.12894   0.95033   0.73140   0.00000  Uiso   1.00
C8     C     0.09126   0.96561   0.79625   0.00000  Uiso   1.00
C9     C     0.02168   0.00204   0.87715   0.00000  Uiso   1.00
C10    C     0.26979   0.90003   0.74093   0.00000  Uiso   1.00
C11    C     0.31855   0.92044   0.70554   0.00000  Uiso   1.00
C12    C     0.36760   0.92206   0.75856   0.00000  Uiso   1.00
C13    C     0.45796   0.93327   0.81763   0.00000  Uiso   1.00
C14    C     0.21195   0.86118   0.85164   0.00000  Uiso   1.00
C15    C     0.19861   0.82644   0.78069   0.00000  Uiso   1.00
C16    C     0.18757   0.78140   0.79544   0.00000  Uiso   1.00
C17    C     0.17629   0.75512   0.72175   0.00000  Uiso   1.00
C18    C     0.16699   0.89812   0.84032   0.00000  Uiso   1.00
C19    C     0.12936   0.91336   0.90522   0.00000  Uiso   1.00
C20    C     0.09147   0.94743   0.88174   0.00000  Uiso   1.00
C21    C     0.27000   0.88188   0.82626   0.00000  Uiso   1.00
C22    C     0.31897   0.88347   0.87935   0.00000  Uiso   1.00
C23    C     0.36780   0.90388   0.84405   0.00000  Uiso   1.00
H24    H     0.21141   0.90872   0.62810   0.00000  Uiso   1.00
H25    H     0.18698   0.83243   0.55559   0.00000  Uiso   1.00
H26    H     0.12879   0.96436   0.66536   0.00000  Uiso   1.00
H27    H     0.31837   0.93448   0.63950   0.00000  Uiso   1.00
H28    H     0.15997   0.73984   0.51284   0.00000  Uiso   1.00
H29    H     0.03728   0.01805   0.74430   0.00000  Uiso   1.00
H30    H     0.43706   0.95503   0.68976   0.00000  Uiso   1.00
H31    H     0.21212   0.84706   0.91808   0.00000  Uiso   1.00
H32    H     0.18773   0.76737   0.86148   0.00000  Uiso   1.00
H33    H     0.12953   0.89931   0.97125   0.00000  Uiso   1.00
H34    H     0.31912   0.86943   0.94539   0.00000  Uiso   1.00
H35    H     0.16057   0.68704   0.76111   0.00000  Uiso   1.00
H36    H     0.03789   0.96525   0.99258   0.00000  Uiso   1.00
H37    H     0.43767   0.90223   0.93804   0.00000  Uiso   1.00
O38    O     0.14420   0.66213   0.59452   0.00000  Uiso   1.00
O39    O     0.98325   0.02714   0.89819   0.00000  Uiso   1.00
O40    O     0.50774   0.94447   0.82663   0.00000  Uiso   1.00
N41    N     0.16347   0.73834   0.57904   0.00000  Uiso   1.00
N42    N     0.04876   0.99845   0.79544   0.00000  Uiso   1.00
N43    N     0.42251   0.93955   0.74445   0.00000  Uiso   1.00
N44    N     0.16380   0.70993   0.71263   0.00000  Uiso   1.00
N45    N     0.04908   0.97004   0.92903   0.00000  Uiso   1.00
N46    N     0.42284   0.91114   0.87805   0.00000  Uiso   1.00
C47    C     0.28843   0.60541   0.69453   0.00000  Uiso   1.00
C48    C     0.30160   0.65541   0.69535   0.00000  Uiso   1.00
C49    C     0.31286   0.68163   0.62162   0.00000  Uiso   1.00
C50    C     0.32392   0.72670   0.63626   0.00000  Uiso   1.00
C51    C     0.34443   0.80158   0.62455   0.00000  Uiso   1.00
C52    C     0.33322   0.58373   0.75499   0.00000  Uiso   1.00
C53    C     0.37106   0.54967   0.73140   0.00000  Uiso   1.00
C54    C     0.40874   0.53439   0.79625   0.00000  Uiso   1.00
C55    C     0.47832   0.49796   0.87715   0.00000  Uiso   1.00
C56    C     0.23021   0.59997   0.74093   0.00000  Uiso   1.00
C57    C     0.18145   0.57956   0.70554   0.00000  Uiso   1.00
C58    C     0.13240   0.57794   0.75856   0.00000  Uiso   1.00
C59    C     0.04204   0.56673   0.81763   0.00000  Uiso   1.00
C60    C     0.28805   0.63882   0.85164   0.00000  Uiso   1.00
C61    C     0.30139   0.67356   0.78069   0.00000  Uiso   1.00
C62    C     0.31243   0.71860   0.79544   0.00000  Uiso   1.00
C63    C     0.32371   0.74488   0.72175   0.00000  Uiso   1.00
C64    C     0.33301   0.60188   0.84032   0.00000  Uiso   1.00
C65    C     0.37064   0.58664   0.90522   0.00000  Uiso   1.00
C66    C     0.40853   0.55257   0.88174   0.00000  Uiso   1.00
C67    C     0.23000   0.61812   0.82626   0.00000  Uiso   1.00
C68    C     0.18103   0.61653   0.87935   0.00000  Uiso   1.00
C69    C     0.13220   0.59612   0.84405   0.00000  Uiso   1.00
H70    H     0.28859   0.59128   0.62810   0.00000  Uiso   1.00
H71    H     0.31302   0.66757   0.55559   0.00000  Uiso   1.00
H72    H     0.37121   0.53564   0.66536   0.00000  Uiso   1.00
H73    H     0.18163   0.56552   0.63950   0.00000  Uiso   1.00
H74    H     0.34003   0.76016   0.51284   0.00000  Uiso   1.00
H75    H     0.46272   0.48195   0.74430   0.00000  Uiso   1.00
H76    H     0.06294   0.54497   0.68976   0.00000  Uiso   1.00
H77    H     0.28788   0.65294   0.91808   0.00000  Uiso   1.00
H78    H     0.31227   0.73263   0.86148   0.00000  Uiso   1.00
H79    H     0.37047   0.60069   0.97125   0.00000  Uiso   1.00
H80    H     0.18088   0.63057   0.94539   0.00000  Uiso   1.00
H81    H     0.33943   0.81296   0.76111   0.00000  Uiso   1.00
H82    H     0.46211   0.53475   0.99258   0.00000  Uiso   1.00
H83    H     0.06233   0.59777   0.93804   0.00000  Uiso   1.00
O84    O     0.35580   0.83787   0.59452   0.00000  Uiso   1.00
O85    O     0.51675   0.47286   0.89819   0.00000  Uiso   1.00
O86    O     0.99226   0.55553   0.82663   0.00000  Uiso   1.00
N87    N     0.33653   0.76166   0.57904   0.00000  Uiso   1.00
N88    N     0.45124   0.50155   0.79544   0.00000  Uiso   1.00
N89    N     0.07749   0.56045   0.74445   0.00000  Uiso   1.00
N90    N     0.33620   0.79007   0.71263   0.00000  Uiso   1.00
N91    N     0.45092   0.52996   0.92903   0.00000  Uiso   1.00
N92    N     0.07716   0.58886   0.87805   0.00000  Uiso   1.00
C93    C     0.78843   0.39459   0.80547   0.00000  Uiso   1.00
C94    C     0.80160   0.34459   0.80465   0.00000  Uiso   1.00
C95    C     0.81286   0.31837   0.87838   0.00000  Uiso   1.00
C96    C     0.82392   0.27330   0.86374   0.00000  Uiso   1.00
C97    C     0.84443   0.19842   0.87545   0.00000  Uiso   1.00
C98    C     0.83322   0.41627   0.74501   0.00000  Uiso   1.00
C99    C     0.87106   0.45033   0.76860   0.00000  Uiso   1.00
C100   C     0.90874   0.46561   0.70375   0.00000  Uiso   1.00
C101   C     0.97832   0.50204   0.62285   0.00000  Uiso   1.00
C102   C     0.73021   0.40003   0.75907   0.00000  Uiso   1.00
C103   C     0.68145   0.42044   0.79446   0.00000  Uiso   1.00
C104   C     0.63240   0.42206   0.74144   0.00000  Uiso   1.00
C105   C     0.54204   0.43327   0.68237   0.00000  Uiso   1.00
C106   C     0.78805   0.36118   0.64836   0.00000  Uiso   1.00
C107   C     0.80139   0.32644   0.71931   0.00000  Uiso   1.00
C108   C     0.81243   0.28140   0.70456   0.00000  Uiso   1.00
C109   C     0.82371   0.25512   0.77825   0.00000  Uiso   1.00
C110   C     0.83301   0.39812   0.65968   0.00000  Uiso   1.00
C111   C     0.87064   0.41336   0.59478   0.00000  Uiso   1.00
C112   C     0.90853   0.44743   0.61826   0.00000  Uiso   1.00
C113   C     0.73000   0.38188   0.67374   0.00000  Uiso   1.00
C114   C     0.68103   0.38347   0.62065   0.00000  Uiso   1.00
C115   C     0.63220   0.40388   0.65595   0.00000  Uiso   1.00
H116   H     0.78859   0.40872   0.87190   0.00000  Uiso   1.00
H117   H     0.81302   0.33243   0.94441   0.00000  Uiso   1.00
H118   H     0.87121   0.46436   0.83464   0.00000  Uiso   1.00
H119   H     0.68163   0.43448   0.86050   0.00000  Uiso   1.00
H120   H     0.84003   0.23984   0.98716   0.00000  Uiso   1.00
H121   H     0.96272   0.51805   0.75570   0.00000  Uiso   1.00
H122   H     0.56294   0.45503   0.81024   0.00000  Uiso   1.00
H123   H     0.78788   0.34706   0.58192   0.00000  Uiso   1.00
H124   H     0.81227   0.26737   0.63852   0.00000  Uiso   1.00
H125   H     0.87047   0.39931   0.52875   0.00000  Uiso   1.00
H126   H     0.68088   0.36943   0.55461   0.00000  Uiso   1.00
H127   H     0.83943   0.18704   0.73889   0.00000  Uiso   1.00
H128   H     0.96211   0.46525   0.50742   0.00000  Uiso   1.00
H129   H     0.56233   0.40223   0.56196   0.00000  Uiso   1.00
O130   O     0.85580   0.16213   0.90548   0.00000  Uiso   1.00
O131   O     0.01675   0.52714   0.60181   0.00000  Uiso   1.00
O132   O     0.49226   0.44447   0.67337   0.00000  Uiso   1.00
N133   N     0.83653   0.23834   0.92096   0.00000  Uiso   1.00
N134   N     0.95124   0.49845   0.70456   0.00000  Uiso   1.00
N135   N     0.57749   0.43955   0.75555   0.00000  Uiso   1.00
N136   N     0.83620   0.20993   0.78737   0.00000  Uiso   1.00
N137   N     0.95092   0.47004   0.57097   0.00000  Uiso   1.00
N138   N     0.57716   0.41114   0.62195   0.00000  Uiso   1.00
C139   C     0.71157   0.10541   0.80547   0.00000  Uiso   1.00
C140   C     0.69840   0.15541   0.80465   0.00000  Uiso   1.00
C141   C     0.68714   0.18163   0.87838   0.00000  Uiso   1.00
C142   C     0.67608   0.22670   0.86374   0.00000  Uiso   1.00
C143   C     0.65557   0.30158   0.87545   0.00000  Uiso   1.00
C144   C     0.66678   0.08373   0.74501   0.00000  Uiso   1.00
C145   C     0.62894   0.04967   0.76860   0.00000  Uiso   1.00
C146   C     0.59126   0.03439   0.70375   0.00000  Uiso   1.00
C147   C     0.52168   0.99796   0.62285   0.00000  Uiso   1.00
C148   C     0.76979   0.09997   0.75907   0.00000  Uiso   1.00
C149   C     0.81855   0.07956   0.79446   0.00000  Uiso   1.00
C150   C     0.86760   0.07794   0.74144   0.00000  Uiso   1.00
C151   C     0.95796   0.06673   0.68237   0.00000  Uiso   1.00
C152   C     0.71195   0.13882   0.64836   0.00000  Uiso   1.00
C153   C     0.69861   0.17356   0.71931   0.00000  Uiso   1.00
C154   C     0.68757   0.21860   0.70456   0.00000  Uiso   1.00
C155   C     0.67629   0.24488   0.77825   0.00000  Uiso   1.00
C156   C     0.66699   0.10188   0.65968   0.00000  Uiso   1.00
C157   C     0.62936   0.08664   0.59478   0.00000  Uiso   1.00
C158   C     0.59147   0.05257   0.61826   0.00000  Uiso   1.00
C159   C     0.77000   0.11812   0.67374   0.00000  Uiso   1.00
C160   C     0.81897   0.11653   0.62065   0.00000  Uiso   1.00
C161   C     0.86780   0.09612   0.65595   0.00000  Uiso   1.00
H162   H     0.71141   0.09128   0.87190   0.00000  Uiso   1.00
H163   H     0.68698   0.16757   0.94441   0.00000  Uiso   1.00
H164   H     0.62879   0.03564   0.83464   0.00000  Uiso   1.00
H165   H     0.81837   0.06552   0.86050   0.00000  Uiso   1.00
H166   H     0.65997   0.26016   0.98716   0.00000  Uiso   1.00
H167   H     0.53728   0.98195   0.75570   0.00000  Uiso   1.00
H168   H     0.93706   0.04497   0.81024   0.00000  Uiso   1.00
H169   H     0.71212   0.15294   0.58192   0.00000  Uiso   1.00
H170   H     0.68773   0.23263   0.63852   0.00000  Uiso   1.00
H171   H     0.62953   0.10069   0.52875   0.00000  Uiso   1.00
H172   H     0.81912   0.13057   0.55461   0.00000  Uiso   1.00
H173   H     0.66057   0.31296   0.73889   0.00000  Uiso   1.00
H174   H     0.53789   0.03475   0.50742   0.00000  Uiso   1.00
H175   H     0.93767   0.09777   0.56196   0.00000  Uiso   1.00
O176   O     0.64420   0.33787   0.90548   0.00000  Uiso   1.00
O177   O     0.48325   0.97286   0.60181   0.00000  Uiso   1.00
O178   O     0.00774   0.05553   0.67337   0.00000  Uiso   1.00
N179   N     0.66347   0.26166   0.92096   0.00000  Uiso   1.00
N180   N     0.54876   0.00155   0.70456   0.00000  Uiso   1.00
N181   N     0.92251   0.06045   0.75555   0.00000  Uiso   1.00
N182   N     0.66380   0.29007   0.78737   0.00000  Uiso   1.00
N183   N     0.54908   0.02996   0.57097   0.00000  Uiso   1.00
N184   N     0.92284   0.08886   0.62195   0.00000  Uiso   1.00
C185   C     0.78843   0.10541   0.30547   0.00000  Uiso   1.00
C186   C     0.80160   0.15541   0.30465   0.00000  Uiso   1.00
C187   C     0.81286   0.18163   0.37838   0.00000  Uiso   1.00
C188   C     0.82392   0.22670   0.36374   0.00000  Uiso   1.00
C189   C     0.84443   0.30158   0.37545   0.00000  Uiso   1.00
C190   C     0.83322   0.08373   0.24501   0.00000  Uiso   1.00
C191   C     0.87106   0.04967   0.26860   0.00000  Uiso   1.00
C192   C     0.90874   0.03439   0.20375   0.00000  Uiso   1.00
C193   C     0.97832   0.99796   0.12285   0.00000  Uiso   1.00
C194   C     0.73021   0.09997   0.25907   0.00000  Uiso   1.00
C195   C     0.68145   0.07956   0.29446   0.00000  Uiso   1.00
C196   C     0.63240   0.07794   0.24144   0.00000  Uiso   1.00
C197   C     0.54204   0.06673   0.18237   0.00000  Uiso   1.00
C198   C     0.78805   0.13882   0.14836   0.00000  Uiso   1.00
C199   C     0.80139   0.17356   0.21931   0.00000  Uiso   1.00
C200   C     0.81243   0.21860   0.20456   0.00000  Uiso   1.00
C201   C     0.82371   0.24488   0.27825   0.00000  Uiso   1.00
C202   C     0.83301   0.10188   0.15968   0.00000  Uiso   1.00
C203   C     0.87064   0.08664   0.09478   0.00000  Uiso   1.00
C204   C     0.90853   0.05257   0.11826   0.00000  Uiso   1.00
C205   C     0.73000   0.11812   0.17374   0.00000  Uiso   1.00
C206   C     0.68103   0.11653   0.12065   0.00000  Uiso   1.00
C207   C     0.63220   0.09612   0.15595   0.00000  Uiso   1.00
H208   H     0.78859   0.09128   0.37190   0.00000  Uiso   1.00
H209   H     0.81302   0.16757   0.44441   0.00000  Uiso   1.00
H210   H     0.87121   0.03564   0.33464   0.00000  Uiso   1.00
H211   H     0.68163   0.06552   0.36050   0.00000  Uiso   1.00
H212   H     0.84003   0.26016   0.48716   0.00000  Uiso   1.00
H213   H     0.96272   0.98195   0.25570   0.00000  Uiso   1.00
H214   H     0.56294   0.04497   0.31024   0.00000  Uiso   1.00
H215   H     0.78788   0.15294   0.08192   0.00000  Uiso   1.00
H216   H     0.81227   0.23263   0.13852   0.00000  Uiso   1.00
H217   H     0.87047   0.10069   0.02875   0.00000  Uiso   1.00
H218   H     0.68088   0.13057   0.05461   0.00000  Uiso   1.00
H219   H     0.83943   0.31296   0.23889   0.00000  Uiso   1.00
H220   H     0.96211   0.03475   0.00742   0.00000  Uiso   1.00
H221   H     0.56233   0.09777   0.06196   0.00000  Uiso   1.00
O222   O     0.85580   0.33787   0.40548   0.00000  Uiso   1.00
O223   O     0.01675   0.97286   0.10181   0.00000  Uiso   1.00
O224   O     0.49226   0.05553   0.17337   0.00000  Uiso   1.00
N225   N     0.83653   0.26166   0.42096   0.00000  Uiso   1.00
N226   N     0.95124   0.00155   0.20456   0.00000  Uiso   1.00
N227   N     0.57749   0.06045   0.25555   0.00000  Uiso   1.00
N228   N     0.83620   0.29007   0.28737   0.00000  Uiso   1.00
N229   N     0.95092   0.02996   0.07097   0.00000  Uiso   1.00
N230   N     0.57716   0.08886   0.12195   0.00000  Uiso   1.00
C231   C     0.71157   0.39459   0.30547   0.00000  Uiso   1.00
C232   C     0.69840   0.34459   0.30465   0.00000  Uiso   1.00
C233   C     0.68714   0.31837   0.37838   0.00000  Uiso   1.00
C234   C     0.67608   0.27330   0.36374   0.00000  Uiso   1.00
C235   C     0.65557   0.19842   0.37545   0.00000  Uiso   1.00
C236   C     0.66678   0.41627   0.24501   0.00000  Uiso   1.00
C237   C     0.62894   0.45033   0.26860   0.00000  Uiso   1.00
C238   C     0.59126   0.46561   0.20375   0.00000  Uiso   1.00
C239   C     0.52168   0.50204   0.12285   0.00000  Uiso   1.00
C240   C     0.76979   0.40003   0.25907   0.00000  Uiso   1.00
C241   C     0.81855   0.42044   0.29446   0.00000  Uiso   1.00
C242   C     0.86760   0.42206   0.24144   0.00000  Uiso   1.00
C243   C     0.95796   0.43327   0.18237   0.00000  Uiso   1.00
C244   C     0.71195   0.36118   0.14836   0.00000  Uiso   1.00
C245   C     0.69861   0.32644   0.21931   0.00000  Uiso   1.00
C246   C     0.68757   0.28140   0.20456   0.00000  Uiso   1.00
C247   C     0.67629   0.25512   0.27825   0.00000  Uiso   1.00
C248   C     0.66699   0.39812   0.15968   0.00000  Uiso   1.00
C249   C     0.62936   0.41336   0.09478   0.00000  Uiso   1.00
C250   C     0.59147   0.44743   0.11826   0.00000  Uiso   1.00
C251   C     0.77000   0.38188   0.17374   0.00000  Uiso   1.00
C252   C     0.81897   0.38347   0.12065   0.00000  Uiso   1.00
C253   C     0.86780   0.40388   0.15595   0.00000  Uiso   1.00
H254   H     0.71141   0.40872   0.37190   0.00000  Uiso   1.00
H255   H     0.68698   0.33243   0.44441   0.00000  Uiso   1.00
H256   H     0.62879   0.46436   0.33464   0.00000  Uiso   1.00
H257   H     0.81837   0.43448   0.36050   0.00000  Uiso   1.00
H258   H     0.65997   0.23984   0.48716   0.00000  Uiso   1.00
H259   H     0.53728   0.51805   0.25570   0.00000  Uiso   1.00
H260   H     0.93706   0.45503   0.31024   0.00000  Uiso   1.00
H261   H     0.71212   0.34706   0.08192   0.00000  Uiso   1.00
H262   H     0.68773   0.26737   0.13852   0.00000  Uiso   1.00
H263   H     0.62953   0.39931   0.02875   0.00000  Uiso   1.00
H264   H     0.81912   0.36943   0.05461   0.00000  Uiso   1.00
H265   H     0.66057   0.18704   0.23889   0.00000  Uiso   1.00
H266   H     0.53789   0.46525   0.00742   0.00000  Uiso   1.00
H267   H     0.93767   0.40223   0.06196   0.00000  Uiso   1.00
O268   O     0.64420   0.16213   0.40548   0.00000  Uiso   1.00
O269   O     0.48325   0.52714   0.10181   0.00000  Uiso   1.00
O270   O     0.00774   0.44447   0.17337   0.00000  Uiso   1.00
N271   N     0.66347   0.23834   0.42096   0.00000  Uiso   1.00
N272   N     0.54876   0.49845   0.20456   0.00000  Uiso   1.00
N273   N     0.92251   0.43955   0.25555   0.00000  Uiso   1.00
N274   N     0.66380   0.20993   0.28737   0.00000  Uiso   1.00
N275   N     0.54908   0.47004   0.07097   0.00000  Uiso   1.00
N276   N     0.92284   0.41114   0.12195   0.00000  Uiso   1.00
C277   C     0.21157   0.60541   0.19453   0.00000  Uiso   1.00
C278   C     0.19840   0.65541   0.19535   0.00000  Uiso   1.00
C279   C     0.18714   0.68163   0.12162   0.00000  Uiso   1.00
C280   C     0.17608   0.72670   0.13626   0.00000  Uiso   1.00
C281   C     0.15557   0.80158   0.12455   0.00000  Uiso   1.00
C282   C     0.16678   0.58373   0.25499   0.00000  Uiso   1.00
C283   C     0.12894   0.54967   0.23140   0.00000  Uiso   1.00
C284   C     0.09126   0.53439   0.29625   0.00000  Uiso   1.00
C285   C     0.02168   0.49796   0.37715   0.00000  Uiso   1.00
C286   C     0.26979   0.59997   0.24093   0.00000  Uiso   1.00
C287   C     0.31855   0.57956   0.20554   0.00000  Uiso   1.00
C288   C     0.36760   0.57794   0.25856   0.00000  Uiso   1.00
C289   C     0.45796   0.56673   0.31763   0.00000  Uiso   1.00
C290   C     0.21195   0.63882   0.35164   0.00000  Uiso   1.00
C291   C     0.19861   0.67356   0.28069   0.00000  Uiso   1.00
C292   C     0.18757   0.71860   0.29544   0.00000  Uiso   1.00
C293   C     0.17629   0.74488   0.22175   0.00000  Uiso   1.00
C294   C     0.16699   0.60188   0.34032   0.00000  Uiso   1.00
C295   C     0.12936   0.58664   0.40522   0.00000  Uiso   1.00
C296   C     0.09147   0.55257   0.38174   0.00000  Uiso   1.00
C297   C     0.27000   0.61812   0.32626   0.00000  Uiso   1.00
C298   C     0.31897   0.61653   0.37935   0.00000  Uiso   1.00
C299   C     0.36780   0.59612   0.34405   0.00000  Uiso   1.00
H300   H     0.21141   0.59128   0.12810   0.00000  Uiso   1.00
H301   H     0.18698   0.66757   0.05559   0.00000  Uiso   1.00
H302   H     0.12879   0.53564   0.16536   0.00000  Uiso   1.00
H303   H     0.31837   0.56552   0.13950   0.00000  Uiso   1.00
H304   H     0.15997   0.76016   0.01284   0.00000  Uiso   1.00
H305   H     0.03728   0.48195   0.24430   0.00000  Uiso   1.00
H306   H     0.43706   0.54497   0.18976   0.00000  Uiso   1.00
H307   H     0.21212   0.65294   0.41808   0.00000  Uiso   1.00
H308   H     0.18773   0.73263   0.36148   0.00000  Uiso   1.00
H309   H     0.12953   0.60069   0.47125   0.00000  Uiso   1.00
H310   H     0.31912   0.63057   0.44539   0.00000  Uiso   1.00
H311   H     0.16057   0.81296   0.26111   0.00000  Uiso   1.00
H312   H     0.03789   0.53475   0.49258   0.00000  Uiso   1.00
H313   H     0.43767   0.59777   0.43804   0.00000  Uiso   1.00
O314   O     0.14420   0.83787   0.09452   0.00000  Uiso   1.00
O315   O     0.98325   0.47286   0.39819   0.00000  Uiso   1.00
O316   O     0.50774   0.55553   0.32663   0.00000  Uiso   1.00
N317   N     0.16347   0.76166   0.07904   0.00000  Uiso   1.00
N318   N     0.04876   0.50155   0.29544   0.00000  Uiso   1.00
N319   N     0.42251   0.56045   0.24445   0.00000  Uiso   1.00
N320   N     0.16380   0.79007   0.21263   0.00000  Uiso   1.00
N321   N     0.04908   0.52996   0.42903   0.00000  Uiso   1.00
N322   N     0.42284   0.58886   0.37805   0.00000  Uiso   1.00
C323   C     0.28843   0.89459   0.19453   0.00000  Uiso   1.00
C324   C     0.30160   0.84459   0.19535   0.00000  Uiso   1.00
C325   C     0.31286   0.81837   0.12162   0.00000  Uiso   1.00
C326   C     0.32392   0.77330   0.13626   0.00000  Uiso   1.00
C327   C     0.34443   0.69842   0.12455   0.00000  Uiso   1.00
C328   C     0.33322   0.91627   0.25499   0.00000  Uiso   1.00
C329   C     0.37106   0.95033   0.23140   0.00000  Uiso   1.00
C330   C     0.40874   0.96561   0.29625   0.00000  Uiso   1.00
C331   C     0.47832   0.00204   0.37715   0.00000  Uiso   1.00
C332   C     0.23021   0.90003   0.24093   0.00000  Uiso   1.00
C333   C     0.18145   0.92044   0.20554   0.00000  Uiso   1.00
C334   C     0.13240   0.92206   0.25856   0.00000  Uiso   1.00
C335   C     0.04204   0.93327   0.31763   0.00000  Uiso   1.00
C336   C     0.28805   0.86118   0.35164   0.00000  Uiso   1.00
C337   C     0.30139   0.82644   0.28069   0.00000  Uiso   1.00
C338   C     0.31243   0.78140   0.29544   0.00000  Uiso   1.00
C339   C     0.32371   0.75512   0.22175   0.00000  Uiso   1.00
C340   C     0.33301   0.89812   0.34032   0.00000  Uiso   1.00
C341   C     0.37064   0.91336   0.40522   0.00000  Uiso   1.00
C342   C     0.40853   0.94743   0.38174   0.00000  Uiso   1.00
C343   C     0.23000   0.88188   0.32626   0.00000  Uiso   1.00
C344   C     0.18103   0.88347   0.37935   0.00000  Uiso   1.00
C345   C     0.13220   0.90388   0.34405   0.00000  Uiso   1.00
H346   H     0.28859   0.90872   0.12810   0.00000  Uiso   1.00
H347   H     0.31302   0.83243   0.05559   0.00000  Uiso   1.00
H348   H     0.37121   0.96436   0.16536   0.00000  Uiso   1.00
H349   H     0.18163   0.93448   0.13950   0.00000  Uiso   1.00
H350   H     0.34003   0.73984   0.01284   0.00000  Uiso   1.00
H351   H     0.46272   0.01805   0.24430   0.00000  Uiso   1.00
H352   H     0.06294   0.95503   0.18976   0.00000  Uiso   1.00
H353   H     0.28788   0.84706   0.41808   0.00000  Uiso   1.00
H354   H     0.31227   0.76737   0.36148   0.00000  Uiso   1.00
H355   H     0.37047   0.89931   0.47125   0.00000  Uiso   1.00
H356   H     0.18088   0.86943   0.44539   0.00000  Uiso   1.00
H357   H     0.33943   0.68704   0.26111   0.00000  Uiso   1.00
H358   H     0.46211   0.96525   0.49258   0.00000  Uiso   1.00
H359   H     0.06233   0.90223   0.43804   0.00000  Uiso   1.00
O360   O     0.35580   0.66213   0.09452   0.00000  Uiso   1.00
O361   O     0.51675   0.02714   0.39819   0.00000  Uiso   1.00
O362   O     0.99226   0.94447   0.32663   0.00000  Uiso   1.00
N363   N     0.33653   0.73834   0.07904   0.00000  Uiso   1.00
N364   N     0.45124   0.99845   0.29544   0.00000  Uiso   1.00
N365   N     0.07749   0.93955   0.24445   0.00000  Uiso   1.00
N366   N     0.33620   0.70993   0.21263   0.00000  Uiso   1.00
N367   N     0.45092   0.97004   0.42903   0.00000  Uiso   1.00
N368   N     0.07716   0.91114   0.37805   0.00000  Uiso   1.00
