data_job_02267
_audit_creation_date              2018-12-19
_audit_creation_method            'Materials Studio'
_symmetry_space_group_name_H-M    'P1'
_symmetry_Int_Tables_number       1
_symmetry_cell_setting            triclinic
loop_
_symmetry_equiv_pos_as_xyz
  x,y,z
_cell_length_a                    22.7314
_cell_length_b                    29.1594
_cell_length_c                    9.7928
_cell_angle_alpha                 90.0000
_cell_angle_beta                  80.7828
_cell_angle_gamma                 90.0000
loop_
_atom_site_label
_atom_site_type_symbol
_atom_site_fract_x
_atom_site_fract_y
_atom_site_fract_z
_atom_site_U_iso_or_equiv
_atom_site_adp_type
_atom_site_occupancy
C1     C     0.78052   0.62783   0.38282   0.00000  Uiso   1.00
C2     C     0.75886   0.67083   0.31742   0.00000  Uiso   1.00
C3     C     0.77685   0.71539   0.33866   0.00000  Uiso   1.00
C4     C     0.75182   0.75001   0.26934   0.00000  Uiso   1.00
C5     C     0.72447   0.81824   0.18115   0.00000  Uiso   1.00
C6     C     0.72478   0.60409   0.45779   0.00000  Uiso   1.00
C7     C     0.71413   0.59253   0.59704   0.00000  Uiso   1.00
C8     C     0.66042   0.57096   0.64587   0.00000  Uiso   1.00
C9     C     0.58020   0.53555   0.77557   0.00000  Uiso   1.00
C10    C     0.80552   0.59642   0.26300   0.00000  Uiso   1.00
C11    C     0.86275   0.57840   0.23849   0.00000  Uiso   1.00
C12    C     0.87701   0.55036   0.12333   0.00000  Uiso   1.00
C13    C     0.92214   0.50304   0.95059   0.00000  Uiso   1.00
C14    C     0.70407   0.61008   0.22192   0.00000  Uiso   1.00
C15    C     0.71733   0.66119   0.23003   0.00000  Uiso   1.00
C16    C     0.69227   0.69575   0.16065   0.00000  Uiso   1.00
C17    C     0.71022   0.74035   0.18179   0.00000  Uiso   1.00
C18    C     0.68326   0.59445   0.37040   0.00000  Uiso   1.00
C19    C     0.62955   0.57289   0.41903   0.00000  Uiso   1.00
C20    C     0.61882   0.56130   0.55832   0.00000  Uiso   1.00
C21    C     0.76400   0.58678   0.17560   0.00000  Uiso   1.00
C22    C     0.77817   0.55876   0.06047   0.00000  Uiso   1.00
C23    C     0.83541   0.54071   0.03578   0.00000  Uiso   1.00
H24    H     0.81284   0.63534   0.45086   0.00000  Uiso   1.00
H25    H     0.80898   0.72283   0.40632   0.00000  Uiso   1.00
H26    H     0.74628   0.59999   0.66464   0.00000  Uiso   1.00
H27    H     0.89487   0.58586   0.30614   0.00000  Uiso   1.00
H28    H     0.78637   0.81559   0.31843   0.00000  Uiso   1.00
H29    H     0.65417   0.55655   0.86311   0.00000  Uiso   1.00
H30    H     0.96750   0.52677   0.10714   0.00000  Uiso   1.00
H31    H     0.67174   0.60258   0.15388   0.00000  Uiso   1.00
H32    H     0.66013   0.68828   0.09303   0.00000  Uiso   1.00
H33    H     0.59743   0.56543   0.35137   0.00000  Uiso   1.00
H34    H     0.74602   0.55131   0.99286   0.00000  Uiso   1.00
H35    H     0.66555   0.78754   0.06416   0.00000  Uiso   1.00
H36    H     0.53335   0.52850   0.60885   0.00000  Uiso   1.00
H37    H     0.84669   0.49872   0.85287   0.00000  Uiso   1.00
O38    O     0.72086   0.85853   0.15666   0.00000  Uiso   1.00
O39    O     0.54742   0.51868   0.87126   0.00000  Uiso   1.00
O40    O     0.95851   0.47961   0.87944   0.00000  Uiso   1.00
N41    N     0.75954   0.79723   0.26691   0.00000  Uiso   1.00
N42    N     0.63593   0.55505   0.77617   0.00000  Uiso   1.00
N43    N     0.92887   0.52719   0.06942   0.00000  Uiso   1.00
N44    N     0.69453   0.78213   0.13009   0.00000  Uiso   1.00
N45    N     0.57092   0.53996   0.63935   0.00000  Uiso   1.00
N46    N     0.86386   0.51210   0.93260   0.00000  Uiso   1.00
C47    C     0.28052   0.12783   0.38282   0.00000  Uiso   1.00
C48    C     0.25886   0.17083   0.31742   0.00000  Uiso   1.00
C49    C     0.27685   0.21539   0.33866   0.00000  Uiso   1.00
C50    C     0.25182   0.25001   0.26934   0.00000  Uiso   1.00
C51    C     0.22447   0.31824   0.18115   0.00000  Uiso   1.00
C52    C     0.22478   0.10409   0.45779   0.00000  Uiso   1.00
C53    C     0.21413   0.09253   0.59704   0.00000  Uiso   1.00
C54    C     0.16042   0.07096   0.64587   0.00000  Uiso   1.00
C55    C     0.08020   0.03555   0.77557   0.00000  Uiso   1.00
C56    C     0.30552   0.09642   0.26300   0.00000  Uiso   1.00
C57    C     0.36275   0.07840   0.23849   0.00000  Uiso   1.00
C58    C     0.37701   0.05036   0.12333   0.00000  Uiso   1.00
C59    C     0.42214   0.00304   0.95059   0.00000  Uiso   1.00
C60    C     0.20407   0.11008   0.22192   0.00000  Uiso   1.00
C61    C     0.21733   0.16119   0.23003   0.00000  Uiso   1.00
C62    C     0.19227   0.19575   0.16065   0.00000  Uiso   1.00
C63    C     0.21022   0.24035   0.18179   0.00000  Uiso   1.00
C64    C     0.18326   0.09445   0.37040   0.00000  Uiso   1.00
C65    C     0.12955   0.07289   0.41903   0.00000  Uiso   1.00
C66    C     0.11882   0.06130   0.55832   0.00000  Uiso   1.00
C67    C     0.26400   0.08678   0.17560   0.00000  Uiso   1.00
C68    C     0.27817   0.05876   0.06047   0.00000  Uiso   1.00
C69    C     0.33541   0.04071   0.03578   0.00000  Uiso   1.00
H70    H     0.31284   0.13534   0.45086   0.00000  Uiso   1.00
H71    H     0.30898   0.22283   0.40632   0.00000  Uiso   1.00
H72    H     0.24628   0.09999   0.66464   0.00000  Uiso   1.00
H73    H     0.39487   0.08586   0.30614   0.00000  Uiso   1.00
H74    H     0.28637   0.31559   0.31843   0.00000  Uiso   1.00
H75    H     0.15417   0.05655   0.86311   0.00000  Uiso   1.00
H76    H     0.46750   0.02677   0.10714   0.00000  Uiso   1.00
H77    H     0.17174   0.10258   0.15388   0.00000  Uiso   1.00
H78    H     0.16013   0.18828   0.09303   0.00000  Uiso   1.00
H79    H     0.09743   0.06543   0.35137   0.00000  Uiso   1.00
H80    H     0.24602   0.05131   0.99286   0.00000  Uiso   1.00
H81    H     0.16555   0.28754   0.06416   0.00000  Uiso   1.00
H82    H     0.03335   0.02850   0.60885   0.00000  Uiso   1.00
H83    H     0.34669   0.99872   0.85287   0.00000  Uiso   1.00
O84    O     0.22086   0.35853   0.15666   0.00000  Uiso   1.00
O85    O     0.04742   0.01868   0.87126   0.00000  Uiso   1.00
O86    O     0.45851   0.97961   0.87944   0.00000  Uiso   1.00
N87    N     0.25954   0.29723   0.26691   0.00000  Uiso   1.00
N88    N     0.13593   0.05505   0.77617   0.00000  Uiso   1.00
N89    N     0.42887   0.02719   0.06942   0.00000  Uiso   1.00
N90    N     0.19453   0.28213   0.13009   0.00000  Uiso   1.00
N91    N     0.07092   0.03996   0.63935   0.00000  Uiso   1.00
N92    N     0.36386   0.01210   0.93260   0.00000  Uiso   1.00
C93    C     0.21948   0.62783   0.11718   0.00000  Uiso   1.00
C94    C     0.24114   0.67083   0.18258   0.00000  Uiso   1.00
C95    C     0.22315   0.71539   0.16134   0.00000  Uiso   1.00
C96    C     0.24818   0.75001   0.23066   0.00000  Uiso   1.00
C97    C     0.27553   0.81824   0.31885   0.00000  Uiso   1.00
C98    C     0.27522   0.60409   0.04221   0.00000  Uiso   1.00
C99    C     0.28587   0.59253   0.90296   0.00000  Uiso   1.00
C100   C     0.33958   0.57096   0.85413   0.00000  Uiso   1.00
C101   C     0.41980   0.53555   0.72443   0.00000  Uiso   1.00
C102   C     0.19448   0.59642   0.23700   0.00000  Uiso   1.00
C103   C     0.13725   0.57840   0.26151   0.00000  Uiso   1.00
C104   C     0.12299   0.55036   0.37667   0.00000  Uiso   1.00
C105   C     0.07786   0.50304   0.54941   0.00000  Uiso   1.00
C106   C     0.29593   0.61008   0.27808   0.00000  Uiso   1.00
C107   C     0.28267   0.66119   0.26997   0.00000  Uiso   1.00
C108   C     0.30773   0.69575   0.33935   0.00000  Uiso   1.00
C109   C     0.28978   0.74035   0.31821   0.00000  Uiso   1.00
C110   C     0.31674   0.59445   0.12960   0.00000  Uiso   1.00
C111   C     0.37045   0.57289   0.08097   0.00000  Uiso   1.00
C112   C     0.38118   0.56130   0.94168   0.00000  Uiso   1.00
C113   C     0.23600   0.58678   0.32440   0.00000  Uiso   1.00
C114   C     0.22183   0.55876   0.43953   0.00000  Uiso   1.00
C115   C     0.16459   0.54071   0.46422   0.00000  Uiso   1.00
H116   H     0.18716   0.63534   0.04914   0.00000  Uiso   1.00
H117   H     0.19102   0.72283   0.09368   0.00000  Uiso   1.00
H118   H     0.25372   0.59999   0.83536   0.00000  Uiso   1.00
H119   H     0.10513   0.58586   0.19386   0.00000  Uiso   1.00
H120   H     0.21363   0.81559   0.18157   0.00000  Uiso   1.00
H121   H     0.34583   0.55655   0.63689   0.00000  Uiso   1.00
H122   H     0.03250   0.52677   0.39286   0.00000  Uiso   1.00
H123   H     0.32826   0.60258   0.34612   0.00000  Uiso   1.00
H124   H     0.33987   0.68828   0.40697   0.00000  Uiso   1.00
H125   H     0.40257   0.56543   0.14863   0.00000  Uiso   1.00
H126   H     0.25398   0.55131   0.50714   0.00000  Uiso   1.00
H127   H     0.33445   0.78754   0.43584   0.00000  Uiso   1.00
H128   H     0.46665   0.52850   0.89115   0.00000  Uiso   1.00
H129   H     0.15331   0.49872   0.64713   0.00000  Uiso   1.00
O130   O     0.27914   0.85853   0.34334   0.00000  Uiso   1.00
O131   O     0.45258   0.51868   0.62874   0.00000  Uiso   1.00
O132   O     0.04149   0.47961   0.62056   0.00000  Uiso   1.00
N133   N     0.24046   0.79723   0.23309   0.00000  Uiso   1.00
N134   N     0.36407   0.55505   0.72383   0.00000  Uiso   1.00
N135   N     0.07113   0.52719   0.43058   0.00000  Uiso   1.00
N136   N     0.30547   0.78213   0.36991   0.00000  Uiso   1.00
N137   N     0.42908   0.53996   0.86065   0.00000  Uiso   1.00
N138   N     0.13614   0.51210   0.56740   0.00000  Uiso   1.00
C139   C     0.71948   0.12783   0.11718   0.00000  Uiso   1.00
C140   C     0.74114   0.17083   0.18258   0.00000  Uiso   1.00
C141   C     0.72315   0.21539   0.16134   0.00000  Uiso   1.00
C142   C     0.74818   0.25001   0.23066   0.00000  Uiso   1.00
C143   C     0.77553   0.31824   0.31885   0.00000  Uiso   1.00
C144   C     0.77522   0.10409   0.04221   0.00000  Uiso   1.00
C145   C     0.78587   0.09253   0.90296   0.00000  Uiso   1.00
C146   C     0.83958   0.07096   0.85413   0.00000  Uiso   1.00
C147   C     0.91980   0.03555   0.72443   0.00000  Uiso   1.00
C148   C     0.69448   0.09642   0.23700   0.00000  Uiso   1.00
C149   C     0.63725   0.07840   0.26151   0.00000  Uiso   1.00
C150   C     0.62299   0.05036   0.37667   0.00000  Uiso   1.00
C151   C     0.57786   0.00304   0.54941   0.00000  Uiso   1.00
C152   C     0.79593   0.11008   0.27808   0.00000  Uiso   1.00
C153   C     0.78267   0.16119   0.26997   0.00000  Uiso   1.00
C154   C     0.80773   0.19575   0.33935   0.00000  Uiso   1.00
C155   C     0.78978   0.24035   0.31821   0.00000  Uiso   1.00
C156   C     0.81674   0.09445   0.12960   0.00000  Uiso   1.00
C157   C     0.87045   0.07289   0.08097   0.00000  Uiso   1.00
C158   C     0.88118   0.06130   0.94168   0.00000  Uiso   1.00
C159   C     0.73600   0.08678   0.32440   0.00000  Uiso   1.00
C160   C     0.72183   0.05876   0.43953   0.00000  Uiso   1.00
C161   C     0.66459   0.04071   0.46422   0.00000  Uiso   1.00
H162   H     0.68716   0.13534   0.04914   0.00000  Uiso   1.00
H163   H     0.69102   0.22283   0.09368   0.00000  Uiso   1.00
H164   H     0.75372   0.09999   0.83536   0.00000  Uiso   1.00
H165   H     0.60513   0.08586   0.19386   0.00000  Uiso   1.00
H166   H     0.71363   0.31559   0.18157   0.00000  Uiso   1.00
H167   H     0.84583   0.05655   0.63689   0.00000  Uiso   1.00
H168   H     0.53250   0.02677   0.39286   0.00000  Uiso   1.00
H169   H     0.82826   0.10258   0.34612   0.00000  Uiso   1.00
H170   H     0.83987   0.18828   0.40697   0.00000  Uiso   1.00
H171   H     0.90257   0.06543   0.14863   0.00000  Uiso   1.00
H172   H     0.75398   0.05131   0.50714   0.00000  Uiso   1.00
H173   H     0.83445   0.28754   0.43584   0.00000  Uiso   1.00
H174   H     0.96665   0.02850   0.89115   0.00000  Uiso   1.00
H175   H     0.65331   0.99872   0.64713   0.00000  Uiso   1.00
O176   O     0.77914   0.35853   0.34334   0.00000  Uiso   1.00
O177   O     0.95258   0.01868   0.62874   0.00000  Uiso   1.00
O178   O     0.54149   0.97961   0.62056   0.00000  Uiso   1.00
N179   N     0.74046   0.29723   0.23309   0.00000  Uiso   1.00
N180   N     0.86407   0.05505   0.72383   0.00000  Uiso   1.00
N181   N     0.57113   0.02719   0.43058   0.00000  Uiso   1.00
N182   N     0.80547   0.28213   0.36991   0.00000  Uiso   1.00
N183   N     0.92908   0.03996   0.86065   0.00000  Uiso   1.00
N184   N     0.63614   0.01210   0.56740   0.00000  Uiso   1.00
C185   C     0.21948   0.37217   0.61718   0.00000  Uiso   1.00
C186   C     0.24114   0.32917   0.68258   0.00000  Uiso   1.00
C187   C     0.22315   0.28461   0.66134   0.00000  Uiso   1.00
C188   C     0.24818   0.24999   0.73066   0.00000  Uiso   1.00
C189   C     0.27553   0.18176   0.81885   0.00000  Uiso   1.00
C190   C     0.27522   0.39591   0.54221   0.00000  Uiso   1.00
C191   C     0.28587   0.40747   0.40296   0.00000  Uiso   1.00
C192   C     0.33958   0.42904   0.35413   0.00000  Uiso   1.00
C193   C     0.41980   0.46445   0.22443   0.00000  Uiso   1.00
C194   C     0.19448   0.40358   0.73700   0.00000  Uiso   1.00
C195   C     0.13725   0.42160   0.76151   0.00000  Uiso   1.00
C196   C     0.12299   0.44964   0.87667   0.00000  Uiso   1.00
C197   C     0.07786   0.49696   0.04941   0.00000  Uiso   1.00
C198   C     0.29593   0.38992   0.77808   0.00000  Uiso   1.00
C199   C     0.28267   0.33881   0.76997   0.00000  Uiso   1.00
C200   C     0.30773   0.30425   0.83935   0.00000  Uiso   1.00
C201   C     0.28978   0.25965   0.81821   0.00000  Uiso   1.00
C202   C     0.31674   0.40555   0.62960   0.00000  Uiso   1.00
C203   C     0.37045   0.42711   0.58097   0.00000  Uiso   1.00
C204   C     0.38118   0.43870   0.44168   0.00000  Uiso   1.00
C205   C     0.23600   0.41322   0.82440   0.00000  Uiso   1.00
C206   C     0.22183   0.44124   0.93953   0.00000  Uiso   1.00
C207   C     0.16459   0.45929   0.96422   0.00000  Uiso   1.00
H208   H     0.18716   0.36466   0.54914   0.00000  Uiso   1.00
H209   H     0.19102   0.27717   0.59368   0.00000  Uiso   1.00
H210   H     0.25372   0.40001   0.33536   0.00000  Uiso   1.00
H211   H     0.10513   0.41414   0.69386   0.00000  Uiso   1.00
H212   H     0.21363   0.18441   0.68157   0.00000  Uiso   1.00
H213   H     0.34583   0.44345   0.13689   0.00000  Uiso   1.00
H214   H     0.03250   0.47323   0.89286   0.00000  Uiso   1.00
H215   H     0.32826   0.39742   0.84612   0.00000  Uiso   1.00
H216   H     0.33987   0.31172   0.90697   0.00000  Uiso   1.00
H217   H     0.40257   0.43457   0.64863   0.00000  Uiso   1.00
H218   H     0.25398   0.44869   0.00714   0.00000  Uiso   1.00
H219   H     0.33445   0.21246   0.93584   0.00000  Uiso   1.00
H220   H     0.46665   0.47150   0.39115   0.00000  Uiso   1.00
H221   H     0.15331   0.50128   0.14713   0.00000  Uiso   1.00
O222   O     0.27914   0.14147   0.84334   0.00000  Uiso   1.00
O223   O     0.45258   0.48132   0.12874   0.00000  Uiso   1.00
O224   O     0.04149   0.52039   0.12056   0.00000  Uiso   1.00
N225   N     0.24046   0.20277   0.73309   0.00000  Uiso   1.00
N226   N     0.36407   0.44495   0.22383   0.00000  Uiso   1.00
N227   N     0.07113   0.47281   0.93058   0.00000  Uiso   1.00
N228   N     0.30547   0.21787   0.86991   0.00000  Uiso   1.00
N229   N     0.42908   0.46004   0.36065   0.00000  Uiso   1.00
N230   N     0.13614   0.48790   0.06740   0.00000  Uiso   1.00
C231   C     0.71948   0.87217   0.61718   0.00000  Uiso   1.00
C232   C     0.74114   0.82917   0.68258   0.00000  Uiso   1.00
C233   C     0.72315   0.78461   0.66134   0.00000  Uiso   1.00
C234   C     0.74818   0.74999   0.73066   0.00000  Uiso   1.00
C235   C     0.77553   0.68176   0.81885   0.00000  Uiso   1.00
C236   C     0.77522   0.89591   0.54221   0.00000  Uiso   1.00
C237   C     0.78587   0.90747   0.40296   0.00000  Uiso   1.00
C238   C     0.83958   0.92904   0.35413   0.00000  Uiso   1.00
C239   C     0.91980   0.96445   0.22443   0.00000  Uiso   1.00
C240   C     0.69448   0.90358   0.73700   0.00000  Uiso   1.00
C241   C     0.63725   0.92160   0.76151   0.00000  Uiso   1.00
C242   C     0.62299   0.94964   0.87667   0.00000  Uiso   1.00
C243   C     0.57786   0.99696   0.04941   0.00000  Uiso   1.00
C244   C     0.79593   0.88992   0.77808   0.00000  Uiso   1.00
C245   C     0.78267   0.83881   0.76997   0.00000  Uiso   1.00
C246   C     0.80773   0.80425   0.83935   0.00000  Uiso   1.00
C247   C     0.78978   0.75965   0.81821   0.00000  Uiso   1.00
C248   C     0.81674   0.90555   0.62960   0.00000  Uiso   1.00
C249   C     0.87045   0.92711   0.58097   0.00000  Uiso   1.00
C250   C     0.88118   0.93870   0.44168   0.00000  Uiso   1.00
C251   C     0.73600   0.91322   0.82440   0.00000  Uiso   1.00
C252   C     0.72183   0.94124   0.93953   0.00000  Uiso   1.00
C253   C     0.66459   0.95929   0.96422   0.00000  Uiso   1.00
H254   H     0.68716   0.86466   0.54914   0.00000  Uiso   1.00
H255   H     0.69102   0.77717   0.59368   0.00000  Uiso   1.00
H256   H     0.75372   0.90001   0.33536   0.00000  Uiso   1.00
H257   H     0.60513   0.91414   0.69386   0.00000  Uiso   1.00
H258   H     0.71363   0.68441   0.68157   0.00000  Uiso   1.00
H259   H     0.84583   0.94345   0.13689   0.00000  Uiso   1.00
H260   H     0.53250   0.97323   0.89286   0.00000  Uiso   1.00
H261   H     0.82826   0.89742   0.84612   0.00000  Uiso   1.00
H262   H     0.83987   0.81172   0.90697   0.00000  Uiso   1.00
H263   H     0.90257   0.93457   0.64863   0.00000  Uiso   1.00
H264   H     0.75398   0.94869   0.00714   0.00000  Uiso   1.00
H265   H     0.83445   0.71246   0.93584   0.00000  Uiso   1.00
H266   H     0.96665   0.97150   0.39115   0.00000  Uiso   1.00
H267   H     0.65331   0.00128   0.14713   0.00000  Uiso   1.00
O268   O     0.77914   0.64147   0.84334   0.00000  Uiso   1.00
O269   O     0.95258   0.98132   0.12874   0.00000  Uiso   1.00
O270   O     0.54149   0.02039   0.12056   0.00000  Uiso   1.00
N271   N     0.74046   0.70277   0.73309   0.00000  Uiso   1.00
N272   N     0.86407   0.94495   0.22383   0.00000  Uiso   1.00
N273   N     0.57113   0.97281   0.93058   0.00000  Uiso   1.00
N274   N     0.80547   0.71787   0.86991   0.00000  Uiso   1.00
N275   N     0.92908   0.96004   0.36065   0.00000  Uiso   1.00
N276   N     0.63614   0.98790   0.06740   0.00000  Uiso   1.00
C277   C     0.78052   0.37217   0.88282   0.00000  Uiso   1.00
C278   C     0.75886   0.32917   0.81742   0.00000  Uiso   1.00
C279   C     0.77685   0.28461   0.83866   0.00000  Uiso   1.00
C280   C     0.75182   0.24999   0.76934   0.00000  Uiso   1.00
C281   C     0.72447   0.18176   0.68115   0.00000  Uiso   1.00
C282   C     0.72478   0.39591   0.95779   0.00000  Uiso   1.00
C283   C     0.71413   0.40747   0.09704   0.00000  Uiso   1.00
C284   C     0.66042   0.42904   0.14587   0.00000  Uiso   1.00
C285   C     0.58020   0.46445   0.27557   0.00000  Uiso   1.00
C286   C     0.80552   0.40358   0.76300   0.00000  Uiso   1.00
C287   C     0.86275   0.42160   0.73849   0.00000  Uiso   1.00
C288   C     0.87701   0.44964   0.62333   0.00000  Uiso   1.00
C289   C     0.92214   0.49696   0.45059   0.00000  Uiso   1.00
C290   C     0.70407   0.38992   0.72192   0.00000  Uiso   1.00
C291   C     0.71733   0.33881   0.73003   0.00000  Uiso   1.00
C292   C     0.69227   0.30425   0.66065   0.00000  Uiso   1.00
C293   C     0.71022   0.25965   0.68179   0.00000  Uiso   1.00
C294   C     0.68326   0.40555   0.87040   0.00000  Uiso   1.00
C295   C     0.62955   0.42711   0.91903   0.00000  Uiso   1.00
C296   C     0.61882   0.43870   0.05832   0.00000  Uiso   1.00
C297   C     0.76400   0.41322   0.67560   0.00000  Uiso   1.00
C298   C     0.77817   0.44124   0.56047   0.00000  Uiso   1.00
C299   C     0.83541   0.45929   0.53578   0.00000  Uiso   1.00
H300   H     0.81284   0.36466   0.95086   0.00000  Uiso   1.00
H301   H     0.80898   0.27717   0.90632   0.00000  Uiso   1.00
H302   H     0.74628   0.40001   0.16464   0.00000  Uiso   1.00
H303   H     0.89487   0.41414   0.80614   0.00000  Uiso   1.00
H304   H     0.78637   0.18441   0.81843   0.00000  Uiso   1.00
H305   H     0.65417   0.44345   0.36311   0.00000  Uiso   1.00
H306   H     0.96750   0.47323   0.60714   0.00000  Uiso   1.00
H307   H     0.67174   0.39742   0.65388   0.00000  Uiso   1.00
H308   H     0.66013   0.31172   0.59303   0.00000  Uiso   1.00
H309   H     0.59743   0.43457   0.85137   0.00000  Uiso   1.00
H310   H     0.74602   0.44869   0.49286   0.00000  Uiso   1.00
H311   H     0.66555   0.21246   0.56416   0.00000  Uiso   1.00
H312   H     0.53335   0.47150   0.10885   0.00000  Uiso   1.00
H313   H     0.84669   0.50128   0.35287   0.00000  Uiso   1.00
O314   O     0.72086   0.14147   0.65666   0.00000  Uiso   1.00
O315   O     0.54742   0.48132   0.37126   0.00000  Uiso   1.00
O316   O     0.95851   0.52039   0.37944   0.00000  Uiso   1.00
N317   N     0.75954   0.20277   0.76691   0.00000  Uiso   1.00
N318   N     0.63593   0.44495   0.27617   0.00000  Uiso   1.00
N319   N     0.92887   0.47281   0.56942   0.00000  Uiso   1.00
N320   N     0.69453   0.21787   0.63009   0.00000  Uiso   1.00
N321   N     0.57092   0.46004   0.13935   0.00000  Uiso   1.00
N322   N     0.86386   0.48790   0.43260   0.00000  Uiso   1.00
C323   C     0.28052   0.87217   0.88282   0.00000  Uiso   1.00
C324   C     0.25886   0.82917   0.81742   0.00000  Uiso   1.00
C325   C     0.27685   0.78461   0.83866   0.00000  Uiso   1.00
C326   C     0.25182   0.74999   0.76934   0.00000  Uiso   1.00
C327   C     0.22447   0.68176   0.68115   0.00000  Uiso   1.00
C328   C     0.22478   0.89591   0.95779   0.00000  Uiso   1.00
C329   C     0.21413   0.90747   0.09704   0.00000  Uiso   1.00
C330   C     0.16042   0.92904   0.14587   0.00000  Uiso   1.00
C331   C     0.08020   0.96445   0.27557   0.00000  Uiso   1.00
C332   C     0.30552   0.90358   0.76300   0.00000  Uiso   1.00
C333   C     0.36275   0.92160   0.73849   0.00000  Uiso   1.00
C334   C     0.37701   0.94964   0.62333   0.00000  Uiso   1.00
C335   C     0.42214   0.99696   0.45059   0.00000  Uiso   1.00
C336   C     0.20407   0.88992   0.72192   0.00000  Uiso   1.00
C337   C     0.21733   0.83881   0.73003   0.00000  Uiso   1.00
C338   C     0.19227   0.80425   0.66065   0.00000  Uiso   1.00
C339   C     0.21022   0.75965   0.68179   0.00000  Uiso   1.00
C340   C     0.18326   0.90555   0.87040   0.00000  Uiso   1.00
C341   C     0.12955   0.92711   0.91903   0.00000  Uiso   1.00
C342   C     0.11882   0.93870   0.05832   0.00000  Uiso   1.00
C343   C     0.26400   0.91322   0.67560   0.00000  Uiso   1.00
C344   C     0.27817   0.94124   0.56047   0.00000  Uiso   1.00
C345   C     0.33541   0.95929   0.53578   0.00000  Uiso   1.00
H346   H     0.31284   0.86466   0.95086   0.00000  Uiso   1.00
H347   H     0.30898   0.77717   0.90632   0.00000  Uiso   1.00
H348   H     0.24628   0.90001   0.16464   0.00000  Uiso   1.00
H349   H     0.39487   0.91414   0.80614   0.00000  Uiso   1.00
H350   H     0.28637   0.68441   0.81843   0.00000  Uiso   1.00
H351   H     0.15417   0.94345   0.36311   0.00000  Uiso   1.00
H352   H     0.46750   0.97323   0.60714   0.00000  Uiso   1.00
H353   H     0.17174   0.89742   0.65388   0.00000  Uiso   1.00
H354   H     0.16013   0.81172   0.59303   0.00000  Uiso   1.00
H355   H     0.09743   0.93457   0.85137   0.00000  Uiso   1.00
H356   H     0.24602   0.94869   0.49286   0.00000  Uiso   1.00
H357   H     0.16555   0.71246   0.56416   0.00000  Uiso   1.00
H358   H     0.03335   0.97150   0.10885   0.00000  Uiso   1.00
H359   H     0.34669   0.00128   0.35287   0.00000  Uiso   1.00
O360   O     0.22086   0.64147   0.65666   0.00000  Uiso   1.00
O361   O     0.04742   0.98132   0.37126   0.00000  Uiso   1.00
O362   O     0.45851   0.02039   0.37944   0.00000  Uiso   1.00
N363   N     0.25954   0.70277   0.76691   0.00000  Uiso   1.00
N364   N     0.13593   0.94495   0.27617   0.00000  Uiso   1.00
N365   N     0.42887   0.97281   0.56942   0.00000  Uiso   1.00
N366   N     0.19453   0.71787   0.63009   0.00000  Uiso   1.00
N367   N     0.07092   0.96004   0.13935   0.00000  Uiso   1.00
N368   N     0.36386   0.98790   0.43260   0.00000  Uiso   1.00
