data_job_01867
_audit_creation_date              2018-12-19
_audit_creation_method            'Materials Studio'
_symmetry_space_group_name_H-M    'P1'
_symmetry_Int_Tables_number       1
_symmetry_cell_setting            triclinic
loop_
_symmetry_equiv_pos_as_xyz
  x,y,z
_cell_length_a                    12.6568
_cell_length_b                    21.0827
_cell_length_c                    22.8559
_cell_angle_alpha                 90.0000
_cell_angle_beta                  90.0000
_cell_angle_gamma                 90.0000
loop_
_atom_site_label
_atom_site_type_symbol
_atom_site_fract_x
_atom_site_fract_y
_atom_site_fract_z
_atom_site_U_iso_or_equiv
_atom_site_adp_type
_atom_site_occupancy
C1     C     0.55203   0.77370   0.62387   0.00000  Uiso   1.00
C2     C     0.45042   0.78985   0.65647   0.00000  Uiso   1.00
C3     C     0.43002   0.84617   0.68581   0.00000  Uiso   1.00
C4     C     0.33229   0.85175   0.71291   0.00000  Uiso   1.00
C5     C     0.18588   0.88427   0.76390   0.00000  Uiso   1.00
C6     C     0.59257   0.71218   0.65083   0.00000  Uiso   1.00
C7     C     0.69171   0.70319   0.67542   0.00000  Uiso   1.00
C8     C     0.71365   0.64338   0.69777   0.00000  Uiso   1.00
C9     C     0.78797   0.55531   0.73996   0.00000  Uiso   1.00
C10    C     0.51901   0.75722   0.56153   0.00000  Uiso   1.00
C11    C     0.55631   0.78610   0.51102   0.00000  Uiso   1.00
C12    C     0.51633   0.76421   0.45818   0.00000  Uiso   1.00
C13    C     0.47643   0.74607   0.36171   0.00000  Uiso   1.00
C14    C     0.41472   0.68346   0.61983   0.00000  Uiso   1.00
C15    C     0.37584   0.74084   0.65428   0.00000  Uiso   1.00
C16    C     0.27811   0.74634   0.68134   0.00000  Uiso   1.00
C17    C     0.25757   0.80265   0.71071   0.00000  Uiso   1.00
C18    C     0.51800   0.66317   0.64864   0.00000  Uiso   1.00
C19    C     0.53980   0.60336   0.67095   0.00000  Uiso   1.00
C20    C     0.63894   0.59428   0.69557   0.00000  Uiso   1.00
C21    C     0.44443   0.70821   0.55933   0.00000  Uiso   1.00
C22    C     0.40439   0.68627   0.50656   0.00000  Uiso   1.00
C23    C     0.44162   0.71511   0.45598   0.00000  Uiso   1.00
H24    H     0.61010   0.81185   0.62557   0.00000  Uiso   1.00
H25    H     0.48777   0.88408   0.68750   0.00000  Uiso   1.00
H26    H     0.74941   0.74112   0.67711   0.00000  Uiso   1.00
H27    H     0.61403   0.82402   0.51274   0.00000  Uiso   1.00
H28    H     0.31926   0.94254   0.75521   0.00000  Uiso   1.00
H29    H     0.87097   0.64110   0.73327   0.00000  Uiso   1.00
H30    H     0.58549   0.81591   0.38667   0.00000  Uiso   1.00
H31    H     0.35666   0.64530   0.61812   0.00000  Uiso   1.00
H32    H     0.22041   0.70840   0.67963   0.00000  Uiso   1.00
H33    H     0.48206   0.56544   0.66924   0.00000  Uiso   1.00
H34    H     0.34668   0.64834   0.50487   0.00000  Uiso   1.00
H35    H     0.10227   0.79995   0.74883   0.00000  Uiso   1.00
H36    H     0.65399   0.49851   0.72689   0.00000  Uiso   1.00
H37    H     0.36850   0.67332   0.38029   0.00000  Uiso   1.00
O38    O     0.12573   0.91575   0.79263   0.00000  Uiso   1.00
O39    O     0.84956   0.52027   0.76385   0.00000  Uiso   1.00
O40    O     0.47501   0.74962   0.30911   0.00000  Uiso   1.00
N41    N     0.28688   0.90033   0.74525   0.00000  Uiso   1.00
N42    N     0.80270   0.61850   0.72476   0.00000  Uiso   1.00
N43    N     0.53581   0.78192   0.40071   0.00000  Uiso   1.00
N44    N     0.17012   0.82360   0.74182   0.00000  Uiso   1.00
N45    N     0.68593   0.54178   0.72132   0.00000  Uiso   1.00
N46    N     0.41905   0.70520   0.39727   0.00000  Uiso   1.00
C47    C     0.05203   0.27370   0.62387   0.00000  Uiso   1.00
C48    C     0.95042   0.28985   0.65647   0.00000  Uiso   1.00
C49    C     0.93002   0.34617   0.68581   0.00000  Uiso   1.00
C50    C     0.83229   0.35175   0.71291   0.00000  Uiso   1.00
C51    C     0.68588   0.38427   0.76390   0.00000  Uiso   1.00
C52    C     0.09257   0.21218   0.65083   0.00000  Uiso   1.00
C53    C     0.19171   0.20319   0.67542   0.00000  Uiso   1.00
C54    C     0.21365   0.14338   0.69777   0.00000  Uiso   1.00
C55    C     0.28797   0.05531   0.73996   0.00000  Uiso   1.00
C56    C     0.01901   0.25722   0.56153   0.00000  Uiso   1.00
C57    C     0.05631   0.28610   0.51102   0.00000  Uiso   1.00
C58    C     0.01633   0.26421   0.45818   0.00000  Uiso   1.00
C59    C     0.97643   0.24607   0.36171   0.00000  Uiso   1.00
C60    C     0.91472   0.18346   0.61983   0.00000  Uiso   1.00
C61    C     0.87584   0.24084   0.65428   0.00000  Uiso   1.00
C62    C     0.77811   0.24634   0.68134   0.00000  Uiso   1.00
C63    C     0.75757   0.30265   0.71071   0.00000  Uiso   1.00
C64    C     0.01800   0.16317   0.64864   0.00000  Uiso   1.00
C65    C     0.03980   0.10336   0.67095   0.00000  Uiso   1.00
C66    C     0.13894   0.09428   0.69557   0.00000  Uiso   1.00
C67    C     0.94443   0.20821   0.55933   0.00000  Uiso   1.00
C68    C     0.90439   0.18627   0.50656   0.00000  Uiso   1.00
C69    C     0.94162   0.21511   0.45598   0.00000  Uiso   1.00
H70    H     0.11010   0.31185   0.62557   0.00000  Uiso   1.00
H71    H     0.98777   0.38408   0.68750   0.00000  Uiso   1.00
H72    H     0.24941   0.24112   0.67711   0.00000  Uiso   1.00
H73    H     0.11403   0.32402   0.51274   0.00000  Uiso   1.00
H74    H     0.81926   0.44254   0.75521   0.00000  Uiso   1.00
H75    H     0.37097   0.14110   0.73327   0.00000  Uiso   1.00
H76    H     0.08549   0.31591   0.38667   0.00000  Uiso   1.00
H77    H     0.85666   0.14530   0.61812   0.00000  Uiso   1.00
H78    H     0.72041   0.20840   0.67963   0.00000  Uiso   1.00
H79    H     0.98206   0.06544   0.66924   0.00000  Uiso   1.00
H80    H     0.84668   0.14834   0.50487   0.00000  Uiso   1.00
H81    H     0.60227   0.29995   0.74883   0.00000  Uiso   1.00
H82    H     0.15399   0.99851   0.72689   0.00000  Uiso   1.00
H83    H     0.86850   0.17332   0.38029   0.00000  Uiso   1.00
O84    O     0.62573   0.41575   0.79263   0.00000  Uiso   1.00
O85    O     0.34956   0.02027   0.76385   0.00000  Uiso   1.00
O86    O     0.97501   0.24962   0.30911   0.00000  Uiso   1.00
N87    N     0.78688   0.40033   0.74525   0.00000  Uiso   1.00
N88    N     0.30270   0.11850   0.72476   0.00000  Uiso   1.00
N89    N     0.03581   0.28192   0.40071   0.00000  Uiso   1.00
N90    N     0.67012   0.32360   0.74182   0.00000  Uiso   1.00
N91    N     0.18593   0.04178   0.72132   0.00000  Uiso   1.00
N92    N     0.91905   0.20520   0.39727   0.00000  Uiso   1.00
C93    C     0.44797   0.22630   0.12387   0.00000  Uiso   1.00
C94    C     0.54958   0.21015   0.15647   0.00000  Uiso   1.00
C95    C     0.56998   0.15383   0.18581   0.00000  Uiso   1.00
C96    C     0.66771   0.14825   0.21291   0.00000  Uiso   1.00
C97    C     0.81412   0.11573   0.26390   0.00000  Uiso   1.00
C98    C     0.40743   0.28782   0.15083   0.00000  Uiso   1.00
C99    C     0.30829   0.29681   0.17542   0.00000  Uiso   1.00
C100   C     0.28635   0.35662   0.19777   0.00000  Uiso   1.00
C101   C     0.21203   0.44469   0.23996   0.00000  Uiso   1.00
C102   C     0.48099   0.24278   0.06153   0.00000  Uiso   1.00
C103   C     0.44369   0.21390   0.01102   0.00000  Uiso   1.00
C104   C     0.48367   0.23579   0.95818   0.00000  Uiso   1.00
C105   C     0.52357   0.25393   0.86171   0.00000  Uiso   1.00
C106   C     0.58528   0.31654   0.11983   0.00000  Uiso   1.00
C107   C     0.62416   0.25916   0.15428   0.00000  Uiso   1.00
C108   C     0.72189   0.25366   0.18134   0.00000  Uiso   1.00
C109   C     0.74243   0.19735   0.21071   0.00000  Uiso   1.00
C110   C     0.48200   0.33683   0.14864   0.00000  Uiso   1.00
C111   C     0.46020   0.39664   0.17095   0.00000  Uiso   1.00
C112   C     0.36106   0.40572   0.19557   0.00000  Uiso   1.00
C113   C     0.55557   0.29179   0.05933   0.00000  Uiso   1.00
C114   C     0.59561   0.31373   0.00656   0.00000  Uiso   1.00
C115   C     0.55838   0.28489   0.95598   0.00000  Uiso   1.00
H116   H     0.38990   0.18815   0.12557   0.00000  Uiso   1.00
H117   H     0.51223   0.11592   0.18750   0.00000  Uiso   1.00
H118   H     0.25059   0.25888   0.17711   0.00000  Uiso   1.00
H119   H     0.38597   0.17598   0.01274   0.00000  Uiso   1.00
H120   H     0.68074   0.05746   0.25521   0.00000  Uiso   1.00
H121   H     0.12903   0.35890   0.23327   0.00000  Uiso   1.00
H122   H     0.41451   0.18409   0.88667   0.00000  Uiso   1.00
H123   H     0.64334   0.35470   0.11812   0.00000  Uiso   1.00
H124   H     0.77959   0.29160   0.17963   0.00000  Uiso   1.00
H125   H     0.51794   0.43456   0.16924   0.00000  Uiso   1.00
H126   H     0.65332   0.35166   0.00487   0.00000  Uiso   1.00
H127   H     0.89773   0.20005   0.24883   0.00000  Uiso   1.00
H128   H     0.34601   0.50149   0.22689   0.00000  Uiso   1.00
H129   H     0.63150   0.32668   0.88029   0.00000  Uiso   1.00
O130   O     0.87427   0.08425   0.29263   0.00000  Uiso   1.00
O131   O     0.15044   0.47973   0.26385   0.00000  Uiso   1.00
O132   O     0.52499   0.25038   0.80911   0.00000  Uiso   1.00
N133   N     0.71312   0.09967   0.24525   0.00000  Uiso   1.00
N134   N     0.19730   0.38150   0.22476   0.00000  Uiso   1.00
N135   N     0.46419   0.21808   0.90071   0.00000  Uiso   1.00
N136   N     0.82988   0.17640   0.24182   0.00000  Uiso   1.00
N137   N     0.31407   0.45822   0.22132   0.00000  Uiso   1.00
N138   N     0.58095   0.29480   0.89727   0.00000  Uiso   1.00
C139   C     0.94797   0.72630   0.12387   0.00000  Uiso   1.00
C140   C     0.04958   0.71015   0.15647   0.00000  Uiso   1.00
C141   C     0.06998   0.65383   0.18581   0.00000  Uiso   1.00
C142   C     0.16771   0.64825   0.21291   0.00000  Uiso   1.00
C143   C     0.31412   0.61573   0.26390   0.00000  Uiso   1.00
C144   C     0.90743   0.78782   0.15083   0.00000  Uiso   1.00
C145   C     0.80829   0.79681   0.17542   0.00000  Uiso   1.00
C146   C     0.78635   0.85662   0.19777   0.00000  Uiso   1.00
C147   C     0.71203   0.94469   0.23996   0.00000  Uiso   1.00
C148   C     0.98099   0.74278   0.06153   0.00000  Uiso   1.00
C149   C     0.94369   0.71390   0.01102   0.00000  Uiso   1.00
C150   C     0.98367   0.73579   0.95818   0.00000  Uiso   1.00
C151   C     0.02357   0.75393   0.86171   0.00000  Uiso   1.00
C152   C     0.08528   0.81654   0.11983   0.00000  Uiso   1.00
C153   C     0.12416   0.75916   0.15428   0.00000  Uiso   1.00
C154   C     0.22189   0.75366   0.18134   0.00000  Uiso   1.00
C155   C     0.24243   0.69735   0.21071   0.00000  Uiso   1.00
C156   C     0.98200   0.83683   0.14864   0.00000  Uiso   1.00
C157   C     0.96020   0.89664   0.17095   0.00000  Uiso   1.00
C158   C     0.86106   0.90572   0.19557   0.00000  Uiso   1.00
C159   C     0.05557   0.79179   0.05933   0.00000  Uiso   1.00
C160   C     0.09561   0.81373   0.00656   0.00000  Uiso   1.00
C161   C     0.05838   0.78489   0.95598   0.00000  Uiso   1.00
H162   H     0.88990   0.68815   0.12557   0.00000  Uiso   1.00
H163   H     0.01223   0.61592   0.18750   0.00000  Uiso   1.00
H164   H     0.75059   0.75888   0.17711   0.00000  Uiso   1.00
H165   H     0.88597   0.67598   0.01274   0.00000  Uiso   1.00
H166   H     0.18074   0.55746   0.25521   0.00000  Uiso   1.00
H167   H     0.62903   0.85890   0.23327   0.00000  Uiso   1.00
H168   H     0.91451   0.68409   0.88667   0.00000  Uiso   1.00
H169   H     0.14334   0.85470   0.11812   0.00000  Uiso   1.00
H170   H     0.27959   0.79160   0.17963   0.00000  Uiso   1.00
H171   H     0.01794   0.93456   0.16924   0.00000  Uiso   1.00
H172   H     0.15332   0.85166   0.00487   0.00000  Uiso   1.00
H173   H     0.39773   0.70005   0.24883   0.00000  Uiso   1.00
H174   H     0.84601   0.00149   0.22689   0.00000  Uiso   1.00
H175   H     0.13150   0.82668   0.88029   0.00000  Uiso   1.00
O176   O     0.37427   0.58425   0.29263   0.00000  Uiso   1.00
O177   O     0.65044   0.97973   0.26385   0.00000  Uiso   1.00
O178   O     0.02499   0.75038   0.80911   0.00000  Uiso   1.00
N179   N     0.21312   0.59967   0.24525   0.00000  Uiso   1.00
N180   N     0.69730   0.88150   0.22476   0.00000  Uiso   1.00
N181   N     0.96419   0.71808   0.90071   0.00000  Uiso   1.00
N182   N     0.32988   0.67640   0.24182   0.00000  Uiso   1.00
N183   N     0.81407   0.95822   0.22132   0.00000  Uiso   1.00
N184   N     0.08095   0.79480   0.89727   0.00000  Uiso   1.00
C185   C     0.44797   0.77370   0.87613   0.00000  Uiso   1.00
C186   C     0.54958   0.78985   0.84353   0.00000  Uiso   1.00
C187   C     0.56998   0.84617   0.81419   0.00000  Uiso   1.00
C188   C     0.66771   0.85175   0.78709   0.00000  Uiso   1.00
C189   C     0.81412   0.88427   0.73610   0.00000  Uiso   1.00
C190   C     0.40743   0.71218   0.84917   0.00000  Uiso   1.00
C191   C     0.30829   0.70319   0.82458   0.00000  Uiso   1.00
C192   C     0.28635   0.64338   0.80223   0.00000  Uiso   1.00
C193   C     0.21203   0.55531   0.76004   0.00000  Uiso   1.00
C194   C     0.48099   0.75722   0.93847   0.00000  Uiso   1.00
C195   C     0.44369   0.78610   0.98898   0.00000  Uiso   1.00
C196   C     0.48367   0.76421   0.04182   0.00000  Uiso   1.00
C197   C     0.52357   0.74607   0.13829   0.00000  Uiso   1.00
C198   C     0.58528   0.68346   0.88017   0.00000  Uiso   1.00
C199   C     0.62416   0.74084   0.84572   0.00000  Uiso   1.00
C200   C     0.72189   0.74634   0.81866   0.00000  Uiso   1.00
C201   C     0.74243   0.80265   0.78929   0.00000  Uiso   1.00
C202   C     0.48200   0.66317   0.85136   0.00000  Uiso   1.00
C203   C     0.46020   0.60336   0.82905   0.00000  Uiso   1.00
C204   C     0.36106   0.59428   0.80443   0.00000  Uiso   1.00
C205   C     0.55557   0.70821   0.94067   0.00000  Uiso   1.00
C206   C     0.59561   0.68627   0.99344   0.00000  Uiso   1.00
C207   C     0.55838   0.71511   0.04402   0.00000  Uiso   1.00
H208   H     0.38990   0.81185   0.87443   0.00000  Uiso   1.00
H209   H     0.51223   0.88408   0.81250   0.00000  Uiso   1.00
H210   H     0.25059   0.74112   0.82289   0.00000  Uiso   1.00
H211   H     0.38597   0.82402   0.98726   0.00000  Uiso   1.00
H212   H     0.68074   0.94254   0.74479   0.00000  Uiso   1.00
H213   H     0.12903   0.64110   0.76673   0.00000  Uiso   1.00
H214   H     0.41451   0.81591   0.11333   0.00000  Uiso   1.00
H215   H     0.64334   0.64530   0.88188   0.00000  Uiso   1.00
H216   H     0.77959   0.70840   0.82037   0.00000  Uiso   1.00
H217   H     0.51794   0.56544   0.83076   0.00000  Uiso   1.00
H218   H     0.65332   0.64834   0.99513   0.00000  Uiso   1.00
H219   H     0.89773   0.79995   0.75117   0.00000  Uiso   1.00
H220   H     0.34601   0.49851   0.77311   0.00000  Uiso   1.00
H221   H     0.63150   0.67332   0.11971   0.00000  Uiso   1.00
O222   O     0.87427   0.91575   0.70737   0.00000  Uiso   1.00
O223   O     0.15044   0.52027   0.73615   0.00000  Uiso   1.00
O224   O     0.52499   0.74962   0.19089   0.00000  Uiso   1.00
N225   N     0.71312   0.90033   0.75475   0.00000  Uiso   1.00
N226   N     0.19730   0.61850   0.77524   0.00000  Uiso   1.00
N227   N     0.46419   0.78192   0.09929   0.00000  Uiso   1.00
N228   N     0.82988   0.82360   0.75818   0.00000  Uiso   1.00
N229   N     0.31407   0.54178   0.77868   0.00000  Uiso   1.00
N230   N     0.58095   0.70520   0.10273   0.00000  Uiso   1.00
C231   C     0.94797   0.27370   0.87613   0.00000  Uiso   1.00
C232   C     0.04958   0.28985   0.84353   0.00000  Uiso   1.00
C233   C     0.06998   0.34617   0.81419   0.00000  Uiso   1.00
C234   C     0.16771   0.35175   0.78709   0.00000  Uiso   1.00
C235   C     0.31412   0.38427   0.73610   0.00000  Uiso   1.00
C236   C     0.90743   0.21218   0.84917   0.00000  Uiso   1.00
C237   C     0.80829   0.20319   0.82458   0.00000  Uiso   1.00
C238   C     0.78635   0.14338   0.80223   0.00000  Uiso   1.00
C239   C     0.71203   0.05531   0.76004   0.00000  Uiso   1.00
C240   C     0.98099   0.25722   0.93847   0.00000  Uiso   1.00
C241   C     0.94369   0.28610   0.98898   0.00000  Uiso   1.00
C242   C     0.98367   0.26421   0.04182   0.00000  Uiso   1.00
C243   C     0.02357   0.24607   0.13829   0.00000  Uiso   1.00
C244   C     0.08528   0.18346   0.88017   0.00000  Uiso   1.00
C245   C     0.12416   0.24084   0.84572   0.00000  Uiso   1.00
C246   C     0.22189   0.24634   0.81866   0.00000  Uiso   1.00
C247   C     0.24243   0.30265   0.78929   0.00000  Uiso   1.00
C248   C     0.98200   0.16317   0.85136   0.00000  Uiso   1.00
C249   C     0.96020   0.10336   0.82905   0.00000  Uiso   1.00
C250   C     0.86106   0.09428   0.80443   0.00000  Uiso   1.00
C251   C     0.05557   0.20821   0.94067   0.00000  Uiso   1.00
C252   C     0.09561   0.18627   0.99344   0.00000  Uiso   1.00
C253   C     0.05838   0.21511   0.04402   0.00000  Uiso   1.00
H254   H     0.88990   0.31185   0.87443   0.00000  Uiso   1.00
H255   H     0.01223   0.38408   0.81250   0.00000  Uiso   1.00
H256   H     0.75059   0.24112   0.82289   0.00000  Uiso   1.00
H257   H     0.88597   0.32402   0.98726   0.00000  Uiso   1.00
H258   H     0.18074   0.44254   0.74479   0.00000  Uiso   1.00
H259   H     0.62903   0.14110   0.76673   0.00000  Uiso   1.00
H260   H     0.91451   0.31591   0.11333   0.00000  Uiso   1.00
H261   H     0.14334   0.14530   0.88188   0.00000  Uiso   1.00
H262   H     0.27959   0.20840   0.82037   0.00000  Uiso   1.00
H263   H     0.01794   0.06544   0.83076   0.00000  Uiso   1.00
H264   H     0.15332   0.14834   0.99513   0.00000  Uiso   1.00
H265   H     0.39773   0.29995   0.75117   0.00000  Uiso   1.00
H266   H     0.84601   0.99851   0.77311   0.00000  Uiso   1.00
H267   H     0.13150   0.17332   0.11971   0.00000  Uiso   1.00
O268   O     0.37427   0.41575   0.70737   0.00000  Uiso   1.00
O269   O     0.65044   0.02027   0.73615   0.00000  Uiso   1.00
O270   O     0.02499   0.24962   0.19089   0.00000  Uiso   1.00
N271   N     0.21312   0.40033   0.75475   0.00000  Uiso   1.00
N272   N     0.69730   0.11850   0.77524   0.00000  Uiso   1.00
N273   N     0.96419   0.28192   0.09929   0.00000  Uiso   1.00
N274   N     0.32988   0.32360   0.75818   0.00000  Uiso   1.00
N275   N     0.81407   0.04178   0.77868   0.00000  Uiso   1.00
N276   N     0.08095   0.20520   0.10273   0.00000  Uiso   1.00
C277   C     0.55203   0.22630   0.37613   0.00000  Uiso   1.00
C278   C     0.45042   0.21015   0.34353   0.00000  Uiso   1.00
C279   C     0.43002   0.15383   0.31419   0.00000  Uiso   1.00
C280   C     0.33229   0.14825   0.28709   0.00000  Uiso   1.00
C281   C     0.18588   0.11573   0.23610   0.00000  Uiso   1.00
C282   C     0.59257   0.28782   0.34917   0.00000  Uiso   1.00
C283   C     0.69171   0.29681   0.32458   0.00000  Uiso   1.00
C284   C     0.71365   0.35662   0.30223   0.00000  Uiso   1.00
C285   C     0.78797   0.44469   0.26004   0.00000  Uiso   1.00
C286   C     0.51901   0.24278   0.43847   0.00000  Uiso   1.00
C287   C     0.55631   0.21390   0.48898   0.00000  Uiso   1.00
C288   C     0.51633   0.23579   0.54182   0.00000  Uiso   1.00
C289   C     0.47643   0.25393   0.63829   0.00000  Uiso   1.00
C290   C     0.41472   0.31654   0.38017   0.00000  Uiso   1.00
C291   C     0.37584   0.25916   0.34572   0.00000  Uiso   1.00
C292   C     0.27811   0.25366   0.31866   0.00000  Uiso   1.00
C293   C     0.25757   0.19735   0.28929   0.00000  Uiso   1.00
C294   C     0.51800   0.33683   0.35136   0.00000  Uiso   1.00
C295   C     0.53980   0.39664   0.32905   0.00000  Uiso   1.00
C296   C     0.63894   0.40572   0.30443   0.00000  Uiso   1.00
C297   C     0.44443   0.29179   0.44067   0.00000  Uiso   1.00
C298   C     0.40439   0.31373   0.49344   0.00000  Uiso   1.00
C299   C     0.44162   0.28489   0.54402   0.00000  Uiso   1.00
H300   H     0.61010   0.18815   0.37443   0.00000  Uiso   1.00
H301   H     0.48777   0.11592   0.31250   0.00000  Uiso   1.00
H302   H     0.74941   0.25888   0.32289   0.00000  Uiso   1.00
H303   H     0.61403   0.17598   0.48726   0.00000  Uiso   1.00
H304   H     0.31926   0.05746   0.24479   0.00000  Uiso   1.00
H305   H     0.87097   0.35890   0.26673   0.00000  Uiso   1.00
H306   H     0.58549   0.18409   0.61333   0.00000  Uiso   1.00
H307   H     0.35666   0.35470   0.38188   0.00000  Uiso   1.00
H308   H     0.22041   0.29160   0.32037   0.00000  Uiso   1.00
H309   H     0.48206   0.43456   0.33076   0.00000  Uiso   1.00
H310   H     0.34668   0.35166   0.49513   0.00000  Uiso   1.00
H311   H     0.10227   0.20005   0.25117   0.00000  Uiso   1.00
H312   H     0.65399   0.50149   0.27311   0.00000  Uiso   1.00
H313   H     0.36850   0.32668   0.61971   0.00000  Uiso   1.00
O314   O     0.12573   0.08425   0.20737   0.00000  Uiso   1.00
O315   O     0.84956   0.47973   0.23615   0.00000  Uiso   1.00
O316   O     0.47501   0.25038   0.69089   0.00000  Uiso   1.00
N317   N     0.28688   0.09967   0.25475   0.00000  Uiso   1.00
N318   N     0.80270   0.38150   0.27524   0.00000  Uiso   1.00
N319   N     0.53581   0.21808   0.59929   0.00000  Uiso   1.00
N320   N     0.17012   0.17640   0.25818   0.00000  Uiso   1.00
N321   N     0.68593   0.45822   0.27868   0.00000  Uiso   1.00
N322   N     0.41905   0.29480   0.60273   0.00000  Uiso   1.00
C323   C     0.05203   0.72630   0.37613   0.00000  Uiso   1.00
C324   C     0.95042   0.71015   0.34353   0.00000  Uiso   1.00
C325   C     0.93002   0.65383   0.31419   0.00000  Uiso   1.00
C326   C     0.83229   0.64825   0.28709   0.00000  Uiso   1.00
C327   C     0.68588   0.61573   0.23610   0.00000  Uiso   1.00
C328   C     0.09257   0.78782   0.34917   0.00000  Uiso   1.00
C329   C     0.19171   0.79681   0.32458   0.00000  Uiso   1.00
C330   C     0.21365   0.85662   0.30223   0.00000  Uiso   1.00
C331   C     0.28797   0.94469   0.26004   0.00000  Uiso   1.00
C332   C     0.01901   0.74278   0.43847   0.00000  Uiso   1.00
C333   C     0.05631   0.71390   0.48898   0.00000  Uiso   1.00
C334   C     0.01633   0.73579   0.54182   0.00000  Uiso   1.00
C335   C     0.97643   0.75393   0.63829   0.00000  Uiso   1.00
C336   C     0.91472   0.81654   0.38017   0.00000  Uiso   1.00
C337   C     0.87584   0.75916   0.34572   0.00000  Uiso   1.00
C338   C     0.77811   0.75366   0.31866   0.00000  Uiso   1.00
C339   C     0.75757   0.69735   0.28929   0.00000  Uiso   1.00
C340   C     0.01800   0.83683   0.35136   0.00000  Uiso   1.00
C341   C     0.03980   0.89664   0.32905   0.00000  Uiso   1.00
C342   C     0.13894   0.90572   0.30443   0.00000  Uiso   1.00
C343   C     0.94443   0.79179   0.44067   0.00000  Uiso   1.00
C344   C     0.90439   0.81373   0.49344   0.00000  Uiso   1.00
C345   C     0.94162   0.78489   0.54402   0.00000  Uiso   1.00
H346   H     0.11010   0.68815   0.37443   0.00000  Uiso   1.00
H347   H     0.98777   0.61592   0.31250   0.00000  Uiso   1.00
H348   H     0.24941   0.75888   0.32289   0.00000  Uiso   1.00
H349   H     0.11403   0.67598   0.48726   0.00000  Uiso   1.00
H350   H     0.81926   0.55746   0.24479   0.00000  Uiso   1.00
H351   H     0.37097   0.85890   0.26673   0.00000  Uiso   1.00
H352   H     0.08549   0.68409   0.61333   0.00000  Uiso   1.00
H353   H     0.85666   0.85470   0.38188   0.00000  Uiso   1.00
H354   H     0.72041   0.79160   0.32037   0.00000  Uiso   1.00
H355   H     0.98206   0.93456   0.33076   0.00000  Uiso   1.00
H356   H     0.84668   0.85166   0.49513   0.00000  Uiso   1.00
H357   H     0.60227   0.70005   0.25117   0.00000  Uiso   1.00
H358   H     0.15399   0.00149   0.27311   0.00000  Uiso   1.00
H359   H     0.86850   0.82668   0.61971   0.00000  Uiso   1.00
O360   O     0.62573   0.58425   0.20737   0.00000  Uiso   1.00
O361   O     0.34956   0.97973   0.23615   0.00000  Uiso   1.00
O362   O     0.97501   0.75038   0.69089   0.00000  Uiso   1.00
N363   N     0.78688   0.59967   0.25475   0.00000  Uiso   1.00
N364   N     0.30270   0.88150   0.27524   0.00000  Uiso   1.00
N365   N     0.03581   0.71808   0.59929   0.00000  Uiso   1.00
N366   N     0.67012   0.67640   0.25818   0.00000  Uiso   1.00
N367   N     0.18593   0.95822   0.27868   0.00000  Uiso   1.00
N368   N     0.91905   0.79480   0.60273   0.00000  Uiso   1.00
