data_job_02172
_audit_creation_date              2018-12-19
_audit_creation_method            'Materials Studio'
_symmetry_space_group_name_H-M    'P1'
_symmetry_Int_Tables_number       1
_symmetry_cell_setting            triclinic
loop_
_symmetry_equiv_pos_as_xyz
  x,y,z
_cell_length_a                    12.3849
_cell_length_b                    9.7611
_cell_length_c                    31.6510
_cell_angle_alpha                 90.0000
_cell_angle_beta                  124.3920
_cell_angle_gamma                 90.0000
loop_
_atom_site_label
_atom_site_type_symbol
_atom_site_fract_x
_atom_site_fract_y
_atom_site_fract_z
_atom_site_U_iso_or_equiv
_atom_site_adp_type
_atom_site_occupancy
C1     C     0.08489   0.48720   0.28981   0.00000  Uiso   1.00
C2     C     0.02990   0.58484   0.31081   0.00000  Uiso   1.00
C3     C     0.89834   0.61252   0.28844   0.00000  Uiso   1.00
C4     C     0.86804   0.70494   0.31362   0.00000  Uiso   1.00
C5     C     0.76778   0.84711   0.33923   0.00000  Uiso   1.00
C6     C     0.17972   0.57159   0.28418   0.00000  Uiso   1.00
C7     C     0.17412   0.58810   0.23943   0.00000  Uiso   1.00
C8     C     0.26995   0.66936   0.24221   0.00000  Uiso   1.00
C9     C     0.40233   0.79087   0.22650   0.00000  Uiso   1.00
C10    C     0.16851   0.38393   0.33233   0.00000  Uiso   1.00
C11    C     0.15352   0.24266   0.32805   0.00000  Uiso   1.00
C12    C     0.23994   0.16592   0.37135   0.00000  Uiso   1.00
C13    C     0.35492   0.99607   0.43039   0.00000  Uiso   1.00
C14    C     0.26504   0.60212   0.37430   0.00000  Uiso   1.00
C15    C     0.12776   0.64726   0.35670   0.00000  Uiso   1.00
C16    C     0.09765   0.73967   0.38192   0.00000  Uiso   1.00
C17    C     0.96607   0.76747   0.35959   0.00000  Uiso   1.00
C18    C     0.27756   0.63401   0.33008   0.00000  Uiso   1.00
C19    C     0.37343   0.71525   0.33292   0.00000  Uiso   1.00
C20    C     0.36798   0.73189   0.28818   0.00000  Uiso   1.00
C21    C     0.26636   0.44635   0.37822   0.00000  Uiso   1.00
C22    C     0.35283   0.36982   0.42154   0.00000  Uiso   1.00
C23    C     0.33797   0.22845   0.41733   0.00000  Uiso   1.00
H24    H     0.00872   0.43860   0.25407   0.00000  Uiso   1.00
H25    H     0.82265   0.56420   0.25292   0.00000  Uiso   1.00
H26    H     0.09840   0.53977   0.20393   0.00000  Uiso   1.00
H27    H     0.07779   0.19439   0.29253   0.00000  Uiso   1.00
H28    H     0.65951   0.73101   0.27186   0.00000  Uiso   1.00
H29    H     0.24096   0.67947   0.16856   0.00000  Uiso   1.00
H30    H     0.19752   0.95116   0.35541   0.00000  Uiso   1.00
H31    H     0.34122   0.65072   0.41003   0.00000  Uiso   1.00
H32    H     0.17339   0.78796   0.41743   0.00000  Uiso   1.00
H33    H     0.44914   0.76353   0.36844   0.00000  Uiso   1.00
H34    H     0.42854   0.41815   0.45704   0.00000  Uiso   1.00
H35    H     0.94418   0.91263   0.40539   0.00000  Uiso   1.00
H36    H     0.52564   0.86108   0.30209   0.00000  Uiso   1.00
H37    H     0.48220   0.13278   0.48893   0.00000  Uiso   1.00
O38    O     0.68544   0.90830   0.34067   0.00000  Uiso   1.00
O39    O     0.44830   0.84066   0.20515   0.00000  Uiso   1.00
O40    O     0.39130   0.88514   0.45028   0.00000  Uiso   1.00
N41    N     0.74954   0.75490   0.30228   0.00000  Uiso   1.00
N42    N     0.29315   0.70673   0.20570   0.00000  Uiso   1.00
N43    N     0.25256   0.02582   0.38037   0.00000  Uiso   1.00
N44    N     0.90272   0.85262   0.37413   0.00000  Uiso   1.00
N45    N     0.44633   0.80445   0.27755   0.00000  Uiso   1.00
N46    N     0.40574   0.12355   0.45222   0.00000  Uiso   1.00
C47    C     0.91511   0.98720   0.21019   0.00000  Uiso   1.00
C48    C     0.97010   0.08484   0.18919   0.00000  Uiso   1.00
C49    C     0.10166   0.11252   0.21156   0.00000  Uiso   1.00
C50    C     0.13196   0.20494   0.18638   0.00000  Uiso   1.00
C51    C     0.23222   0.34711   0.16077   0.00000  Uiso   1.00
C52    C     0.82028   0.07159   0.21582   0.00000  Uiso   1.00
C53    C     0.82588   0.08810   0.26057   0.00000  Uiso   1.00
C54    C     0.73005   0.16936   0.25779   0.00000  Uiso   1.00
C55    C     0.59767   0.29087   0.27350   0.00000  Uiso   1.00
C56    C     0.83149   0.88393   0.16767   0.00000  Uiso   1.00
C57    C     0.84648   0.74266   0.17195   0.00000  Uiso   1.00
C58    C     0.76006   0.66592   0.12865   0.00000  Uiso   1.00
C59    C     0.64508   0.49607   0.06961   0.00000  Uiso   1.00
C60    C     0.73496   0.10212   0.12570   0.00000  Uiso   1.00
C61    C     0.87224   0.14726   0.14330   0.00000  Uiso   1.00
C62    C     0.90235   0.23967   0.11808   0.00000  Uiso   1.00
C63    C     0.03393   0.26747   0.14041   0.00000  Uiso   1.00
C64    C     0.72244   0.13401   0.16992   0.00000  Uiso   1.00
C65    C     0.62657   0.21525   0.16708   0.00000  Uiso   1.00
C66    C     0.63202   0.23189   0.21182   0.00000  Uiso   1.00
C67    C     0.73364   0.94635   0.12178   0.00000  Uiso   1.00
C68    C     0.64717   0.86982   0.07846   0.00000  Uiso   1.00
C69    C     0.66203   0.72845   0.08267   0.00000  Uiso   1.00
H70    H     0.99128   0.93860   0.24593   0.00000  Uiso   1.00
H71    H     0.17735   0.06420   0.24708   0.00000  Uiso   1.00
H72    H     0.90160   0.03977   0.29607   0.00000  Uiso   1.00
H73    H     0.92221   0.69439   0.20747   0.00000  Uiso   1.00
H74    H     0.34049   0.23101   0.22814   0.00000  Uiso   1.00
H75    H     0.75904   0.17947   0.33144   0.00000  Uiso   1.00
H76    H     0.80248   0.45116   0.14459   0.00000  Uiso   1.00
H77    H     0.65878   0.15072   0.08997   0.00000  Uiso   1.00
H78    H     0.82661   0.28796   0.08257   0.00000  Uiso   1.00
H79    H     0.55086   0.26353   0.13156   0.00000  Uiso   1.00
H80    H     0.57146   0.91815   0.04296   0.00000  Uiso   1.00
H81    H     0.05582   0.41263   0.09461   0.00000  Uiso   1.00
H82    H     0.47436   0.36108   0.19791   0.00000  Uiso   1.00
H83    H     0.51780   0.63278   0.01107   0.00000  Uiso   1.00
O84    O     0.31456   0.40830   0.15933   0.00000  Uiso   1.00
O85    O     0.55170   0.34066   0.29485   0.00000  Uiso   1.00
O86    O     0.60870   0.38514   0.04972   0.00000  Uiso   1.00
N87    N     0.25046   0.25490   0.19772   0.00000  Uiso   1.00
N88    N     0.70685   0.20673   0.29430   0.00000  Uiso   1.00
N89    N     0.74744   0.52582   0.11963   0.00000  Uiso   1.00
N90    N     0.09728   0.35262   0.12587   0.00000  Uiso   1.00
N91    N     0.55367   0.30445   0.22245   0.00000  Uiso   1.00
N92    N     0.59426   0.62355   0.04778   0.00000  Uiso   1.00
C93    C     0.91511   0.51280   0.71019   0.00000  Uiso   1.00
C94    C     0.97010   0.41516   0.68919   0.00000  Uiso   1.00
C95    C     0.10166   0.38748   0.71156   0.00000  Uiso   1.00
C96    C     0.13196   0.29506   0.68638   0.00000  Uiso   1.00
C97    C     0.23222   0.15289   0.66077   0.00000  Uiso   1.00
C98    C     0.82028   0.42841   0.71582   0.00000  Uiso   1.00
C99    C     0.82588   0.41190   0.76057   0.00000  Uiso   1.00
C100   C     0.73005   0.33064   0.75779   0.00000  Uiso   1.00
C101   C     0.59767   0.20913   0.77350   0.00000  Uiso   1.00
C102   C     0.83149   0.61607   0.66767   0.00000  Uiso   1.00
C103   C     0.84648   0.75734   0.67195   0.00000  Uiso   1.00
C104   C     0.76006   0.83408   0.62865   0.00000  Uiso   1.00
C105   C     0.64508   0.00393   0.56961   0.00000  Uiso   1.00
C106   C     0.73496   0.39788   0.62570   0.00000  Uiso   1.00
C107   C     0.87224   0.35274   0.64330   0.00000  Uiso   1.00
C108   C     0.90235   0.26033   0.61808   0.00000  Uiso   1.00
C109   C     0.03393   0.23253   0.64041   0.00000  Uiso   1.00
C110   C     0.72244   0.36599   0.66992   0.00000  Uiso   1.00
C111   C     0.62657   0.28475   0.66708   0.00000  Uiso   1.00
C112   C     0.63202   0.26811   0.71182   0.00000  Uiso   1.00
C113   C     0.73364   0.55365   0.62178   0.00000  Uiso   1.00
C114   C     0.64717   0.63018   0.57846   0.00000  Uiso   1.00
C115   C     0.66203   0.77155   0.58267   0.00000  Uiso   1.00
H116   H     0.99128   0.56140   0.74593   0.00000  Uiso   1.00
H117   H     0.17735   0.43580   0.74708   0.00000  Uiso   1.00
H118   H     0.90160   0.46023   0.79607   0.00000  Uiso   1.00
H119   H     0.92221   0.80561   0.70747   0.00000  Uiso   1.00
H120   H     0.34049   0.26899   0.72814   0.00000  Uiso   1.00
H121   H     0.75904   0.32053   0.83144   0.00000  Uiso   1.00
H122   H     0.80248   0.04884   0.64459   0.00000  Uiso   1.00
H123   H     0.65878   0.34928   0.58997   0.00000  Uiso   1.00
H124   H     0.82661   0.21204   0.58257   0.00000  Uiso   1.00
H125   H     0.55086   0.23647   0.63156   0.00000  Uiso   1.00
H126   H     0.57146   0.58185   0.54296   0.00000  Uiso   1.00
H127   H     0.05582   0.08737   0.59461   0.00000  Uiso   1.00
H128   H     0.47436   0.13892   0.69791   0.00000  Uiso   1.00
H129   H     0.51780   0.86722   0.51107   0.00000  Uiso   1.00
O130   O     0.31456   0.09170   0.65933   0.00000  Uiso   1.00
O131   O     0.55170   0.15934   0.79485   0.00000  Uiso   1.00
O132   O     0.60870   0.11486   0.54972   0.00000  Uiso   1.00
N133   N     0.25046   0.24510   0.69772   0.00000  Uiso   1.00
N134   N     0.70685   0.29327   0.79430   0.00000  Uiso   1.00
N135   N     0.74744   0.97418   0.61963   0.00000  Uiso   1.00
N136   N     0.09728   0.14738   0.62587   0.00000  Uiso   1.00
N137   N     0.55367   0.19555   0.72245   0.00000  Uiso   1.00
N138   N     0.59426   0.87645   0.54778   0.00000  Uiso   1.00
C139   C     0.08489   0.01280   0.78981   0.00000  Uiso   1.00
C140   C     0.02990   0.91516   0.81081   0.00000  Uiso   1.00
C141   C     0.89834   0.88748   0.78844   0.00000  Uiso   1.00
C142   C     0.86804   0.79506   0.81362   0.00000  Uiso   1.00
C143   C     0.76778   0.65289   0.83923   0.00000  Uiso   1.00
C144   C     0.17972   0.92841   0.78418   0.00000  Uiso   1.00
C145   C     0.17412   0.91190   0.73943   0.00000  Uiso   1.00
C146   C     0.26995   0.83064   0.74221   0.00000  Uiso   1.00
C147   C     0.40233   0.70913   0.72650   0.00000  Uiso   1.00
C148   C     0.16851   0.11607   0.83233   0.00000  Uiso   1.00
C149   C     0.15352   0.25734   0.82805   0.00000  Uiso   1.00
C150   C     0.23994   0.33408   0.87135   0.00000  Uiso   1.00
C151   C     0.35492   0.50393   0.93039   0.00000  Uiso   1.00
C152   C     0.26504   0.89788   0.87430   0.00000  Uiso   1.00
C153   C     0.12776   0.85274   0.85670   0.00000  Uiso   1.00
C154   C     0.09765   0.76033   0.88192   0.00000  Uiso   1.00
C155   C     0.96607   0.73253   0.85959   0.00000  Uiso   1.00
C156   C     0.27756   0.86599   0.83008   0.00000  Uiso   1.00
C157   C     0.37343   0.78475   0.83292   0.00000  Uiso   1.00
C158   C     0.36798   0.76811   0.78818   0.00000  Uiso   1.00
C159   C     0.26636   0.05365   0.87822   0.00000  Uiso   1.00
C160   C     0.35283   0.13018   0.92154   0.00000  Uiso   1.00
C161   C     0.33797   0.27155   0.91733   0.00000  Uiso   1.00
H162   H     0.00872   0.06140   0.75407   0.00000  Uiso   1.00
H163   H     0.82265   0.93580   0.75292   0.00000  Uiso   1.00
H164   H     0.09840   0.96023   0.70393   0.00000  Uiso   1.00
H165   H     0.07779   0.30561   0.79253   0.00000  Uiso   1.00
H166   H     0.65951   0.76899   0.77186   0.00000  Uiso   1.00
H167   H     0.24096   0.82053   0.66856   0.00000  Uiso   1.00
H168   H     0.19752   0.54884   0.85541   0.00000  Uiso   1.00
H169   H     0.34122   0.84928   0.91003   0.00000  Uiso   1.00
H170   H     0.17339   0.71204   0.91743   0.00000  Uiso   1.00
H171   H     0.44914   0.73647   0.86844   0.00000  Uiso   1.00
H172   H     0.42854   0.08185   0.95704   0.00000  Uiso   1.00
H173   H     0.94418   0.58737   0.90539   0.00000  Uiso   1.00
H174   H     0.52564   0.63892   0.80209   0.00000  Uiso   1.00
H175   H     0.48220   0.36722   0.98893   0.00000  Uiso   1.00
O176   O     0.68544   0.59170   0.84067   0.00000  Uiso   1.00
O177   O     0.44830   0.65934   0.70515   0.00000  Uiso   1.00
O178   O     0.39130   0.61486   0.95028   0.00000  Uiso   1.00
N179   N     0.74954   0.74510   0.80228   0.00000  Uiso   1.00
N180   N     0.29315   0.79327   0.70570   0.00000  Uiso   1.00
N181   N     0.25256   0.47418   0.88037   0.00000  Uiso   1.00
N182   N     0.90272   0.64738   0.87413   0.00000  Uiso   1.00
N183   N     0.44633   0.69555   0.77755   0.00000  Uiso   1.00
N184   N     0.40574   0.37645   0.95222   0.00000  Uiso   1.00
