data_job_05297
_audit_creation_date              2018-12-19
_audit_creation_method            'Materials Studio'
_symmetry_space_group_name_H-M    'P1'
_symmetry_Int_Tables_number       1
_symmetry_cell_setting            triclinic
loop_
_symmetry_equiv_pos_as_xyz
  x,y,z
_cell_length_a                    26.9579
_cell_length_b                    20.1532
_cell_length_c                    26.7064
_cell_angle_alpha                 90.0000
_cell_angle_beta                  153.0038
_cell_angle_gamma                 90.0000
loop_
_atom_site_label
_atom_site_type_symbol
_atom_site_fract_x
_atom_site_fract_y
_atom_site_fract_z
_atom_site_U_iso_or_equiv
_atom_site_adp_type
_atom_site_occupancy
C1     C     0.27309   0.53998   0.37719   0.00000  Uiso   1.00
C2     C     0.36558   0.53004   0.49791   0.00000  Uiso   1.00
C3     C     0.41825   0.57995   0.57173   0.00000  Uiso   1.00
C4     C     0.50084   0.56066   0.67855   0.00000  Uiso   1.00
C5     C     0.64012   0.55540   0.86118   0.00000  Uiso   1.00
C6     C     0.31161   0.50821   0.36311   0.00000  Uiso   1.00
C7     C     0.31889   0.53977   0.32359   0.00000  Uiso   1.00
C8     C     0.35603   0.50210   0.31693   0.00000  Uiso   1.00
C9     C     0.41145   0.46293   0.29021   0.00000  Uiso   1.00
C10    C     0.17840   0.49739   0.31060   0.00000  Uiso   1.00
C11    C     0.07366   0.51984   0.22689   0.00000  Uiso   1.00
C12    C     0.99864   0.47305   0.17600   0.00000  Uiso   1.00
C13    C     0.84721   0.41709   0.06774   0.00000  Uiso   1.00
C14    C     0.32609   0.41698   0.43562   0.00000  Uiso   1.00
C15    C     0.39437   0.46323   0.52964   0.00000  Uiso   1.00
C16    C     0.47689   0.44387   0.63638   0.00000  Uiso   1.00
C17    C     0.52968   0.49374   0.71035   0.00000  Uiso   1.00
C18    C     0.34040   0.44141   0.39485   0.00000  Uiso   1.00
C19    C     0.37753   0.40368   0.38824   0.00000  Uiso   1.00
C20    C     0.38487   0.43517   0.34873   0.00000  Uiso   1.00
C21    C     0.20719   0.43058   0.34233   0.00000  Uiso   1.00
C22    C     0.13231   0.38375   0.29155   0.00000  Uiso   1.00
C23    C     0.02748   0.40613   0.20779   0.00000  Uiso   1.00
H24    H     0.25067   0.59199   0.35248   0.00000  Uiso   1.00
H25    H     0.39596   0.63164   0.54714   0.00000  Uiso   1.00
H26    H     0.29660   0.59146   0.29903   0.00000  Uiso   1.00
H27    H     0.05141   0.57154   0.20235   0.00000  Uiso   1.00
H28    H     0.56975   0.64615   0.77696   0.00000  Uiso   1.00
H29    H     0.36021   0.56142   0.25377   0.00000  Uiso   1.00
H30    H     0.84318   0.51941   0.04991   0.00000  Uiso   1.00
H31    H     0.34850   0.36497   0.46033   0.00000  Uiso   1.00
H32    H     0.49916   0.39216   0.66091   0.00000  Uiso   1.00
H33    H     0.39980   0.35199   0.41280   0.00000  Uiso   1.00
H34    H     0.15461   0.33206   0.31613   0.00000  Uiso   1.00
H35    H     0.65352   0.45178   0.86931   0.00000  Uiso   1.00
H36    H     0.44397   0.36705   0.34611   0.00000  Uiso   1.00
H37    H     0.92695   0.32504   0.14226   0.00000  Uiso   1.00
O38    O     0.70900   0.57095   0.95315   0.00000  Uiso   1.00
O39    O     0.43407   0.45979   0.26672   0.00000  Uiso   1.00
O40    O     0.75575   0.40467   0.99927   0.00000  Uiso   1.00
N41    N     0.56877   0.59667   0.77116   0.00000  Uiso   1.00
N42    N     0.37289   0.51746   0.28203   0.00000  Uiso   1.00
N43    N     0.88950   0.47817   0.09141   0.00000  Uiso   1.00
N44    N     0.61385   0.49208   0.82085   0.00000  Uiso   1.00
N45    N     0.41796   0.41287   0.33172   0.00000  Uiso   1.00
N46    N     0.93457   0.37359   0.14111   0.00000  Uiso   1.00
C47    C     0.90973   0.02949   0.99185   0.00000  Uiso   1.00
C48    C     0.00381   0.01888   0.11305   0.00000  Uiso   1.00
C49    C     0.05777   0.06832   0.18798   0.00000  Uiso   1.00
C50    C     0.14171   0.04845   0.29508   0.00000  Uiso   1.00
C51    C     0.28344   0.04216   0.47857   0.00000  Uiso   1.00
C52    C     0.94603   0.99845   0.97515   0.00000  Uiso   1.00
C53    C     0.95139   0.03072   0.93412   0.00000  Uiso   1.00
C54    C     0.98667   0.99365   0.92512   0.00000  Uiso   1.00
C55    C     0.03861   0.95563   0.89445   0.00000  Uiso   1.00
C56    C     0.81574   0.98670   0.92637   0.00000  Uiso   1.00
C57    C     0.71155   0.00908   0.84431   0.00000  Uiso   1.00
C58    C     0.63713   0.96212   0.79423   0.00000  Uiso   1.00
C59    C     0.48679   0.90586   0.68783   0.00000  Uiso   1.00
C60    C     0.96283   0.90628   0.04879   0.00000  Uiso   1.00
C61    C     0.03265   0.95196   0.14397   0.00000  Uiso   1.00
C62    C     0.11652   0.93201   0.25098   0.00000  Uiso   1.00
C63    C     0.17060   0.98141   0.32606   0.00000  Uiso   1.00
C64    C     0.97487   0.93153   0.00607   0.00000  Uiso   1.00
C65    C     0.01014   0.89440   0.99712   0.00000  Uiso   1.00
C66    C     0.01556   0.92660   0.95610   0.00000  Uiso   1.00
C67    C     0.84458   0.91978   0.95730   0.00000  Uiso   1.00
C68    C     0.77030   0.87277   0.90732   0.00000  Uiso   1.00
C69    C     0.66602   0.89507   0.82521   0.00000  Uiso   1.00
H70    H     0.88727   0.08159   0.96777   0.00000  Uiso   1.00
H71    H     0.03543   0.12011   0.16402   0.00000  Uiso   1.00
H72    H     0.92905   0.08250   0.91019   0.00000  Uiso   1.00
H73    H     0.68926   0.06087   0.82040   0.00000  Uiso   1.00
H74    H     0.21244   0.13330   0.39525   0.00000  Uiso   1.00
H75    H     0.98810   0.05401   0.86000   0.00000  Uiso   1.00
H76    H     0.48244   0.00840   0.67066   0.00000  Uiso   1.00
H77    H     0.98528   0.85418   0.07286   0.00000  Uiso   1.00
H78    H     0.13882   0.88022   0.27489   0.00000  Uiso   1.00
H79    H     0.03244   0.84262   0.02106   0.00000  Uiso   1.00
H80    H     0.79265   0.82099   0.93127   0.00000  Uiso   1.00
H81    H     0.29636   0.93859   0.48523   0.00000  Uiso   1.00
H82    H     0.07201   0.85931   0.94998   0.00000  Uiso   1.00
H83    H     0.56636   0.81369   0.76065   0.00000  Uiso   1.00
O84    O     0.35366   0.05718   0.57125   0.00000  Uiso   1.00
O85    O     0.05931   0.95315   0.86901   0.00000  Uiso   1.00
O86    O     0.39591   0.89331   0.62061   0.00000  Uiso   1.00
N87    N     0.21111   0.08390   0.38869   0.00000  Uiso   1.00
N88    N     0.00138   0.00977   0.88829   0.00000  Uiso   1.00
N89    N     0.52862   0.96713   0.71125   0.00000  Uiso   1.00
N90    N     0.25626   0.97913   0.43712   0.00000  Uiso   1.00
N91    N     0.04653   0.90500   0.93671   0.00000  Uiso   1.00
N92    N     0.57377   0.86236   0.75967   0.00000  Uiso   1.00
C93    C     0.72857   0.34982   0.11719   0.00000  Uiso   1.00
C94    C     0.63334   0.33918   0.99559   0.00000  Uiso   1.00
C95    C     0.57865   0.38859   0.92028   0.00000  Uiso   1.00
C96    C     0.49371   0.36870   0.81286   0.00000  Uiso   1.00
C97    C     0.35023   0.36236   0.62874   0.00000  Uiso   1.00
C98    C     0.69376   0.31892   0.13550   0.00000  Uiso   1.00
C99    C     0.68988   0.35131   0.17784   0.00000  Uiso   1.00
C100   C     0.65581   0.31436   0.18820   0.00000  Uiso   1.00
C101   C     0.60621   0.27656   0.22137   0.00000  Uiso   1.00
C102   C     0.82188   0.30692   0.18150   0.00000  Uiso   1.00
C103   C     0.92574   0.32920   0.26255   0.00000  Uiso   1.00
C104   C     0.99955   0.28214   0.31166   0.00000  Uiso   1.00
C105   C     0.14887   0.22572   0.41625   0.00000  Uiso   1.00
C106   C     0.67497   0.22662   0.06032   0.00000  Uiso   1.00
C107   C     0.60423   0.27227   0.96471   0.00000  Uiso   1.00
C108   C     0.51935   0.25229   0.85737   0.00000  Uiso   1.00
C109   C     0.46454   0.30166   0.78192   0.00000  Uiso   1.00
C110   C     0.66465   0.25201   0.10461   0.00000  Uiso   1.00
C111   C     0.63058   0.21501   0.11493   0.00000  Uiso   1.00
C112   C     0.62664   0.24732   0.15726   0.00000  Uiso   1.00
C113   C     0.79277   0.24001   0.15061   0.00000  Uiso   1.00
C114   C     0.86643   0.19290   0.19962   0.00000  Uiso   1.00
C115   C     0.97038   0.21511   0.28072   0.00000  Uiso   1.00
H116   H     0.75123   0.40191   0.14123   0.00000  Uiso   1.00
H117   H     0.60120   0.44037   0.94422   0.00000  Uiso   1.00
H118   H     0.71242   0.40309   0.20174   0.00000  Uiso   1.00
H119   H     0.94823   0.38099   0.28643   0.00000  Uiso   1.00
H120   H     0.42199   0.45350   0.71215   0.00000  Uiso   1.00
H121   H     0.65655   0.37488   0.25520   0.00000  Uiso   1.00
H122   H     0.15381   0.32828   0.43378   0.00000  Uiso   1.00
H123   H     0.65231   0.17453   0.03628   0.00000  Uiso   1.00
H124   H     0.49684   0.20051   0.83349   0.00000  Uiso   1.00
H125   H     0.60807   0.16322   0.09102   0.00000  Uiso   1.00
H126   H     0.84388   0.14113   0.17570   0.00000  Uiso   1.00
H127   H     0.33728   0.25882   0.62228   0.00000  Uiso   1.00
H128   H     0.57185   0.18020   0.16534   0.00000  Uiso   1.00
H129   H     0.06911   0.13360   0.34391   0.00000  Uiso   1.00
O130   O     0.27913   0.37736   0.53571   0.00000  Uiso   1.00
O131   O     0.58688   0.27421   0.24818   0.00000  Uiso   1.00
O132   O     0.23927   0.21308   0.48246   0.00000  Uiso   1.00
N133   N     0.42340   0.40412   0.71884   0.00000  Uiso   1.00
N134   N     0.64269   0.33061   0.22654   0.00000  Uiso   1.00
N135   N     0.10759   0.28705   0.39351   0.00000  Uiso   1.00
N136   N     0.37783   0.29936   0.67048   0.00000  Uiso   1.00
N137   N     0.59711   0.22586   0.17818   0.00000  Uiso   1.00
N138   N     0.06202   0.18229   0.34515   0.00000  Uiso   1.00
C139   C     0.35150   0.86316   0.71853   0.00000  Uiso   1.00
C140   C     0.25918   0.85255   0.59798   0.00000  Uiso   1.00
C141   C     0.20591   0.90204   0.52343   0.00000  Uiso   1.00
C142   C     0.12360   0.88216   0.41691   0.00000  Uiso   1.00
C143   C     0.98446   0.87588   0.23440   0.00000  Uiso   1.00
C144   C     0.31332   0.83154   0.73302   0.00000  Uiso   1.00
C145   C     0.30559   0.86336   0.77202   0.00000  Uiso   1.00
C146   C     0.26887   0.82579   0.77919   0.00000  Uiso   1.00
C147   C     0.21387   0.78687   0.80641   0.00000  Uiso   1.00
C148   C     0.44674   0.82089   0.78579   0.00000  Uiso   1.00
C149   C     0.55121   0.84375   0.86920   0.00000  Uiso   1.00
C150   C     0.62683   0.79721   0.92082   0.00000  Uiso   1.00
C151   C     0.77898   0.74176   0.02998   0.00000  Uiso   1.00
C152   C     0.30005   0.73985   0.66194   0.00000  Uiso   1.00
C153   C     0.23123   0.78558   0.56724   0.00000  Uiso   1.00
C154   C     0.14899   0.76562   0.46082   0.00000  Uiso   1.00
C155   C     0.09561   0.81507   0.38612   0.00000  Uiso   1.00
C156   C     0.28537   0.76457   0.70228   0.00000  Uiso   1.00
C157   C     0.24866   0.72694   0.70941   0.00000  Uiso   1.00
C158   C     0.24088   0.75869   0.74840   0.00000  Uiso   1.00
C159   C     0.41879   0.75391   0.75506   0.00000  Uiso   1.00
C160   C     0.49428   0.70733   0.80658   0.00000  Uiso   1.00
C161   C     0.59883   0.73011   0.89003   0.00000  Uiso   1.00
H162   H     0.37326   0.91530   0.74246   0.00000  Uiso   1.00
H163   H     0.22756   0.95387   0.54724   0.00000  Uiso   1.00
H164   H     0.32723   0.91519   0.79581   0.00000  Uiso   1.00
H165   H     0.57280   0.89558   0.89296   0.00000  Uiso   1.00
H166   H     0.05367   0.96709   0.31725   0.00000  Uiso   1.00
H167   H     0.26388   0.88553   0.84139   0.00000  Uiso   1.00
H168   H     0.78172   0.84418   0.04626   0.00000  Uiso   1.00
H169   H     0.27829   0.68771   0.63801   0.00000  Uiso   1.00
H170   H     0.12738   0.71378   0.43705   0.00000  Uiso   1.00
H171   H     0.22705   0.67511   0.68562   0.00000  Uiso   1.00
H172   H     0.47262   0.65550   0.78277   0.00000  Uiso   1.00
H173   H     0.97236   0.77223   0.22781   0.00000  Uiso   1.00
H174   H     0.18257   0.69067   0.75197   0.00000  Uiso   1.00
H175   H     0.70040   0.64932   0.95682   0.00000  Uiso   1.00
O176   O     0.91543   0.89092   0.14221   0.00000  Uiso   1.00
O177   O     0.19123   0.78391   0.82990   0.00000  Uiso   1.00
O178   O     0.87062   0.72967   0.09866   0.00000  Uiso   1.00
N179   N     0.05526   0.91765   0.32378   0.00000  Uiso   1.00
N180   N     0.25177   0.84140   0.81381   0.00000  Uiso   1.00
N181   N     0.73592   0.80274   0.00536   0.00000  Uiso   1.00
N182   N     0.01150   0.81280   0.27566   0.00000  Uiso   1.00
N183   N     0.20802   0.73654   0.76569   0.00000  Uiso   1.00
N184   N     0.69216   0.69789   0.95724   0.00000  Uiso   1.00
C185   C     0.27309   0.46002   0.87719   0.00000  Uiso   1.00
C186   C     0.36558   0.46996   0.99791   0.00000  Uiso   1.00
C187   C     0.41825   0.42005   0.07173   0.00000  Uiso   1.00
C188   C     0.50084   0.43934   0.17855   0.00000  Uiso   1.00
C189   C     0.64012   0.44460   0.36118   0.00000  Uiso   1.00
C190   C     0.31161   0.49179   0.86311   0.00000  Uiso   1.00
C191   C     0.31889   0.46023   0.82359   0.00000  Uiso   1.00
C192   C     0.35603   0.49790   0.81693   0.00000  Uiso   1.00
C193   C     0.41145   0.53707   0.79021   0.00000  Uiso   1.00
C194   C     0.17840   0.50261   0.81060   0.00000  Uiso   1.00
C195   C     0.07366   0.48016   0.72689   0.00000  Uiso   1.00
C196   C     0.99864   0.52695   0.67600   0.00000  Uiso   1.00
C197   C     0.84721   0.58291   0.56774   0.00000  Uiso   1.00
C198   C     0.32609   0.58302   0.93562   0.00000  Uiso   1.00
C199   C     0.39437   0.53677   0.02964   0.00000  Uiso   1.00
C200   C     0.47689   0.55613   0.13638   0.00000  Uiso   1.00
C201   C     0.52968   0.50626   0.21035   0.00000  Uiso   1.00
C202   C     0.34040   0.55859   0.89485   0.00000  Uiso   1.00
C203   C     0.37753   0.59632   0.88824   0.00000  Uiso   1.00
C204   C     0.38487   0.56483   0.84873   0.00000  Uiso   1.00
C205   C     0.20719   0.56942   0.84233   0.00000  Uiso   1.00
C206   C     0.13231   0.61625   0.79155   0.00000  Uiso   1.00
C207   C     0.02748   0.59387   0.70779   0.00000  Uiso   1.00
H208   H     0.25067   0.40801   0.85248   0.00000  Uiso   1.00
H209   H     0.39596   0.36836   0.04714   0.00000  Uiso   1.00
H210   H     0.29660   0.40854   0.79903   0.00000  Uiso   1.00
H211   H     0.05141   0.42846   0.70235   0.00000  Uiso   1.00
H212   H     0.56975   0.35385   0.27696   0.00000  Uiso   1.00
H213   H     0.36021   0.43858   0.75377   0.00000  Uiso   1.00
H214   H     0.84318   0.48059   0.54991   0.00000  Uiso   1.00
H215   H     0.34850   0.63503   0.96033   0.00000  Uiso   1.00
H216   H     0.49916   0.60784   0.16091   0.00000  Uiso   1.00
H217   H     0.39980   0.64801   0.91280   0.00000  Uiso   1.00
H218   H     0.15461   0.66794   0.81613   0.00000  Uiso   1.00
H219   H     0.65352   0.54822   0.36931   0.00000  Uiso   1.00
H220   H     0.44397   0.63295   0.84611   0.00000  Uiso   1.00
H221   H     0.92695   0.67496   0.64226   0.00000  Uiso   1.00
O222   O     0.70900   0.42905   0.45315   0.00000  Uiso   1.00
O223   O     0.43407   0.54021   0.76672   0.00000  Uiso   1.00
O224   O     0.75575   0.59533   0.49927   0.00000  Uiso   1.00
N225   N     0.56877   0.40333   0.27116   0.00000  Uiso   1.00
N226   N     0.37289   0.48254   0.78203   0.00000  Uiso   1.00
N227   N     0.88950   0.52183   0.59141   0.00000  Uiso   1.00
N228   N     0.61385   0.50792   0.32085   0.00000  Uiso   1.00
N229   N     0.41796   0.58713   0.83172   0.00000  Uiso   1.00
N230   N     0.93457   0.62641   0.64111   0.00000  Uiso   1.00
C231   C     0.90973   0.97051   0.49185   0.00000  Uiso   1.00
C232   C     0.00381   0.98112   0.61305   0.00000  Uiso   1.00
C233   C     0.05777   0.93168   0.68798   0.00000  Uiso   1.00
C234   C     0.14171   0.95155   0.79508   0.00000  Uiso   1.00
C235   C     0.28344   0.95784   0.97857   0.00000  Uiso   1.00
C236   C     0.94603   0.00155   0.47515   0.00000  Uiso   1.00
C237   C     0.95139   0.96928   0.43412   0.00000  Uiso   1.00
C238   C     0.98667   0.00635   0.42512   0.00000  Uiso   1.00
C239   C     0.03861   0.04437   0.39445   0.00000  Uiso   1.00
C240   C     0.81574   0.01330   0.42637   0.00000  Uiso   1.00
C241   C     0.71155   0.99092   0.34431   0.00000  Uiso   1.00
C242   C     0.63713   0.03788   0.29423   0.00000  Uiso   1.00
C243   C     0.48679   0.09414   0.18783   0.00000  Uiso   1.00
C244   C     0.96283   0.09372   0.54879   0.00000  Uiso   1.00
C245   C     0.03265   0.04804   0.64397   0.00000  Uiso   1.00
C246   C     0.11652   0.06799   0.75098   0.00000  Uiso   1.00
C247   C     0.17060   0.01859   0.82606   0.00000  Uiso   1.00
C248   C     0.97487   0.06847   0.50607   0.00000  Uiso   1.00
C249   C     0.01014   0.10560   0.49712   0.00000  Uiso   1.00
C250   C     0.01556   0.07340   0.45610   0.00000  Uiso   1.00
C251   C     0.84458   0.08022   0.45730   0.00000  Uiso   1.00
C252   C     0.77030   0.12723   0.40732   0.00000  Uiso   1.00
C253   C     0.66602   0.10493   0.32521   0.00000  Uiso   1.00
H254   H     0.88727   0.91841   0.46777   0.00000  Uiso   1.00
H255   H     0.03543   0.87989   0.66402   0.00000  Uiso   1.00
H256   H     0.92905   0.91750   0.41019   0.00000  Uiso   1.00
H257   H     0.68926   0.93913   0.32040   0.00000  Uiso   1.00
H258   H     0.21244   0.86670   0.89525   0.00000  Uiso   1.00
H259   H     0.98810   0.94599   0.36000   0.00000  Uiso   1.00
H260   H     0.48244   0.99160   0.17066   0.00000  Uiso   1.00
H261   H     0.98528   0.14582   0.57286   0.00000  Uiso   1.00
H262   H     0.13882   0.11978   0.77489   0.00000  Uiso   1.00
H263   H     0.03244   0.15738   0.52106   0.00000  Uiso   1.00
H264   H     0.79265   0.17901   0.43127   0.00000  Uiso   1.00
H265   H     0.29636   0.06141   0.98523   0.00000  Uiso   1.00
H266   H     0.07201   0.14069   0.44998   0.00000  Uiso   1.00
H267   H     0.56636   0.18631   0.26065   0.00000  Uiso   1.00
O268   O     0.35366   0.94282   0.07125   0.00000  Uiso   1.00
O269   O     0.05931   0.04685   0.36901   0.00000  Uiso   1.00
O270   O     0.39591   0.10669   0.12061   0.00000  Uiso   1.00
N271   N     0.21111   0.91610   0.88869   0.00000  Uiso   1.00
N272   N     0.00138   0.99023   0.38829   0.00000  Uiso   1.00
N273   N     0.52862   0.03287   0.21125   0.00000  Uiso   1.00
N274   N     0.25626   0.02087   0.93712   0.00000  Uiso   1.00
N275   N     0.04653   0.09500   0.43671   0.00000  Uiso   1.00
N276   N     0.57377   0.13764   0.25967   0.00000  Uiso   1.00
C277   C     0.72857   0.65018   0.61719   0.00000  Uiso   1.00
C278   C     0.63334   0.66082   0.49559   0.00000  Uiso   1.00
C279   C     0.57865   0.61141   0.42028   0.00000  Uiso   1.00
C280   C     0.49371   0.63130   0.31286   0.00000  Uiso   1.00
C281   C     0.35023   0.63764   0.12874   0.00000  Uiso   1.00
C282   C     0.69376   0.68108   0.63550   0.00000  Uiso   1.00
C283   C     0.68988   0.64869   0.67784   0.00000  Uiso   1.00
C284   C     0.65581   0.68564   0.68820   0.00000  Uiso   1.00
C285   C     0.60621   0.72344   0.72137   0.00000  Uiso   1.00
C286   C     0.82188   0.69308   0.68150   0.00000  Uiso   1.00
C287   C     0.92574   0.67080   0.76255   0.00000  Uiso   1.00
C288   C     0.99955   0.71786   0.81166   0.00000  Uiso   1.00
C289   C     0.14887   0.77428   0.91625   0.00000  Uiso   1.00
C290   C     0.67497   0.77338   0.56032   0.00000  Uiso   1.00
C291   C     0.60423   0.72773   0.46471   0.00000  Uiso   1.00
C292   C     0.51935   0.74771   0.35737   0.00000  Uiso   1.00
C293   C     0.46454   0.69834   0.28192   0.00000  Uiso   1.00
C294   C     0.66465   0.74799   0.60461   0.00000  Uiso   1.00
C295   C     0.63058   0.78499   0.61493   0.00000  Uiso   1.00
C296   C     0.62664   0.75268   0.65726   0.00000  Uiso   1.00
C297   C     0.79277   0.75999   0.65061   0.00000  Uiso   1.00
C298   C     0.86643   0.80710   0.69962   0.00000  Uiso   1.00
C299   C     0.97038   0.78489   0.78072   0.00000  Uiso   1.00
H300   H     0.75123   0.59809   0.64123   0.00000  Uiso   1.00
H301   H     0.60120   0.55963   0.44422   0.00000  Uiso   1.00
H302   H     0.71242   0.59691   0.70174   0.00000  Uiso   1.00
H303   H     0.94823   0.61901   0.78643   0.00000  Uiso   1.00
H304   H     0.42199   0.54650   0.21215   0.00000  Uiso   1.00
H305   H     0.65655   0.62512   0.75520   0.00000  Uiso   1.00
H306   H     0.15381   0.67172   0.93378   0.00000  Uiso   1.00
H307   H     0.65231   0.82547   0.53628   0.00000  Uiso   1.00
H308   H     0.49684   0.79949   0.33349   0.00000  Uiso   1.00
H309   H     0.60807   0.83678   0.59102   0.00000  Uiso   1.00
H310   H     0.84388   0.85887   0.67570   0.00000  Uiso   1.00
H311   H     0.33728   0.74118   0.12228   0.00000  Uiso   1.00
H312   H     0.57185   0.81980   0.66534   0.00000  Uiso   1.00
H313   H     0.06911   0.86640   0.84391   0.00000  Uiso   1.00
O314   O     0.27913   0.62264   0.03571   0.00000  Uiso   1.00
O315   O     0.58688   0.72579   0.74818   0.00000  Uiso   1.00
O316   O     0.23927   0.78692   0.98246   0.00000  Uiso   1.00
N317   N     0.42340   0.59588   0.21884   0.00000  Uiso   1.00
N318   N     0.64269   0.66939   0.72654   0.00000  Uiso   1.00
N319   N     0.10759   0.71295   0.89351   0.00000  Uiso   1.00
N320   N     0.37783   0.70064   0.17048   0.00000  Uiso   1.00
N321   N     0.59711   0.77414   0.67818   0.00000  Uiso   1.00
N322   N     0.06202   0.81771   0.84515   0.00000  Uiso   1.00
C323   C     0.35150   0.13684   0.21853   0.00000  Uiso   1.00
C324   C     0.25918   0.14745   0.09798   0.00000  Uiso   1.00
C325   C     0.20591   0.09796   0.02343   0.00000  Uiso   1.00
C326   C     0.12360   0.11784   0.91691   0.00000  Uiso   1.00
C327   C     0.98446   0.12412   0.73440   0.00000  Uiso   1.00
C328   C     0.31332   0.16846   0.23302   0.00000  Uiso   1.00
C329   C     0.30559   0.13664   0.27202   0.00000  Uiso   1.00
C330   C     0.26887   0.17421   0.27919   0.00000  Uiso   1.00
C331   C     0.21387   0.21313   0.30641   0.00000  Uiso   1.00
C332   C     0.44674   0.17911   0.28579   0.00000  Uiso   1.00
C333   C     0.55121   0.15625   0.36920   0.00000  Uiso   1.00
C334   C     0.62683   0.20279   0.42082   0.00000  Uiso   1.00
C335   C     0.77898   0.25824   0.52998   0.00000  Uiso   1.00
C336   C     0.30005   0.26015   0.16194   0.00000  Uiso   1.00
C337   C     0.23123   0.21442   0.06724   0.00000  Uiso   1.00
C338   C     0.14899   0.23438   0.96082   0.00000  Uiso   1.00
C339   C     0.09561   0.18493   0.88612   0.00000  Uiso   1.00
C340   C     0.28537   0.23543   0.20228   0.00000  Uiso   1.00
C341   C     0.24866   0.27306   0.20941   0.00000  Uiso   1.00
C342   C     0.24088   0.24131   0.24840   0.00000  Uiso   1.00
C343   C     0.41879   0.24609   0.25506   0.00000  Uiso   1.00
C344   C     0.49428   0.29267   0.30658   0.00000  Uiso   1.00
C345   C     0.59883   0.26989   0.39003   0.00000  Uiso   1.00
H346   H     0.37326   0.08470   0.24246   0.00000  Uiso   1.00
H347   H     0.22756   0.04613   0.04724   0.00000  Uiso   1.00
H348   H     0.32723   0.08481   0.29581   0.00000  Uiso   1.00
H349   H     0.57280   0.10442   0.39296   0.00000  Uiso   1.00
H350   H     0.05367   0.03291   0.81725   0.00000  Uiso   1.00
H351   H     0.26388   0.11447   0.34139   0.00000  Uiso   1.00
H352   H     0.78172   0.15582   0.54626   0.00000  Uiso   1.00
H353   H     0.27829   0.31229   0.13801   0.00000  Uiso   1.00
H354   H     0.12738   0.28622   0.93705   0.00000  Uiso   1.00
H355   H     0.22705   0.32489   0.18562   0.00000  Uiso   1.00
H356   H     0.47262   0.34450   0.28277   0.00000  Uiso   1.00
H357   H     0.97236   0.22777   0.72781   0.00000  Uiso   1.00
H358   H     0.18257   0.30933   0.25197   0.00000  Uiso   1.00
H359   H     0.70040   0.35068   0.45682   0.00000  Uiso   1.00
O360   O     0.91543   0.10908   0.64221   0.00000  Uiso   1.00
O361   O     0.19123   0.21609   0.32990   0.00000  Uiso   1.00
O362   O     0.87062   0.27033   0.59866   0.00000  Uiso   1.00
N363   N     0.05526   0.08235   0.82378   0.00000  Uiso   1.00
N364   N     0.25177   0.15860   0.31381   0.00000  Uiso   1.00
N365   N     0.73592   0.19726   0.50536   0.00000  Uiso   1.00
N366   N     0.01150   0.18720   0.77566   0.00000  Uiso   1.00
N367   N     0.20802   0.26346   0.26569   0.00000  Uiso   1.00
N368   N     0.69216   0.30211   0.45724   0.00000  Uiso   1.00
