data_job_06892
_audit_creation_date              2018-12-19
_audit_creation_method            'Materials Studio'
_symmetry_space_group_name_H-M    'P1'
_symmetry_Int_Tables_number       1
_symmetry_cell_setting            triclinic
loop_
_symmetry_equiv_pos_as_xyz
  x,y,z
_cell_length_a                    23.1795
_cell_length_b                    23.7930
_cell_length_c                    17.7710
_cell_angle_alpha                 72.8222
_cell_angle_beta                  70.1601
_cell_angle_gamma                 70.9662
loop_
_atom_site_label
_atom_site_type_symbol
_atom_site_fract_x
_atom_site_fract_y
_atom_site_fract_z
_atom_site_U_iso_or_equiv
_atom_site_adp_type
_atom_site_occupancy
C1     C     0.46031   0.29189   0.87235   0.00000  Uiso   1.00
C2     C     0.42961   0.35761   0.83829   0.00000  Uiso   1.00
C3     C     0.46137   0.39969   0.78254   0.00000  Uiso   1.00
C4     C     0.42473   0.45749   0.75895   0.00000  Uiso   1.00
C5     C     0.38710   0.55724   0.70135   0.00000  Uiso   1.00
C6     C     0.43921   0.28436   0.96514   0.00000  Uiso   1.00
C7     C     0.47905   0.26486   0.01605   0.00000  Uiso   1.00
C8     C     0.45049   0.26100   0.09924   0.00000  Uiso   1.00
C9     C     0.42777   0.24700   0.23859   0.00000  Uiso   1.00
C10    C     0.42882   0.25276   0.85287   0.00000  Uiso   1.00
C11    C     0.45992   0.20666   0.80940   0.00000  Uiso   1.00
C12    C     0.42260   0.17617   0.79809   0.00000  Uiso   1.00
C13    C     0.38374   0.11310   0.76312   0.00000  Uiso   1.00
C14    C     0.33876   0.31970   0.92959   0.00000  Uiso   1.00
C15    C     0.36358   0.37271   0.86938   0.00000  Uiso   1.00
C16    C     0.32688   0.43046   0.84587   0.00000  Uiso   1.00
C17    C     0.35858   0.47262   0.79009   0.00000  Uiso   1.00
C18    C     0.37319   0.29947   0.99623   0.00000  Uiso   1.00
C19    C     0.34456   0.29563   0.07937   0.00000  Uiso   1.00
C20    C     0.38435   0.27613   0.13039   0.00000  Uiso   1.00
C21    C     0.36279   0.26786   0.88396   0.00000  Uiso   1.00
C22    C     0.32543   0.23743   0.87272   0.00000  Uiso   1.00
C23    C     0.35646   0.19131   0.82924   0.00000  Uiso   1.00
H24    H     0.51172   0.28013   0.84815   0.00000  Uiso   1.00
H25    H     0.51247   0.38798   0.75850   0.00000  Uiso   1.00
H26    H     0.53014   0.25317   0.99197   0.00000  Uiso   1.00
H27    H     0.51101   0.19498   0.78535   0.00000  Uiso   1.00
H28    H     0.48419   0.51423   0.67283   0.00000  Uiso   1.00
H29    H     0.52146   0.22995   0.16512   0.00000  Uiso   1.00
H30    H     0.48111   0.10725   0.72942   0.00000  Uiso   1.00
H31    H     0.28735   0.33146   0.95380   0.00000  Uiso   1.00
H32    H     0.27579   0.44214   0.86994   0.00000  Uiso   1.00
H33    H     0.29347   0.30732   0.10341   0.00000  Uiso   1.00
H34    H     0.27433   0.24914   0.89679   0.00000  Uiso   1.00
H35    H     0.29209   0.55818   0.76328   0.00000  Uiso   1.00
H36    H     0.32936   0.27389   0.25557   0.00000  Uiso   1.00
H37    H     0.28901   0.15120   0.81987   0.00000  Uiso   1.00
O38    O     0.38458   0.60809   0.66101   0.00000  Uiso   1.00
O39    O     0.43348   0.23511   0.30687   0.00000  Uiso   1.00
O40    O     0.38055   0.07414   0.73524   0.00000  Uiso   1.00
N41    N     0.44056   0.50938   0.70562   0.00000  Uiso   1.00
N42    N     0.47541   0.24360   0.16588   0.00000  Uiso   1.00
N43    N     0.43769   0.12888   0.75855   0.00000  Uiso   1.00
N44    N     0.33720   0.53303   0.75429   0.00000  Uiso   1.00
N45    N     0.37204   0.26725   0.21454   0.00000  Uiso   1.00
N46    N     0.33432   0.15253   0.80722   0.00000  Uiso   1.00
C47    C     0.87713   0.33679   0.25008   0.00000  Uiso   1.00
C48    C     0.81519   0.33613   0.31719   0.00000  Uiso   1.00
C49    C     0.79576   0.36166   0.38538   0.00000  Uiso   1.00
C50    C     0.73750   0.35621   0.43969   0.00000  Uiso   1.00
C51    C     0.64703   0.35971   0.54597   0.00000  Uiso   1.00
C52    C     0.91039   0.27048   0.24597   0.00000  Uiso   1.00
C53    C     0.97101   0.24081   0.25425   0.00000  Uiso   1.00
C54    C     0.99288   0.18009   0.24859   0.00000  Uiso   1.00
C55    C     0.05023   0.08168   0.24423   0.00000  Uiso   1.00
C56    C     0.85859   0.36600   0.17008   0.00000  Uiso   1.00
C57    C     0.87566   0.41665   0.11454   0.00000  Uiso   1.00
C58    C     0.85394   0.43635   0.04498   0.00000  Uiso   1.00
C59    C     0.83086   0.48626   0.92279   0.00000  Uiso   1.00
C60    C     0.80822   0.28171   0.22527   0.00000  Uiso   1.00
C61    C     0.77776   0.30621   0.30372   0.00000  Uiso   1.00
C62    C     0.71952   0.30072   0.35794   0.00000  Uiso   1.00
C63    C     0.70000   0.32624   0.42619   0.00000  Uiso   1.00
C64    C     0.87296   0.24056   0.23249   0.00000  Uiso   1.00
C65    C     0.89476   0.17987   0.22681   0.00000  Uiso   1.00
C66    C     0.95539   0.15012   0.23509   0.00000  Uiso   1.00
C67    C     0.82116   0.33609   0.15660   0.00000  Uiso   1.00
C68    C     0.79941   0.35572   0.08711   0.00000  Uiso   1.00
C69    C     0.81644   0.40638   0.03148   0.00000  Uiso   1.00
H70    H     0.90628   0.36007   0.26056   0.00000  Uiso   1.00
H71    H     0.82475   0.38480   0.39579   0.00000  Uiso   1.00
H72    H     0.99996   0.26397   0.26467   0.00000  Uiso   1.00
H73    H     0.90463   0.43979   0.12499   0.00000  Uiso   1.00
H74    H     0.71786   0.39900   0.53978   0.00000  Uiso   1.00
H75    H     0.08732   0.14423   0.26329   0.00000  Uiso   1.00
H76    H     0.88630   0.51497   0.96874   0.00000  Uiso   1.00
H77    H     0.77908   0.25842   0.21478   0.00000  Uiso   1.00
H78    H     0.69056   0.27757   0.34750   0.00000  Uiso   1.00
H79    H     0.86578   0.15674   0.21638   0.00000  Uiso   1.00
H80    H     0.77045   0.33255   0.07670   0.00000  Uiso   1.00
H81    H     0.60895   0.31197   0.50059   0.00000  Uiso   1.00
H82    H     0.97841   0.05720   0.22409   0.00000  Uiso   1.00
H83    H     0.77739   0.42794   0.92955   0.00000  Uiso   1.00
O84    O     0.60748   0.36990   0.60833   0.00000  Uiso   1.00
O85    O     0.09220   0.03566   0.24556   0.00000  Uiso   1.00
O86    O     0.82846   0.52206   0.85912   0.00000  Uiso   1.00
N87    N     0.70437   0.37590   0.51233   0.00000  Uiso   1.00
N88    N     0.04979   0.13770   0.25384   0.00000  Uiso   1.00
N89    N     0.86186   0.48431   0.97845   0.00000  Uiso   1.00
N90    N     0.64576   0.32907   0.49125   0.00000  Uiso   1.00
N91    N     0.99118   0.09087   0.23275   0.00000  Uiso   1.00
N92    N     0.80326   0.43747   0.95736   0.00000  Uiso   1.00
C93    C     0.36534   0.82302   0.42082   0.00000  Uiso   1.00
C94    C     0.41775   0.76813   0.39551   0.00000  Uiso   1.00
C95    C     0.48011   0.75466   0.39792   0.00000  Uiso   1.00
C96    C     0.52082   0.70232   0.37216   0.00000  Uiso   1.00
C97    C     0.60540   0.62280   0.33695   0.00000  Uiso   1.00
C98    C     0.33956   0.85605   0.34671   0.00000  Uiso   1.00
C99    C     0.33618   0.91651   0.30810   0.00000  Uiso   1.00
C100   C     0.31106   0.93819   0.24126   0.00000  Uiso   1.00
C101   C     0.27421   0.99519   0.13034   0.00000  Uiso   1.00
C102   C     0.31223   0.79761   0.48594   0.00000  Uiso   1.00
C103   C     0.28585   0.80895   0.56439   0.00000  Uiso   1.00
C104   C     0.23770   0.78143   0.61477   0.00000  Uiso   1.00
C105   C     0.15842   0.74769   0.72002   0.00000  Uiso   1.00
C106   C     0.32672   0.75403   0.37078   0.00000  Uiso   1.00
C107   C     0.39677   0.73066   0.36833   0.00000  Uiso   1.00
C108   C     0.43739   0.67832   0.34256   0.00000  Uiso   1.00
C109   C     0.49980   0.66478   0.34493   0.00000  Uiso   1.00
C110   C     0.31859   0.81858   0.31953   0.00000  Uiso   1.00
C111   C     0.29346   0.84018   0.25274   0.00000  Uiso   1.00
C112   C     0.29004   0.90065   0.21404   0.00000  Uiso   1.00
C113   C     0.29126   0.76014   0.45877   0.00000  Uiso   1.00
C114   C     0.24313   0.73261   0.50903   0.00000  Uiso   1.00
C115   C     0.21669   0.74389   0.58754   0.00000  Uiso   1.00
H116   H     0.38167   0.85220   0.44197   0.00000  Uiso   1.00
H117   H     0.49633   0.78367   0.41895   0.00000  Uiso   1.00
H118   H     0.35241   0.94550   0.32915   0.00000  Uiso   1.00
H119   H     0.30210   0.83795   0.58540   0.00000  Uiso   1.00
H120   H     0.61421   0.69118   0.38141   0.00000  Uiso   1.00
H121   H     0.31074   0.03241   0.19208   0.00000  Uiso   1.00
H122   H     0.20463   0.80562   0.73243   0.00000  Uiso   1.00
H123   H     0.31039   0.72486   0.34962   0.00000  Uiso   1.00
H124   H     0.42114   0.64933   0.32153   0.00000  Uiso   1.00
H125   H     0.27723   0.81117   0.23173   0.00000  Uiso   1.00
H126   H     0.22691   0.70361   0.48798   0.00000  Uiso   1.00
H127   H     0.55319   0.58215   0.30234   0.00000  Uiso   1.00
H128   H     0.24971   0.92338   0.11301   0.00000  Uiso   1.00
H129   H     0.14361   0.69658   0.65336   0.00000  Uiso   1.00
O130   O     0.65785   0.58929   0.32503   0.00000  Uiso   1.00
O131   O     0.25969   0.03698   0.07665   0.00000  Uiso   1.00
O132   O     0.12049   0.73943   0.78558   0.00000  Uiso   1.00
N133   N     0.58465   0.67588   0.36667   0.00000  Uiso   1.00
N134   N     0.30093   0.99491   0.18965   0.00000  Uiso   1.00
N135   N     0.20172   0.78289   0.69483   0.00000  Uiso   1.00
N136   N     0.55181   0.61721   0.32412   0.00000  Uiso   1.00
N137   N     0.26809   0.93624   0.14710   0.00000  Uiso   1.00
N138   N     0.16888   0.72421   0.65228   0.00000  Uiso   1.00
C139   C     0.86349   0.35601   0.77470   0.00000  Uiso   1.00
C140   C     0.86089   0.29568   0.83541   0.00000  Uiso   1.00
C141   C     0.86832   0.28156   0.91367   0.00000  Uiso   1.00
C142   C     0.86431   0.22392   0.95968   0.00000  Uiso   1.00
C143   C     0.86191   0.13664   0.05870   0.00000  Uiso   1.00
C144   C     0.80093   0.37883   0.75159   0.00000  Uiso   1.00
C145   C     0.75797   0.43463   0.75936   0.00000  Uiso   1.00
C146   C     0.70350   0.44699   0.73479   0.00000  Uiso   1.00
C147   C     0.60804   0.48882   0.70362   0.00000  Uiso   1.00
C148   C     0.91471   0.34056   0.69774   0.00000  Uiso   1.00
C149   C     0.96740   0.36419   0.66023   0.00000  Uiso   1.00
C150   C     0.00871   0.34432   0.59032   0.00000  Uiso   1.00
C151   C     0.08990   0.32673   0.47555   0.00000  Uiso   1.00
C152   C     0.84315   0.27873   0.71724   0.00000  Uiso   1.00
C153   C     0.84983   0.25371   0.80419   0.00000  Uiso   1.00
C154   C     0.84581   0.19606   0.85009   0.00000  Uiso   1.00
C155   C     0.85324   0.18186   0.92841   0.00000  Uiso   1.00
C156   C     0.78988   0.33686   0.72037   0.00000  Uiso   1.00
C157   C     0.73546   0.34914   0.69578   0.00000  Uiso   1.00
C158   C     0.69242   0.40494   0.70352   0.00000  Uiso   1.00
C159   C     0.90366   0.29858   0.66653   0.00000  Uiso   1.00
C160   C     0.94489   0.27869   0.59666   0.00000  Uiso   1.00
C161   C     0.99763   0.30228   0.55905   0.00000  Uiso   1.00
H162   H     0.87209   0.38869   0.79900   0.00000  Uiso   1.00
H163   H     0.87687   0.31406   0.93781   0.00000  Uiso   1.00
H164   H     0.76654   0.46711   0.78351   0.00000  Uiso   1.00
H165   H     0.97594   0.39667   0.68440   0.00000  Uiso   1.00
H166   H     0.87727   0.21282   0.07794   0.00000  Uiso   1.00
H167   H     0.64464   0.53554   0.75258   0.00000  Uiso   1.00
H168   H     0.08619   0.38700   0.54358   0.00000  Uiso   1.00
H169   H     0.83454   0.24605   0.69294   0.00000  Uiso   1.00
H170   H     0.83726   0.16359   0.82592   0.00000  Uiso   1.00
H171   H     0.72692   0.31665   0.67163   0.00000  Uiso   1.00
H172   H     0.93632   0.24620   0.57252   0.00000  Uiso   1.00
H173   H     0.84511   0.09070   0.98713   0.00000  Uiso   1.00
H174   H     0.61249   0.41342   0.66176   0.00000  Uiso   1.00
H175   H     0.05404   0.26488   0.45278   0.00000  Uiso   1.00
O176   O     0.86363   0.10009   0.12194   0.00000  Uiso   1.00
O177   O     0.55844   0.52350   0.69506   0.00000  Uiso   1.00
O178   O     0.13775   0.32862   0.42087   0.00000  Uiso   1.00
N179   N     0.86934   0.19539   0.03831   0.00000  Uiso   1.00
N180   N     0.65184   0.49711   0.73413   0.00000  Uiso   1.00
N181   N     0.06465   0.35825   0.53873   0.00000  Uiso   1.00
N182   N     0.85204   0.12967   0.98945   0.00000  Uiso   1.00
N183   N     0.63454   0.43140   0.68526   0.00000  Uiso   1.00
N184   N     0.04735   0.29254   0.48986   0.00000  Uiso   1.00
C185   C     0.38267   0.69137   0.97315   0.00000  Uiso   1.00
C186   C     0.31665   0.71015   0.96027   0.00000  Uiso   1.00
C187   C     0.26165   0.74017   0.00981   0.00000  Uiso   1.00
C188   C     0.20598   0.75332   0.98764   0.00000  Uiso   1.00
C189   C     0.10355   0.78499   0.97816   0.00000  Uiso   1.00
C190   C     0.42463   0.72038   0.89437   0.00000  Uiso   1.00
C191   C     0.46044   0.75901   0.88850   0.00000  Uiso   1.00
C192   C     0.49567   0.78077   0.81086   0.00000  Uiso   1.00
C193   C     0.56093   0.82829   0.69907   0.00000  Uiso   1.00
C194   C     0.40599   0.62300   0.97746   0.00000  Uiso   1.00
C195   C     0.42613   0.57974   0.04144   0.00000  Uiso   1.00
C196   C     0.44568   0.51950   0.03375   0.00000  Uiso   1.00
C197   C     0.48199   0.41582   0.05096   0.00000  Uiso   1.00
C198   C     0.38158   0.66134   0.84570   0.00000  Uiso   1.00
C199   C     0.31606   0.69384   0.89105   0.00000  Uiso   1.00
C200   C     0.26045   0.70694   0.86880   0.00000  Uiso   1.00
C201   C     0.20538   0.73698   0.91830   0.00000  Uiso   1.00
C202   C     0.42404   0.70407   0.82515   0.00000  Uiso   1.00
C203   C     0.45923   0.72578   0.74749   0.00000  Uiso   1.00
C204   C     0.49507   0.76443   0.74151   0.00000  Uiso   1.00
C205   C     0.40540   0.60669   0.90824   0.00000  Uiso   1.00
C206   C     0.42492   0.54651   0.90044   0.00000  Uiso   1.00
C207   C     0.44509   0.50316   0.96440   0.00000  Uiso   1.00
H208   H     0.38314   0.70407   0.02704   0.00000  Uiso   1.00
H209   H     0.26213   0.75279   0.06337   0.00000  Uiso   1.00
H210   H     0.46089   0.77162   0.94209   0.00000  Uiso   1.00
H211   H     0.42659   0.59238   0.09500   0.00000  Uiso   1.00
H212   H     0.12772   0.79963   0.07311   0.00000  Uiso   1.00
H213   H     0.54683   0.83931   0.81737   0.00000  Uiso   1.00
H214   H     0.47450   0.46135   0.13983   0.00000  Uiso   1.00
H215   H     0.38112   0.64864   0.79180   0.00000  Uiso   1.00
H216   H     0.26000   0.69432   0.81523   0.00000  Uiso   1.00
H217   H     0.45876   0.71315   0.69394   0.00000  Uiso   1.00
H218   H     0.42446   0.53390   0.84686   0.00000  Uiso   1.00
H219   H     0.12599   0.75217   0.87170   0.00000  Uiso   1.00
H220   H     0.54510   0.79186   0.61596   0.00000  Uiso   1.00
H221   H     0.47277   0.41389   0.93842   0.00000  Uiso   1.00
O222   O     0.04722   0.80697   0.99204   0.00000  Uiso   1.00
O223   O     0.59708   0.85902   0.65653   0.00000  Uiso   1.00
O224   O     0.50218   0.36314   0.07959   0.00000  Uiso   1.00
N225   N     0.14393   0.78218   0.02250   0.00000  Uiso   1.00
N226   N     0.53577   0.81929   0.78340   0.00000  Uiso   1.00
N227   N     0.46816   0.46593   0.08486   0.00000  Uiso   1.00
N228   N     0.14301   0.75665   0.91412   0.00000  Uiso   1.00
N229   N     0.53484   0.79376   0.67502   0.00000  Uiso   1.00
N230   N     0.46723   0.44039   0.97649   0.00000  Uiso   1.00
C231   C     0.77496   0.77963   0.42320   0.00000  Uiso   1.00
C232   C     0.83204   0.79176   0.35224   0.00000  Uiso   1.00
C233   C     0.88416   0.80529   0.35775   0.00000  Uiso   1.00
C234   C     0.93145   0.81486   0.28580   0.00000  Uiso   1.00
C235   C     0.02081   0.83424   0.18700   0.00000  Uiso   1.00
C236   C     0.76985   0.71718   0.42387   0.00000  Uiso   1.00
C237   C     0.76968   0.66801   0.48961   0.00000  Uiso   1.00
C238   C     0.76461   0.61481   0.47796   0.00000  Uiso   1.00
C239   C     0.75738   0.51842   0.49039   0.00000  Uiso   1.00
C240   C     0.71701   0.82511   0.39919   0.00000  Uiso   1.00
C241   C     0.67240   0.86669   0.44420   0.00000  Uiso   1.00
C242   C     0.62283   0.90434   0.41178   0.00000  Uiso   1.00
C243   C     0.53357   0.97554   0.38589   0.00000  Uiso   1.00
C244   C     0.76623   0.77257   0.28561   0.00000  Uiso   1.00
C245   C     0.82730   0.78792   0.27751   0.00000  Uiso   1.00
C246   C     0.87451   0.79747   0.20553   0.00000  Uiso   1.00
C247   C     0.92670   0.81102   0.21093   0.00000  Uiso   1.00
C248   C     0.76511   0.71334   0.34914   0.00000  Uiso   1.00
C249   C     0.76003   0.66020   0.33739   0.00000  Uiso   1.00
C250   C     0.75986   0.61096   0.40310   0.00000  Uiso   1.00
C251   C     0.71227   0.82128   0.32446   0.00000  Uiso   1.00
C252   C     0.66276   0.85887   0.29197   0.00000  Uiso   1.00
C253   C     0.61809   0.90050   0.33692   0.00000  Uiso   1.00
H254   H     0.77864   0.78261   0.48138   0.00000  Uiso   1.00
H255   H     0.88782   0.80825   0.41560   0.00000  Uiso   1.00
H256   H     0.77334   0.67099   0.54744   0.00000  Uiso   1.00
H257   H     0.67609   0.86964   0.50203   0.00000  Uiso   1.00
H258   H     0.00677   0.83495   0.30971   0.00000  Uiso   1.00
H259   H     0.76538   0.54555   0.58772   0.00000  Uiso   1.00
H260   H     0.56029   0.96444   0.49196   0.00000  Uiso   1.00
H261   H     0.76254   0.76958   0.22743   0.00000  Uiso   1.00
H262   H     0.87083   0.79450   0.14771   0.00000  Uiso   1.00
H263   H     0.75636   0.65725   0.27955   0.00000  Uiso   1.00
H264   H     0.65910   0.85589   0.23414   0.00000  Uiso   1.00
H265   H     0.99299   0.82379   0.09229   0.00000  Uiso   1.00
H266   H     0.75159   0.53440   0.37030   0.00000  Uiso   1.00
H267   H     0.54651   0.95328   0.27454   0.00000  Uiso   1.00
O268   O     0.07142   0.84598   0.15314   0.00000  Uiso   1.00
O269   O     0.75471   0.46631   0.51789   0.00000  Uiso   1.00
O270   O     0.48564   0.01587   0.39225   0.00000  Uiso   1.00
N271   N     0.98866   0.82892   0.26948   0.00000  Uiso   1.00
N272   N     0.76298   0.55835   0.52940   0.00000  Uiso   1.00
N273   N     0.57123   0.94995   0.43988   0.00000  Uiso   1.00
N274   N     0.98125   0.82291   0.15248   0.00000  Uiso   1.00
N275   N     0.75557   0.55234   0.41240   0.00000  Uiso   1.00
N276   N     0.56382   0.94395   0.32289   0.00000  Uiso   1.00
C277   C     0.53417   0.63877   0.08726   0.00000  Uiso   1.00
C278   C     0.55543   0.58051   0.14679   0.00000  Uiso   1.00
C279   C     0.51882   0.54024   0.19511   0.00000  Uiso   1.00
C280   C     0.54694   0.48956   0.24554   0.00000  Uiso   1.00
C281   C     0.57046   0.40060   0.33763   0.00000  Uiso   1.00
C282   C     0.58188   0.63334   0.00431   0.00000  Uiso   1.00
C283   C     0.56748   0.63748   0.93284   0.00000  Uiso   1.00
C284   C     0.61787   0.63127   0.86333   0.00000  Uiso   1.00
C285   C     0.68244   0.62437   0.73422   0.00000  Uiso   1.00
C286   C     0.54405   0.68986   0.11316   0.00000  Uiso   1.00
C287   C     0.49786   0.74153   0.13319   0.00000  Uiso   1.00
C288   C     0.51640   0.78292   0.15530   0.00000  Uiso   1.00
C289   C     0.52224   0.86377   0.19520   0.00000  Uiso   1.00
C290   C     0.64923   0.62038   0.09088   0.00000  Uiso   1.00
C291   C     0.61793   0.57053   0.14875   0.00000  Uiso   1.00
C292   C     0.64612   0.51990   0.19912   0.00000  Uiso   1.00
C293   C     0.60955   0.47955   0.24751   0.00000  Uiso   1.00
C294   C     0.64437   0.62335   0.00627   0.00000  Uiso   1.00
C295   C     0.69479   0.61714   0.93685   0.00000  Uiso   1.00
C296   C     0.68048   0.62127   0.86530   0.00000  Uiso   1.00
C297   C     0.60655   0.67987   0.11513   0.00000  Uiso   1.00
C298   C     0.62516   0.72119   0.13720   0.00000  Uiso   1.00
C299   C     0.57901   0.77291   0.15727   0.00000  Uiso   1.00
H300   H     0.48551   0.64655   0.08573   0.00000  Uiso   1.00
H301   H     0.47045   0.54798   0.19357   0.00000  Uiso   1.00
H302   H     0.51912   0.64522   0.93134   0.00000  Uiso   1.00
H303   H     0.44950   0.74925   0.13167   0.00000  Uiso   1.00
H304   H     0.48133   0.43429   0.31397   0.00000  Uiso   1.00
H305   H     0.58393   0.63933   0.76105   0.00000  Uiso   1.00
H306   H     0.43713   0.85870   0.18347   0.00000  Uiso   1.00
H307   H     0.69789   0.61261   0.09241   0.00000  Uiso   1.00
H308   H     0.69448   0.51218   0.20062   0.00000  Uiso   1.00
H309   H     0.74314   0.60941   0.93839   0.00000  Uiso   1.00
H310   H     0.67353   0.71344   0.13872   0.00000  Uiso   1.00
H311   H     0.66316   0.40523   0.31970   0.00000  Uiso   1.00
H312   H     0.76576   0.61028   0.76677   0.00000  Uiso   1.00
H313   H     0.61897   0.82964   0.18919   0.00000  Uiso   1.00
O314   O     0.56618   0.35429   0.38788   0.00000  Uiso   1.00
O315   O     0.70078   0.62332   0.66246   0.00000  Uiso   1.00
O316   O     0.50819   0.91112   0.21667   0.00000  Uiso   1.00
N317   N     0.52458   0.44124   0.30048   0.00000  Uiso   1.00
N318   N     0.62051   0.63293   0.78353   0.00000  Uiso   1.00
N319   N     0.48327   0.83803   0.17844   0.00000  Uiso   1.00
N320   N     0.62243   0.42560   0.30356   0.00000  Uiso   1.00
N321   N     0.71835   0.61730   0.78661   0.00000  Uiso   1.00
N322   N     0.58112   0.82240   0.18152   0.00000  Uiso   1.00
C323   C     0.13466   0.46867   0.75435   0.00000  Uiso   1.00
C324   C     0.18914   0.49249   0.69012   0.00000  Uiso   1.00
C325   C     0.23061   0.46575   0.62564   0.00000  Uiso   1.00
C326   C     0.27728   0.49459   0.57353   0.00000  Uiso   1.00
C327   C     0.36110   0.52344   0.47194   0.00000  Uiso   1.00
C328   C     0.07513   0.52037   0.75113   0.00000  Uiso   1.00
C329   C     0.02075   0.51707   0.73795   0.00000  Uiso   1.00
C330   C     0.97145   0.56938   0.73720   0.00000  Uiso   1.00
C331   C     0.87826   0.64150   0.73039   0.00000  Uiso   1.00
C332   C     0.14596   0.46081   0.83695   0.00000  Uiso   1.00
C333   C     0.15111   0.40743   0.89595   0.00000  Uiso   1.00
C334   C     0.16143   0.40959   0.96746   0.00000  Uiso   1.00
C335   C     0.17821   0.38924   0.09390   0.00000  Uiso   1.00
C336   C     0.14380   0.56743   0.77646   0.00000  Uiso   1.00
C337   C     0.19410   0.54614   0.70213   0.00000  Uiso   1.00
C338   C     0.24073   0.57502   0.65010   0.00000  Uiso   1.00
C339   C     0.28226   0.54832   0.58556   0.00000  Uiso   1.00
C340   C     0.08010   0.57402   0.76313   0.00000  Uiso   1.00
C341   C     0.03087   0.62634   0.76241   0.00000  Uiso   1.00
C342   C     0.97642   0.62312   0.74923   0.00000  Uiso   1.00
C343   C     0.15093   0.51445   0.84896   0.00000  Uiso   1.00
C344   C     0.16123   0.51670   0.92040   0.00000  Uiso   1.00
C345   C     0.16640   0.46333   0.97949   0.00000  Uiso   1.00
H346   H     0.13078   0.42690   0.74501   0.00000  Uiso   1.00
H347   H     0.22674   0.42424   0.61637   0.00000  Uiso   1.00
H348   H     0.01691   0.47555   0.72867   0.00000  Uiso   1.00
H349   H     0.14726   0.36593   0.88663   0.00000  Uiso   1.00
H350   H     0.33531   0.44496   0.47903   0.00000  Uiso   1.00
H351   H     0.89286   0.55314   0.71585   0.00000  Uiso   1.00
H352   H     0.16772   0.32198   0.04895   0.00000  Uiso   1.00
H353   H     0.14767   0.60919   0.78581   0.00000  Uiso   1.00
H354   H     0.24456   0.61653   0.65941   0.00000  Uiso   1.00
H355   H     0.03473   0.66784   0.77171   0.00000  Uiso   1.00
H356   H     0.16508   0.55822   0.92967   0.00000  Uiso   1.00
H357   H     0.34977   0.60103   0.51396   0.00000  Uiso   1.00
H358   H     0.90732   0.70921   0.75078   0.00000  Uiso   1.00
H359   H     0.18218   0.47805   0.08388   0.00000  Uiso   1.00
O360   O     0.40596   0.52454   0.41259   0.00000  Uiso   1.00
O361   O     0.82548   0.66647   0.72331   0.00000  Uiso   1.00
O362   O     0.18610   0.36319   0.16032   0.00000  Uiso   1.00
N363   N     0.32542   0.48068   0.50461   0.00000  Uiso   1.00
N364   N     0.91177   0.58182   0.72600   0.00000  Uiso   1.00
N365   N     0.16872   0.36571   0.03743   0.00000  Uiso   1.00
N366   N     0.33321   0.56466   0.52340   0.00000  Uiso   1.00
N367   N     0.91955   0.66580   0.74480   0.00000  Uiso   1.00
N368   N     0.17650   0.44969   0.05623   0.00000  Uiso   1.00
C369   C     0.63845   0.12978   0.52468   0.00000  Uiso   1.00
C370   C     0.58179   0.18501   0.52508   0.00000  Uiso   1.00
C371   C     0.54687   0.20727   0.46798   0.00000  Uiso   1.00
C372   C     0.49677   0.25829   0.47909   0.00000  Uiso   1.00
C373   C     0.41099   0.33982   0.46970   0.00000  Uiso   1.00
C374   C     0.62213   0.08709   0.60736   0.00000  Uiso   1.00
C375   C     0.62115   0.02702   0.61943   0.00000  Uiso   1.00
C376   C     0.60502   0.99561   0.69981   0.00000  Uiso   1.00
C377   C     0.58191   0.92510   0.81817   0.00000  Uiso   1.00
C378   C     0.69302   0.15221   0.52473   0.00000  Uiso   1.00
C379   C     0.75164   0.14687   0.46733   0.00000  Uiso   1.00
C380   C     0.79520   0.17027   0.47814   0.00000  Uiso   1.00
C381   C     0.88215   0.20086   0.46820   0.00000  Uiso   1.00
C382   C     0.61158   0.18081   0.64596   0.00000  Uiso   1.00
C383   C     0.56719   0.21272   0.59096   0.00000  Uiso   1.00
C384   C     0.51713   0.26372   0.60215   0.00000  Uiso   1.00
C385   C     0.48215   0.28606   0.54507   0.00000  Uiso   1.00
C386   C     0.60753   0.11480   0.67323   0.00000  Uiso   1.00
C387   C     0.59141   0.08347   0.75361   0.00000  Uiso   1.00
C388   C     0.59039   0.02338   0.76580   0.00000  Uiso   1.00
C389   C     0.67842   0.17992   0.59060   0.00000  Uiso   1.00
C390   C     0.72190   0.20333   0.60151   0.00000  Uiso   1.00
C391   C     0.78057   0.19803   0.54414   0.00000  Uiso   1.00
H392   H     0.64982   0.10820   0.47340   0.00000  Uiso   1.00
H393   H     0.55818   0.18581   0.41701   0.00000  Uiso   1.00
H394   H     0.63245   0.00559   0.56845   0.00000  Uiso   1.00
H395   H     0.76292   0.12542   0.41636   0.00000  Uiso   1.00
H396   H     0.45013   0.28406   0.38355   0.00000  Uiso   1.00
H397   H     0.60675   0.90404   0.70286   0.00000  Uiso   1.00
H398   H     0.88187   0.15674   0.38217   0.00000  Uiso   1.00
H399   H     0.60021   0.20238   0.69725   0.00000  Uiso   1.00
H400   H     0.50585   0.28516   0.65314   0.00000  Uiso   1.00
H401   H     0.58012   0.10493   0.80457   0.00000  Uiso   1.00
H402   H     0.71058   0.22477   0.65249   0.00000  Uiso   1.00
H403   H     0.40765   0.36470   0.57520   0.00000  Uiso   1.00
H404   H     0.56428   0.98468   0.89451   0.00000  Uiso   1.00
H405   H     0.83940   0.23737   0.57382   0.00000  Uiso   1.00
O406   O     0.36770   0.37712   0.44634   0.00000  Uiso   1.00
O407   O     0.57319   0.87855   0.86526   0.00000  Uiso   1.00
O408   O     0.93414   0.21008   0.44451   0.00000  Uiso   1.00
N409   N     0.45309   0.29168   0.43470   0.00000  Uiso   1.00
N410   N     0.59951   0.93639   0.73324   0.00000  Uiso   1.00
N411   N     0.85673   0.17263   0.43343   0.00000  Uiso   1.00
N412   N     0.43023   0.33507   0.53783   0.00000  Uiso   1.00
N413   N     0.57666   0.97978   0.83636   0.00000  Uiso   1.00
N414   N     0.83388   0.21602   0.53655   0.00000  Uiso   1.00
C415   C     0.08148   0.50626   0.26277   0.00000  Uiso   1.00
C416   C     0.06176   0.55713   0.19363   0.00000  Uiso   1.00
C417   C     0.04630   0.54991   0.12872   0.00000  Uiso   1.00
C418   C     0.02950   0.60210   0.07177   0.00000  Uiso   1.00
C419   C     0.99910   0.67236   0.96321   0.00000  Uiso   1.00
C420   C     0.14581   0.51042   0.26258   0.00000  Uiso   1.00
C421   C     0.20101   0.46394   0.25566   0.00000  Uiso   1.00
C422   C     0.25495   0.47681   0.25676   0.00000  Uiso   1.00
C423   C     0.35502   0.47455   0.25530   0.00000  Uiso   1.00
C424   C     0.03528   0.52355   0.34189   0.00000  Uiso   1.00
C425   C     0.99755   0.48809   0.40167   0.00000  Uiso   1.00
C426   C     0.95845   0.51201   0.46956   0.00000  Uiso   1.00
C427   C     0.88691   0.53012   0.59125   0.00000  Uiso   1.00
C428   C     0.07913   0.61178   0.27706   0.00000  Uiso   1.00
C429   C     0.06048   0.61444   0.20139   0.00000  Uiso   1.00
C430   C     0.04370   0.66665   0.14453   0.00000  Uiso   1.00
C431   C     0.02822   0.65952   0.07955   0.00000  Uiso   1.00
C432   C     0.14453   0.56773   0.27034   0.00000  Uiso   1.00
C433   C     0.19840   0.58068   0.27146   0.00000  Uiso   1.00
C434   C     0.25367   0.53423   0.26453   0.00000  Uiso   1.00
C435   C     0.03400   0.58086   0.34965   0.00000  Uiso   1.00
C436   C     0.99495   0.60483   0.41747   0.00000  Uiso   1.00
C437   C     0.95717   0.56942   0.47733   0.00000  Uiso   1.00
H438   H     0.08248   0.46164   0.25673   0.00000  Uiso   1.00
H439   H     0.04730   0.50555   0.12274   0.00000  Uiso   1.00
H440   H     0.20198   0.41959   0.24966   0.00000  Uiso   1.00
H441   H     0.99856   0.44374   0.39564   0.00000  Uiso   1.00
H442   H     0.00776   0.57950   0.97758   0.00000  Uiso   1.00
H443   H     0.33390   0.39824   0.24523   0.00000  Uiso   1.00
H444   H     0.90494   0.44917   0.55308   0.00000  Uiso   1.00
H445   H     0.07813   0.65640   0.28310   0.00000  Uiso   1.00
H446   H     0.04271   0.71100   0.15055   0.00000  Uiso   1.00
H447   H     0.19739   0.62503   0.27747   0.00000  Uiso   1.00
H448   H     0.99397   0.64918   0.42345   0.00000  Uiso   1.00
H449   H     0.00404   0.74625   0.00015   0.00000  Uiso   1.00
H450   H     0.33018   0.56499   0.26781   0.00000  Uiso   1.00
H451   H     0.90122   0.61591   0.57564   0.00000  Uiso   1.00
O452   O     0.98270   0.69528   0.90118   0.00000  Uiso   1.00
O453   O     0.41058   0.45746   0.25235   0.00000  Uiso   1.00
O454   O     0.84779   0.52428   0.65622   0.00000  Uiso   1.00
N455   N     0.01173   0.61126   0.00109   0.00000  Uiso   1.00
N456   N     0.31666   0.44179   0.25132   0.00000  Uiso   1.00
N457   N     0.91563   0.48939   0.53913   0.00000  Uiso   1.00
N458   N     0.00973   0.70098   0.01324   0.00000  Uiso   1.00
N459   N     0.31466   0.53151   0.26346   0.00000  Uiso   1.00
N460   N     0.91363   0.57912   0.55128   0.00000  Uiso   1.00
C461   C     0.64478   0.12783   0.99075   0.00000  Uiso   1.00
C462   C     0.70022   0.07709   0.01353   0.00000  Uiso   1.00
C463   C     0.74387   0.03804   0.96403   0.00000  Uiso   1.00
C464   C     0.79109   0.99463   0.99608   0.00000  Uiso   1.00
C465   C     0.87664   0.91645   0.01949   0.00000  Uiso   1.00
C466   C     0.58551   0.11520   0.05697   0.00000  Uiso   1.00
C467   C     0.53271   0.10821   0.04399   0.00000  Uiso   1.00
C468   C     0.48337   0.09689   0.11260   0.00000  Uiso   1.00
C469   C     0.39081   0.07792   0.20344   0.00000  Uiso   1.00
C470   C     0.65289   0.18596   0.00109   0.00000  Uiso   1.00
C471   C     0.65673   0.23848   0.94114   0.00000  Uiso   1.00
C472   C     0.66410   0.28675   0.96271   0.00000  Uiso   1.00
C473   C     0.67616   0.37765   0.96679   0.00000  Uiso   1.00
C474   C     0.65104   0.12018   0.13569   0.00000  Uiso   1.00
C475   C     0.70362   0.07293   0.09225   0.00000  Uiso   1.00
C476   C     0.75079   0.02957   0.12439   0.00000  Uiso   1.00
C477   C     0.79450   0.99047   0.07494   0.00000  Uiso   1.00
C478   C     0.58891   0.11104   0.13569   0.00000  Uiso   1.00
C479   C     0.53964   0.09974   0.20434   0.00000  Uiso   1.00
C480   C     0.48677   0.09272   0.19147   0.00000  Uiso   1.00
C481   C     0.65629   0.18181   0.07981   0.00000  Uiso   1.00
C482   C     0.66366   0.23001   0.10149   0.00000  Uiso   1.00
C483   C     0.66750   0.28258   0.04158   0.00000  Uiso   1.00
H484   H     0.64213   0.13107   0.92947   0.00000  Uiso   1.00
H485   H     0.74121   0.04127   0.90311   0.00000  Uiso   1.00
H486   H     0.53009   0.11143   0.98306   0.00000  Uiso   1.00
H487   H     0.65409   0.24168   0.88022   0.00000  Uiso   1.00
H488   H     0.85255   0.93986   0.90863   0.00000  Uiso   1.00
H489   H     0.40738   0.08782   0.07719   0.00000  Uiso   1.00
H490   H     0.66886   0.36248   0.86034   0.00000  Uiso   1.00
H491   H     0.65369   0.11695   0.19698   0.00000  Uiso   1.00
H492   H     0.75341   0.02637   0.18531   0.00000  Uiso   1.00
H493   H     0.54228   0.09653   0.26525   0.00000  Uiso   1.00
H494   H     0.66628   0.22678   0.16242   0.00000  Uiso   1.00
H495   H     0.86245   0.92776   0.13767   0.00000  Uiso   1.00
H496   H     0.41727   0.07573   0.30623   0.00000  Uiso   1.00
H497   H     0.67875   0.35038   0.08938   0.00000  Uiso   1.00
O498   O     0.92288   0.87447   0.01065   0.00000  Uiso   1.00
O499   O     0.33882   0.06860   0.23180   0.00000  Uiso   1.00
O500   O     0.68188   0.42894   0.94730   0.00000  Uiso   1.00
N501   N     0.84120   0.94945   0.96413   0.00000  Uiso   1.00
N502   N     0.42500   0.08778   0.12173   0.00000  Uiso   1.00
N503   N     0.66944   0.34456   0.91900   0.00000  Uiso   1.00
N504   N     0.84653   0.94294   0.08737   0.00000  Uiso   1.00
N505   N     0.43032   0.08127   0.24497   0.00000  Uiso   1.00
N506   N     0.67476   0.33805   0.04224   0.00000  Uiso   1.00
C507   C     0.18860   0.03602   0.46414   0.00000  Uiso   1.00
C508   C     0.12810   0.05473   0.53015   0.00000  Uiso   1.00
C509   C     0.08116   0.02341   0.56753   0.00000  Uiso   1.00
C510   C     0.02949   0.04798   0.62649   0.00000  Uiso   1.00
C511   C     0.93622   0.06884   0.72580   0.00000  Uiso   1.00
C512   C     0.18877   0.08988   0.39168   0.00000  Uiso   1.00
C513   C     0.19287   0.08811   0.31263   0.00000  Uiso   1.00
C514   C     0.19228   0.14227   0.25502   0.00000  Uiso   1.00
C515   C     0.19326   0.21769   0.13934   0.00000  Uiso   1.00
C516   C     0.24322   0.03153   0.49680   0.00000  Uiso   1.00
C517   C     0.29310   0.98071   0.50611   0.00000  Uiso   1.00
C518   C     0.33836   0.98576   0.53699   0.00000  Uiso   1.00
C519   C     0.42388   0.97059   0.58451   0.00000  Uiso   1.00
C520   C     0.18029   0.13535   0.50239   0.00000  Uiso   1.00
C521   C     0.12358   0.10868   0.55092   0.00000  Uiso   1.00
C522   C     0.07197   0.13331   0.60985   0.00000  Uiso   1.00
C523   C     0.02496   0.10203   0.64730   0.00000  Uiso   1.00
C524   C     0.18426   0.14383   0.41245   0.00000  Uiso   1.00
C525   C     0.18367   0.19801   0.35495   0.00000  Uiso   1.00
C526   C     0.18776   0.19632   0.27583   0.00000  Uiso   1.00
C527   C     0.23871   0.08549   0.51757   0.00000  Uiso   1.00
C528   C     0.28390   0.09061   0.54843   0.00000  Uiso   1.00
C529   C     0.33384   0.03981   0.55780   0.00000  Uiso   1.00
H530   H     0.19211   0.99402   0.44796   0.00000  Uiso   1.00
H531   H     0.08467   0.98166   0.55143   0.00000  Uiso   1.00
H532   H     0.19636   0.04635   0.29657   0.00000  Uiso   1.00
H533   H     0.29658   0.93897   0.49003   0.00000  Uiso   1.00
H534   H     0.96355   0.99177   0.67528   0.00000  Uiso   1.00
H535   H     0.19908   0.12816   0.13789   0.00000  Uiso   1.00
H536   H     0.41041   0.90173   0.54583   0.00000  Uiso   1.00
H537   H     0.17677   0.17736   0.51856   0.00000  Uiso   1.00
H538   H     0.06849   0.17506   0.62591   0.00000  Uiso   1.00
H539   H     0.18018   0.23975   0.37104   0.00000  Uiso   1.00
H540   H     0.28039   0.13237   0.56450   0.00000  Uiso   1.00
H541   H     0.95041   0.14874   0.73573   0.00000  Uiso   1.00
H542   H     0.18595   0.28513   0.19833   0.00000  Uiso   1.00
H543   H     0.39727   0.05870   0.60627   0.00000  Uiso   1.00
O544   O     0.88601   0.06544   0.77482   0.00000  Uiso   1.00
O545   O     0.19504   0.24438   0.06979   0.00000  Uiso   1.00
O546   O     0.47229   0.94731   0.60499   0.00000  Uiso   1.00
N547   N     0.97532   0.02902   0.67479   0.00000  Uiso   1.00
N548   N     0.19552   0.15654   0.17236   0.00000  Uiso   1.00
N549   N     0.39310   0.94485   0.55373   0.00000  Uiso   1.00
N550   N     0.96826   0.11348   0.70731   0.00000  Uiso   1.00
N551   N     0.18846   0.24100   0.20489   0.00000  Uiso   1.00
N552   N     0.38604   0.02932   0.58625   0.00000  Uiso   1.00
