data_job_04280
_audit_creation_date              2018-12-19
_audit_creation_method            'Materials Studio'
_symmetry_space_group_name_H-M    'P1'
_symmetry_Int_Tables_number       1
_symmetry_cell_setting            triclinic
loop_
_symmetry_equiv_pos_as_xyz
  x,y,z
_cell_length_a                    12.3691
_cell_length_b                    14.1375
_cell_length_c                    14.3227
_cell_angle_alpha                 68.9959
_cell_angle_beta                  103.0575
_cell_angle_gamma                 95.1701
loop_
_atom_site_label
_atom_site_type_symbol
_atom_site_fract_x
_atom_site_fract_y
_atom_site_fract_z
_atom_site_U_iso_or_equiv
_atom_site_adp_type
_atom_site_occupancy
C1     C     0.73896   0.64210   0.17620   0.00000  Uiso   1.00
C2     C     0.74418   0.70283   0.24624   0.00000  Uiso   1.00
C3     C     0.76018   0.80684   0.21935   0.00000  Uiso   1.00
C4     C     0.76243   0.84803   0.29440   0.00000  Uiso   1.00
C5     C     0.77262   0.95155   0.38820   0.00000  Uiso   1.00
C6     C     0.82797   0.56127   0.23042   0.00000  Uiso   1.00
C7     C     0.91440   0.54626   0.19021   0.00000  Uiso   1.00
C8     C     0.98717   0.46828   0.25193   0.00000  Uiso   1.00
C9     C     0.12739   0.35199   0.32114   0.00000  Uiso   1.00
C10    C     0.62797   0.58558   0.17607   0.00000  Uiso   1.00
C11    C     0.54625   0.59099   0.09016   0.00000  Uiso   1.00
C12    C     0.45064   0.53346   0.10613   0.00000  Uiso   1.00
C13    C     0.28033   0.45492   0.09095   0.00000  Uiso   1.00
C14    C     0.71450   0.53029   0.35731   0.00000  Uiso   1.00
C15    C     0.73090   0.64209   0.34461   0.00000  Uiso   1.00
C16    C     0.73312   0.68313   0.41972   0.00000  Uiso   1.00
C17    C     0.74911   0.78719   0.39294   0.00000  Uiso   1.00
C18    C     0.81469   0.50054   0.32878   0.00000  Uiso   1.00
C19    C     0.88734   0.42256   0.39058   0.00000  Uiso   1.00
C20    C     0.97386   0.40744   0.35048   0.00000  Uiso   1.00
C21    C     0.61469   0.52485   0.27444   0.00000  Uiso   1.00
C22    C     0.51919   0.46729   0.29054   0.00000  Uiso   1.00
C23    C     0.43733   0.47262   0.20467   0.00000  Uiso   1.00
H24    H     0.74930   0.68938   0.09962   0.00000  Uiso   1.00
H25    H     0.77046   0.85381   0.14321   0.00000  Uiso   1.00
H26    H     0.92465   0.59327   0.11408   0.00000  Uiso   1.00
H27    H     0.55655   0.63800   0.01405   0.00000  Uiso   1.00
H28    H     0.78811   0.00933   0.23494   0.00000  Uiso   1.00
H29    H     0.11320   0.45994   0.17349   0.00000  Uiso   1.00
H30    H     0.33700   0.55426   0.96256   0.00000  Uiso   1.00
H31    H     0.70416   0.48300   0.43389   0.00000  Uiso   1.00
H32    H     0.72284   0.63611   0.49583   0.00000  Uiso   1.00
H33    H     0.87703   0.37557   0.46670   0.00000  Uiso   1.00
H34    H     0.50894   0.42030   0.36667   0.00000  Uiso   1.00
H35    H     0.74946   0.83264   0.52114   0.00000  Uiso   1.00
H36    H     0.07455   0.28324   0.45969   0.00000  Uiso   1.00
H37    H     0.29835   0.37756   0.24876   0.00000  Uiso   1.00
O38    O     0.78193   0.02542   0.41276   0.00000  Uiso   1.00
O39    O     0.20841   0.30463   0.33213   0.00000  Uiso   1.00
O40    O     0.19006   0.42838   0.05540   0.00000  Uiso   1.00
N41    N     0.77643   0.94674   0.29379   0.00000  Uiso   1.00
N42    N     0.08038   0.43310   0.23634   0.00000  Uiso   1.00
N43    N     0.35471   0.52126   0.03914   0.00000  Uiso   1.00
N44    N     0.75563   0.85166   0.44779   0.00000  Uiso   1.00
N45    N     0.05958   0.33802   0.39035   0.00000  Uiso   1.00
N46    N     0.33391   0.42618   0.19314   0.00000  Uiso   1.00
C47    C     0.78877   0.87306   0.85319   0.00000  Uiso   1.00
C48    C     0.80091   0.98595   0.83634   0.00000  Uiso   1.00
C49    C     0.79996   0.02988   0.90864   0.00000  Uiso   1.00
C50    C     0.81225   0.13449   0.87825   0.00000  Uiso   1.00
C51    C     0.82910   0.30090   0.86716   0.00000  Uiso   1.00
C52    C     0.69044   0.86267   0.77122   0.00000  Uiso   1.00
C53    C     0.59662   0.80293   0.78876   0.00000  Uiso   1.00
C54    C     0.51592   0.80375   0.70354   0.00000  Uiso   1.00
C55    C     0.36130   0.77870   0.59134   0.00000  Uiso   1.00
C56    C     0.89107   0.84432   0.82691   0.00000  Uiso   1.00
C57    C     0.96592   0.76914   0.89126   0.00000  Uiso   1.00
C58    C     0.05413   0.75449   0.85291   0.00000  Uiso   1.00
C59    C     0.21102   0.70096   0.82718   0.00000  Uiso   1.00
C60    C     0.81229   0.98071   0.67065   0.00000  Uiso   1.00
C61    C     0.81368   0.04443   0.73719   0.00000  Uiso   1.00
C62    C     0.82598   0.14899   0.70668   0.00000  Uiso   1.00
C63    C     0.82505   0.19307   0.77892   0.00000  Uiso   1.00
C64    C     0.70321   0.92114   0.67207   0.00000  Uiso   1.00
C65    C     0.62264   0.92204   0.58681   0.00000  Uiso   1.00
C66    C     0.52871   0.86232   0.60421   0.00000  Uiso   1.00
C67    C     0.90384   0.90280   0.72776   0.00000  Uiso   1.00
C68    C     0.99195   0.88826   0.68930   0.00000  Uiso   1.00
C69    C     0.06692   0.81307   0.75359   0.00000  Uiso   1.00
H70    H     0.77882   0.82753   0.93037   0.00000  Uiso   1.00
H71    H     0.79006   0.98461   0.98536   0.00000  Uiso   1.00
H72    H     0.58676   0.75768   0.86549   0.00000  Uiso   1.00
H73    H     0.95601   0.72390   0.96798   0.00000  Uiso   1.00
H74    H     0.80812   0.18455   0.00258   0.00000  Uiso   1.00
H75    H     0.37946   0.70603   0.74984   0.00000  Uiso   1.00
H76    H     0.15810   0.63480   0.96595   0.00000  Uiso   1.00
H77    H     0.82223   0.02624   0.59346   0.00000  Uiso   1.00
H78    H     0.83586   0.19423   0.62995   0.00000  Uiso   1.00
H79    H     0.63255   0.96730   0.51009   0.00000  Uiso   1.00
H80    H     0.00180   0.93352   0.61258   0.00000  Uiso   1.00
H81    H     0.84528   0.35468   0.71412   0.00000  Uiso   1.00
H82    H     0.41663   0.87616   0.46138   0.00000  Uiso   1.00
H83    H     0.19527   0.80494   0.67749   0.00000  Uiso   1.00
O84    O     0.83484   0.37654   0.88843   0.00000  Uiso   1.00
O85    O     0.27248   0.74873   0.55685   0.00000  Uiso   1.00
O86    O     0.29403   0.65529   0.84038   0.00000  Uiso   1.00
N87    N     0.81502   0.20153   0.92969   0.00000  Uiso   1.00
N88    N     0.41424   0.75416   0.69340   0.00000  Uiso   1.00
N89    N     0.14218   0.68755   0.89543   0.00000  Uiso   1.00
N90    N     0.83502   0.29308   0.77447   0.00000  Uiso   1.00
N91    N     0.43424   0.84571   0.53818   0.00000  Uiso   1.00
N92    N     0.16219   0.77910   0.74021   0.00000  Uiso   1.00
C93    C     0.26104   0.35790   0.82380   0.00000  Uiso   1.00
C94    C     0.25582   0.29717   0.75376   0.00000  Uiso   1.00
C95    C     0.23982   0.19316   0.78065   0.00000  Uiso   1.00
C96    C     0.23757   0.15197   0.70560   0.00000  Uiso   1.00
C97    C     0.22738   0.04845   0.61180   0.00000  Uiso   1.00
C98    C     0.17203   0.43873   0.76958   0.00000  Uiso   1.00
C99    C     0.08560   0.45374   0.80979   0.00000  Uiso   1.00
C100   C     0.01283   0.53172   0.74807   0.00000  Uiso   1.00
C101   C     0.87261   0.64801   0.67886   0.00000  Uiso   1.00
C102   C     0.37203   0.41442   0.82393   0.00000  Uiso   1.00
C103   C     0.45375   0.40901   0.90984   0.00000  Uiso   1.00
C104   C     0.54936   0.46654   0.89387   0.00000  Uiso   1.00
C105   C     0.71967   0.54508   0.90905   0.00000  Uiso   1.00
C106   C     0.28550   0.46971   0.64269   0.00000  Uiso   1.00
C107   C     0.26910   0.35791   0.65539   0.00000  Uiso   1.00
C108   C     0.26688   0.31687   0.58028   0.00000  Uiso   1.00
C109   C     0.25089   0.21281   0.60706   0.00000  Uiso   1.00
C110   C     0.18531   0.49946   0.67122   0.00000  Uiso   1.00
C111   C     0.11266   0.57744   0.60942   0.00000  Uiso   1.00
C112   C     0.02614   0.59256   0.64952   0.00000  Uiso   1.00
C113   C     0.38531   0.47515   0.72556   0.00000  Uiso   1.00
C114   C     0.48081   0.53271   0.70946   0.00000  Uiso   1.00
C115   C     0.56267   0.52738   0.79533   0.00000  Uiso   1.00
H116   H     0.25070   0.31062   0.90038   0.00000  Uiso   1.00
H117   H     0.22954   0.14619   0.85679   0.00000  Uiso   1.00
H118   H     0.07535   0.40673   0.88592   0.00000  Uiso   1.00
H119   H     0.44345   0.36200   0.98595   0.00000  Uiso   1.00
H120   H     0.21189   0.99067   0.76506   0.00000  Uiso   1.00
H121   H     0.88680   0.54006   0.82651   0.00000  Uiso   1.00
H122   H     0.66300   0.44574   0.03744   0.00000  Uiso   1.00
H123   H     0.29584   0.51700   0.56611   0.00000  Uiso   1.00
H124   H     0.27716   0.36389   0.50417   0.00000  Uiso   1.00
H125   H     0.12297   0.62443   0.53330   0.00000  Uiso   1.00
H126   H     0.49106   0.57970   0.63333   0.00000  Uiso   1.00
H127   H     0.25054   0.16736   0.47886   0.00000  Uiso   1.00
H128   H     0.92545   0.71676   0.54031   0.00000  Uiso   1.00
H129   H     0.70165   0.62244   0.75124   0.00000  Uiso   1.00
O130   O     0.21807   0.97458   0.58724   0.00000  Uiso   1.00
O131   O     0.79159   0.69537   0.66787   0.00000  Uiso   1.00
O132   O     0.80994   0.57162   0.94460   0.00000  Uiso   1.00
N133   N     0.22357   0.05326   0.70621   0.00000  Uiso   1.00
N134   N     0.91962   0.56690   0.76366   0.00000  Uiso   1.00
N135   N     0.64529   0.47874   0.96086   0.00000  Uiso   1.00
N136   N     0.24437   0.14834   0.55221   0.00000  Uiso   1.00
N137   N     0.94042   0.66198   0.60965   0.00000  Uiso   1.00
N138   N     0.66609   0.57382   0.80686   0.00000  Uiso   1.00
C139   C     0.21123   0.12694   0.14681   0.00000  Uiso   1.00
C140   C     0.19909   0.01405   0.16366   0.00000  Uiso   1.00
C141   C     0.20004   0.97012   0.09136   0.00000  Uiso   1.00
C142   C     0.18775   0.86551   0.12175   0.00000  Uiso   1.00
C143   C     0.17090   0.69910   0.13284   0.00000  Uiso   1.00
C144   C     0.30956   0.13733   0.22878   0.00000  Uiso   1.00
C145   C     0.40338   0.19707   0.21124   0.00000  Uiso   1.00
C146   C     0.48408   0.19625   0.29646   0.00000  Uiso   1.00
C147   C     0.63870   0.22130   0.40866   0.00000  Uiso   1.00
C148   C     0.10893   0.15568   0.17309   0.00000  Uiso   1.00
C149   C     0.03408   0.23086   0.10874   0.00000  Uiso   1.00
C150   C     0.94587   0.24551   0.14709   0.00000  Uiso   1.00
C151   C     0.78898   0.29904   0.17282   0.00000  Uiso   1.00
C152   C     0.18771   0.01929   0.32935   0.00000  Uiso   1.00
C153   C     0.18632   0.95557   0.26281   0.00000  Uiso   1.00
C154   C     0.17402   0.85101   0.29332   0.00000  Uiso   1.00
C155   C     0.17495   0.80693   0.22108   0.00000  Uiso   1.00
C156   C     0.29679   0.07886   0.32793   0.00000  Uiso   1.00
C157   C     0.37736   0.07796   0.41319   0.00000  Uiso   1.00
C158   C     0.47129   0.13768   0.39579   0.00000  Uiso   1.00
C159   C     0.09616   0.09720   0.27224   0.00000  Uiso   1.00
C160   C     0.00805   0.11174   0.31070   0.00000  Uiso   1.00
C161   C     0.93308   0.18693   0.24641   0.00000  Uiso   1.00
H162   H     0.22118   0.17247   0.06963   0.00000  Uiso   1.00
H163   H     0.20994   0.01539   0.01464   0.00000  Uiso   1.00
H164   H     0.41324   0.24232   0.13451   0.00000  Uiso   1.00
H165   H     0.04399   0.27610   0.03202   0.00000  Uiso   1.00
H166   H     0.19188   0.81545   0.99742   0.00000  Uiso   1.00
H167   H     0.62054   0.29397   0.25016   0.00000  Uiso   1.00
H168   H     0.84190   0.36520   0.03405   0.00000  Uiso   1.00
H169   H     0.17777   0.97376   0.40654   0.00000  Uiso   1.00
H170   H     0.16414   0.80577   0.37005   0.00000  Uiso   1.00
H171   H     0.36745   0.03270   0.48991   0.00000  Uiso   1.00
H172   H     0.99820   0.06648   0.38742   0.00000  Uiso   1.00
H173   H     0.15472   0.64532   0.28588   0.00000  Uiso   1.00
H174   H     0.58337   0.12384   0.53862   0.00000  Uiso   1.00
H175   H     0.80473   0.19506   0.32251   0.00000  Uiso   1.00
O176   O     0.16516   0.62346   0.11157   0.00000  Uiso   1.00
O177   O     0.72752   0.25127   0.44315   0.00000  Uiso   1.00
O178   O     0.70597   0.34471   0.15962   0.00000  Uiso   1.00
N179   N     0.18498   0.79847   0.07031   0.00000  Uiso   1.00
N180   N     0.58576   0.24584   0.30660   0.00000  Uiso   1.00
N181   N     0.85782   0.31245   0.10457   0.00000  Uiso   1.00
N182   N     0.16498   0.70692   0.22553   0.00000  Uiso   1.00
N183   N     0.56576   0.15429   0.46182   0.00000  Uiso   1.00
N184   N     0.83781   0.22090   0.25979   0.00000  Uiso   1.00
