data_job_03397
_audit_creation_date              2018-12-19
_audit_creation_method            'Materials Studio'
_symmetry_space_group_name_H-M    'P1'
_symmetry_Int_Tables_number       1
_symmetry_cell_setting            triclinic
loop_
_symmetry_equiv_pos_as_xyz
  x,y,z
_cell_length_a                    13.2340
_cell_length_b                    15.2885
_cell_length_c                    18.4384
_cell_angle_alpha                 90.0000
_cell_angle_beta                  134.0646
_cell_angle_gamma                 90.0000
loop_
_atom_site_label
_atom_site_type_symbol
_atom_site_fract_x
_atom_site_fract_y
_atom_site_fract_z
_atom_site_U_iso_or_equiv
_atom_site_adp_type
_atom_site_occupancy
C1     C     0.23183   0.70877   0.60836   0.00000  Uiso   1.00
C2     C     0.27458   0.79946   0.65616   0.00000  Uiso   1.00
C3     C     0.32081   0.81991   0.74858   0.00000  Uiso   1.00
C4     C     0.35484   0.90672   0.77901   0.00000  Uiso   1.00
C5     C     0.42295   0.03781   0.86231   0.00000  Uiso   1.00
C6     C     0.08218   0.71795   0.50493   0.00000  Uiso   1.00
C7     C     0.96666   0.66986   0.47021   0.00000  Uiso   1.00
C8     C     0.83874   0.68805   0.37334   0.00000  Uiso   1.00
C9     C     0.60817   0.69255   0.22184   0.00000  Uiso   1.00
C10    C     0.32380   0.68964   0.58840   0.00000  Uiso   1.00
C11    C     0.41140   0.61773   0.62384   0.00000  Uiso   1.00
C12    C     0.48688   0.61207   0.59722   0.00000  Uiso   1.00
C13    C     0.63145   0.57260   0.57532   0.00000  Uiso   1.00
C14    C     0.21005   0.82657   0.49806   0.00000  Uiso   1.00
C15    C     0.26274   0.86344   0.59624   0.00000  Uiso   1.00
C16    C     0.29672   0.95024   0.62654   0.00000  Uiso   1.00
C17    C     0.34300   0.97082   0.71900   0.00000  Uiso   1.00
C18    C     0.07035   0.78193   0.44502   0.00000  Uiso   1.00
C19    C     0.94257   0.80020   0.34818   0.00000  Uiso   1.00
C20    C     0.82689   0.75215   0.31332   0.00000  Uiso   1.00
C21    C     0.31197   0.75362   0.52849   0.00000  Uiso   1.00
C22    C     0.38731   0.74807   0.50181   0.00000  Uiso   1.00
C23    C     0.47503   0.67617   0.53720   0.00000  Uiso   1.00
H24    H     0.24103   0.65896   0.65500   0.00000  Uiso   1.00
H25    H     0.32994   0.77037   0.79492   0.00000  Uiso   1.00
H26    H     0.97585   0.62035   0.51659   0.00000  Uiso   1.00
H27    H     0.42053   0.56823   0.67020   0.00000  Uiso   1.00
H28    H     0.42325   0.92213   0.92360   0.00000  Uiso   1.00
H29    H     0.67664   0.60576   0.33672   0.00000  Uiso   1.00
H30    H     0.61433   0.49585   0.66063   0.00000  Uiso   1.00
H31    H     0.20084   0.87639   0.45141   0.00000  Uiso   1.00
H32    H     0.28755   0.99974   0.58017   0.00000  Uiso   1.00
H33    H     0.93346   0.84971   0.30183   0.00000  Uiso   1.00
H34    H     0.37814   0.79759   0.45544   0.00000  Uiso   1.00
H35    H     0.38884   0.10829   0.74930   0.00000  Uiso   1.00
H36    H     0.64223   0.79192   0.16241   0.00000  Uiso   1.00
H37    H     0.57992   0.68202   0.48633   0.00000  Uiso   1.00
O38    O     0.46376   0.09244   0.92481   0.00000  Uiso   1.00
O39    O     0.48425   0.67737   0.15483   0.00000  Uiso   1.00
O40    O     0.71448   0.53317   0.57980   0.00000  Uiso   1.00
N41    N     0.40328   0.94901   0.86492   0.00000  Uiso   1.00
N42    N     0.70524   0.65324   0.31622   0.00000  Uiso   1.00
N43    N     0.58187   0.55047   0.61903   0.00000  Uiso   1.00
N44    N     0.38476   0.04918   0.77113   0.00000  Uiso   1.00
N45    N     0.68672   0.75341   0.22243   0.00000  Uiso   1.00
N46    N     0.56335   0.65064   0.52524   0.00000  Uiso   1.00
C47    C     0.76817   0.70877   0.89164   0.00000  Uiso   1.00
C48    C     0.72542   0.79946   0.84384   0.00000  Uiso   1.00
C49    C     0.67919   0.81991   0.75142   0.00000  Uiso   1.00
C50    C     0.64516   0.90672   0.72099   0.00000  Uiso   1.00
C51    C     0.57705   0.03781   0.63769   0.00000  Uiso   1.00
C52    C     0.91782   0.71795   0.99507   0.00000  Uiso   1.00
C53    C     0.03334   0.66986   0.02979   0.00000  Uiso   1.00
C54    C     0.16126   0.68805   0.12666   0.00000  Uiso   1.00
C55    C     0.39183   0.69255   0.27816   0.00000  Uiso   1.00
C56    C     0.67620   0.68964   0.91160   0.00000  Uiso   1.00
C57    C     0.58860   0.61773   0.87616   0.00000  Uiso   1.00
C58    C     0.51312   0.61207   0.90278   0.00000  Uiso   1.00
C59    C     0.36855   0.57260   0.92468   0.00000  Uiso   1.00
C60    C     0.78995   0.82657   0.00194   0.00000  Uiso   1.00
C61    C     0.73726   0.86344   0.90376   0.00000  Uiso   1.00
C62    C     0.70328   0.95024   0.87346   0.00000  Uiso   1.00
C63    C     0.65700   0.97082   0.78100   0.00000  Uiso   1.00
C64    C     0.92965   0.78193   0.05498   0.00000  Uiso   1.00
C65    C     0.05743   0.80020   0.15182   0.00000  Uiso   1.00
C66    C     0.17311   0.75215   0.18668   0.00000  Uiso   1.00
C67    C     0.68803   0.75362   0.97151   0.00000  Uiso   1.00
C68    C     0.61269   0.74807   0.99819   0.00000  Uiso   1.00
C69    C     0.52497   0.67617   0.96280   0.00000  Uiso   1.00
H70    H     0.75897   0.65896   0.84500   0.00000  Uiso   1.00
H71    H     0.67006   0.77037   0.70508   0.00000  Uiso   1.00
H72    H     0.02415   0.62035   0.98341   0.00000  Uiso   1.00
H73    H     0.57947   0.56823   0.82980   0.00000  Uiso   1.00
H74    H     0.57675   0.92213   0.57640   0.00000  Uiso   1.00
H75    H     0.32336   0.60576   0.16328   0.00000  Uiso   1.00
H76    H     0.38567   0.49585   0.83937   0.00000  Uiso   1.00
H77    H     0.79916   0.87639   0.04859   0.00000  Uiso   1.00
H78    H     0.71245   0.99974   0.91983   0.00000  Uiso   1.00
H79    H     0.06654   0.84971   0.19817   0.00000  Uiso   1.00
H80    H     0.62186   0.79759   0.04456   0.00000  Uiso   1.00
H81    H     0.61116   0.10829   0.75070   0.00000  Uiso   1.00
H82    H     0.35777   0.79192   0.33759   0.00000  Uiso   1.00
H83    H     0.42008   0.68202   0.01367   0.00000  Uiso   1.00
O84    O     0.53624   0.09244   0.57519   0.00000  Uiso   1.00
O85    O     0.51575   0.67737   0.34517   0.00000  Uiso   1.00
O86    O     0.28552   0.53317   0.92020   0.00000  Uiso   1.00
N87    N     0.59672   0.94901   0.63508   0.00000  Uiso   1.00
N88    N     0.29476   0.65324   0.18378   0.00000  Uiso   1.00
N89    N     0.41813   0.55047   0.88097   0.00000  Uiso   1.00
N90    N     0.61524   0.04918   0.72887   0.00000  Uiso   1.00
N91    N     0.31328   0.75341   0.27757   0.00000  Uiso   1.00
N92    N     0.43665   0.65064   0.97476   0.00000  Uiso   1.00
C93    C     0.76817   0.29123   0.39164   0.00000  Uiso   1.00
C94    C     0.72542   0.20054   0.34384   0.00000  Uiso   1.00
C95    C     0.67919   0.18009   0.25142   0.00000  Uiso   1.00
C96    C     0.64516   0.09328   0.22099   0.00000  Uiso   1.00
C97    C     0.57705   0.96219   0.13769   0.00000  Uiso   1.00
C98    C     0.91782   0.28205   0.49507   0.00000  Uiso   1.00
C99    C     0.03334   0.33014   0.52979   0.00000  Uiso   1.00
C100   C     0.16126   0.31195   0.62666   0.00000  Uiso   1.00
C101   C     0.39183   0.30745   0.77816   0.00000  Uiso   1.00
C102   C     0.67620   0.31036   0.41160   0.00000  Uiso   1.00
C103   C     0.58860   0.38227   0.37616   0.00000  Uiso   1.00
C104   C     0.51312   0.38793   0.40278   0.00000  Uiso   1.00
C105   C     0.36855   0.42740   0.42468   0.00000  Uiso   1.00
C106   C     0.78995   0.17343   0.50194   0.00000  Uiso   1.00
C107   C     0.73726   0.13656   0.40376   0.00000  Uiso   1.00
C108   C     0.70328   0.04976   0.37346   0.00000  Uiso   1.00
C109   C     0.65700   0.02918   0.28100   0.00000  Uiso   1.00
C110   C     0.92965   0.21807   0.55498   0.00000  Uiso   1.00
C111   C     0.05743   0.19980   0.65182   0.00000  Uiso   1.00
C112   C     0.17311   0.24785   0.68668   0.00000  Uiso   1.00
C113   C     0.68803   0.24638   0.47151   0.00000  Uiso   1.00
C114   C     0.61269   0.25193   0.49819   0.00000  Uiso   1.00
C115   C     0.52497   0.32383   0.46280   0.00000  Uiso   1.00
H116   H     0.75897   0.34104   0.34500   0.00000  Uiso   1.00
H117   H     0.67006   0.22963   0.20508   0.00000  Uiso   1.00
H118   H     0.02415   0.37965   0.48341   0.00000  Uiso   1.00
H119   H     0.57947   0.43177   0.32980   0.00000  Uiso   1.00
H120   H     0.57675   0.07787   0.07640   0.00000  Uiso   1.00
H121   H     0.32336   0.39424   0.66328   0.00000  Uiso   1.00
H122   H     0.38567   0.50415   0.33937   0.00000  Uiso   1.00
H123   H     0.79916   0.12361   0.54859   0.00000  Uiso   1.00
H124   H     0.71245   0.00026   0.41983   0.00000  Uiso   1.00
H125   H     0.06654   0.15029   0.69817   0.00000  Uiso   1.00
H126   H     0.62186   0.20241   0.54456   0.00000  Uiso   1.00
H127   H     0.61116   0.89171   0.25070   0.00000  Uiso   1.00
H128   H     0.35777   0.20808   0.83759   0.00000  Uiso   1.00
H129   H     0.42008   0.31798   0.51367   0.00000  Uiso   1.00
O130   O     0.53624   0.90756   0.07519   0.00000  Uiso   1.00
O131   O     0.51575   0.32263   0.84517   0.00000  Uiso   1.00
O132   O     0.28552   0.46683   0.42020   0.00000  Uiso   1.00
N133   N     0.59672   0.05099   0.13508   0.00000  Uiso   1.00
N134   N     0.29476   0.34676   0.68378   0.00000  Uiso   1.00
N135   N     0.41813   0.44953   0.38097   0.00000  Uiso   1.00
N136   N     0.61524   0.95082   0.22887   0.00000  Uiso   1.00
N137   N     0.31328   0.24659   0.77757   0.00000  Uiso   1.00
N138   N     0.43665   0.34936   0.47476   0.00000  Uiso   1.00
C139   C     0.23183   0.29123   0.10836   0.00000  Uiso   1.00
C140   C     0.27458   0.20054   0.15616   0.00000  Uiso   1.00
C141   C     0.32081   0.18009   0.24858   0.00000  Uiso   1.00
C142   C     0.35484   0.09328   0.27901   0.00000  Uiso   1.00
C143   C     0.42295   0.96219   0.36231   0.00000  Uiso   1.00
C144   C     0.08218   0.28205   0.00493   0.00000  Uiso   1.00
C145   C     0.96666   0.33014   0.97021   0.00000  Uiso   1.00
C146   C     0.83874   0.31195   0.87334   0.00000  Uiso   1.00
C147   C     0.60817   0.30745   0.72184   0.00000  Uiso   1.00
C148   C     0.32380   0.31036   0.08840   0.00000  Uiso   1.00
C149   C     0.41140   0.38227   0.12384   0.00000  Uiso   1.00
C150   C     0.48688   0.38793   0.09722   0.00000  Uiso   1.00
C151   C     0.63145   0.42740   0.07532   0.00000  Uiso   1.00
C152   C     0.21005   0.17343   0.99806   0.00000  Uiso   1.00
C153   C     0.26274   0.13656   0.09624   0.00000  Uiso   1.00
C154   C     0.29672   0.04976   0.12654   0.00000  Uiso   1.00
C155   C     0.34300   0.02918   0.21900   0.00000  Uiso   1.00
C156   C     0.07035   0.21807   0.94502   0.00000  Uiso   1.00
C157   C     0.94257   0.19980   0.84818   0.00000  Uiso   1.00
C158   C     0.82689   0.24785   0.81332   0.00000  Uiso   1.00
C159   C     0.31197   0.24638   0.02849   0.00000  Uiso   1.00
C160   C     0.38731   0.25193   0.00181   0.00000  Uiso   1.00
C161   C     0.47503   0.32383   0.03720   0.00000  Uiso   1.00
H162   H     0.24103   0.34104   0.15500   0.00000  Uiso   1.00
H163   H     0.32994   0.22963   0.29492   0.00000  Uiso   1.00
H164   H     0.97585   0.37965   0.01659   0.00000  Uiso   1.00
H165   H     0.42053   0.43177   0.17020   0.00000  Uiso   1.00
H166   H     0.42325   0.07787   0.42360   0.00000  Uiso   1.00
H167   H     0.67664   0.39424   0.83672   0.00000  Uiso   1.00
H168   H     0.61433   0.50415   0.16063   0.00000  Uiso   1.00
H169   H     0.20084   0.12361   0.95141   0.00000  Uiso   1.00
H170   H     0.28755   0.00026   0.08017   0.00000  Uiso   1.00
H171   H     0.93346   0.15029   0.80183   0.00000  Uiso   1.00
H172   H     0.37814   0.20241   0.95544   0.00000  Uiso   1.00
H173   H     0.38884   0.89171   0.24930   0.00000  Uiso   1.00
H174   H     0.64223   0.20808   0.66241   0.00000  Uiso   1.00
H175   H     0.57992   0.31798   0.98633   0.00000  Uiso   1.00
O176   O     0.46376   0.90756   0.42481   0.00000  Uiso   1.00
O177   O     0.48425   0.32263   0.65483   0.00000  Uiso   1.00
O178   O     0.71448   0.46683   0.07980   0.00000  Uiso   1.00
N179   N     0.40328   0.05099   0.36492   0.00000  Uiso   1.00
N180   N     0.70524   0.34676   0.81622   0.00000  Uiso   1.00
N181   N     0.58187   0.44953   0.11903   0.00000  Uiso   1.00
N182   N     0.38476   0.95082   0.27113   0.00000  Uiso   1.00
N183   N     0.68672   0.24659   0.72243   0.00000  Uiso   1.00
N184   N     0.56335   0.34936   0.02524   0.00000  Uiso   1.00
