data_job_03308
_audit_creation_date              2018-12-19
_audit_creation_method            'Materials Studio'
_symmetry_space_group_name_H-M    'P1'
_symmetry_Int_Tables_number       1
_symmetry_cell_setting            triclinic
loop_
_symmetry_equiv_pos_as_xyz
  x,y,z
_cell_length_a                    22.3625
_cell_length_b                    10.6722
_cell_length_c                    41.4936
_cell_angle_alpha                 90.0000
_cell_angle_beta                  136.0994
_cell_angle_gamma                 90.0000
loop_
_atom_site_label
_atom_site_type_symbol
_atom_site_fract_x
_atom_site_fract_y
_atom_site_fract_z
_atom_site_U_iso_or_equiv
_atom_site_adp_type
_atom_site_occupancy
C1     C     0.77002   0.65272   0.09826   0.00000  Uiso   1.00
C2     C     0.73828   0.68366   0.11980   0.00000  Uiso   1.00
C3     C     0.67122   0.62419   0.10977   0.00000  Uiso   1.00
C4     C     0.65206   0.66627   0.13317   0.00000  Uiso   1.00
C5     C     0.59571   0.69943   0.16169   0.00000  Uiso   1.00
C6     C     0.76426   0.77445   0.07690   0.00000  Uiso   1.00
C7     C     0.71905   0.79131   0.03080   0.00000  Uiso   1.00
C8     C     0.72177   0.90982   0.01809   0.00000  Uiso   1.00
C9     C     0.70581   0.08391   0.98002   0.00000  Uiso   1.00
C10    C     0.86591   0.62376   0.13878   0.00000  Uiso   1.00
C11    C     0.90618   0.51393   0.14470   0.00000  Uiso   1.00
C12    C     0.99449   0.50558   0.18409   0.00000  Uiso   1.00
C13    C     0.13636   0.44570   0.24209   0.00000  Uiso   1.00
C14    C     0.85526   0.83322   0.15765   0.00000  Uiso   1.00
C15    C     0.78458   0.78170   0.15206   0.00000  Uiso   1.00
C16    C     0.76552   0.82388   0.17548   0.00000  Uiso   1.00
C17    C     0.69844   0.76448   0.16549   0.00000  Uiso   1.00
C18    C     0.81056   0.87249   0.10915   0.00000  Uiso   1.00
C19    C     0.81335   0.99100   0.09651   0.00000  Uiso   1.00
C20    C     0.76815   0.00803   0.05041   0.00000  Uiso   1.00
C21    C     0.91221   0.72179   0.17104   0.00000  Uiso   1.00
C22    C     0.00048   0.71362   0.21042   0.00000  Uiso   1.00
C23    C     0.04087   0.60380   0.21641   0.00000  Uiso   1.00
H24    H     0.73397   0.57641   0.07314   0.00000  Uiso   1.00
H25    H     0.63540   0.54833   0.08480   0.00000  Uiso   1.00
H26    H     0.68323   0.71542   0.00584   0.00000  Uiso   1.00
H27    H     0.87033   0.43808   0.11973   0.00000  Uiso   1.00
H28    H     0.54651   0.56047   0.11194   0.00000  Uiso   1.00
H29    H     0.64739   0.91278   0.94546   0.00000  Uiso   1.00
H30    H     0.04193   0.32796   0.18562   0.00000  Uiso   1.00
H31    H     0.89130   0.90955   0.18277   0.00000  Uiso   1.00
H32    H     0.80136   0.89975   0.20044   0.00000  Uiso   1.00
H33    H     0.84919   0.06684   0.12149   0.00000  Uiso   1.00
H34    H     0.03629   0.78950   0.23538   0.00000  Uiso   1.00
H35    H     0.68121   0.84570   0.20580   0.00000  Uiso   1.00
H36    H     0.78209   0.19800   0.03932   0.00000  Uiso   1.00
H37    H     0.17663   0.61319   0.27948   0.00000  Uiso   1.00
O38    O     0.55184   0.69065   0.16851   0.00000  Uiso   1.00
O39    O     0.68421   0.15286   0.95010   0.00000  Uiso   1.00
O40    O     0.20182   0.38559   0.26518   0.00000  Uiso   1.00
N41    N     0.59056   0.62892   0.13161   0.00000  Uiso   1.00
N42    N     0.68487   0.95832   0.97596   0.00000  Uiso   1.00
N43    N     0.05373   0.41157   0.20048   0.00000  Uiso   1.00
N44    N     0.66305   0.78240   0.18211   0.00000  Uiso   1.00
N45    N     0.75735   0.11179   0.02647   0.00000  Uiso   1.00
N46    N     0.12622   0.56505   0.25099   0.00000  Uiso   1.00
C47    C     0.27002   0.15272   0.09826   0.00000  Uiso   1.00
C48    C     0.23828   0.18366   0.11980   0.00000  Uiso   1.00
C49    C     0.17122   0.12419   0.10977   0.00000  Uiso   1.00
C50    C     0.15206   0.16627   0.13317   0.00000  Uiso   1.00
C51    C     0.09571   0.19943   0.16169   0.00000  Uiso   1.00
C52    C     0.26426   0.27445   0.07690   0.00000  Uiso   1.00
C53    C     0.21905   0.29131   0.03080   0.00000  Uiso   1.00
C54    C     0.22177   0.40982   0.01809   0.00000  Uiso   1.00
C55    C     0.20581   0.58391   0.98002   0.00000  Uiso   1.00
C56    C     0.36591   0.12376   0.13878   0.00000  Uiso   1.00
C57    C     0.40618   0.01393   0.14470   0.00000  Uiso   1.00
C58    C     0.49449   0.00558   0.18409   0.00000  Uiso   1.00
C59    C     0.63636   0.94570   0.24209   0.00000  Uiso   1.00
C60    C     0.35526   0.33322   0.15765   0.00000  Uiso   1.00
C61    C     0.28458   0.28170   0.15206   0.00000  Uiso   1.00
C62    C     0.26552   0.32388   0.17548   0.00000  Uiso   1.00
C63    C     0.19844   0.26448   0.16549   0.00000  Uiso   1.00
C64    C     0.31056   0.37249   0.10915   0.00000  Uiso   1.00
C65    C     0.31335   0.49100   0.09651   0.00000  Uiso   1.00
C66    C     0.26815   0.50803   0.05041   0.00000  Uiso   1.00
C67    C     0.41221   0.22179   0.17104   0.00000  Uiso   1.00
C68    C     0.50048   0.21362   0.21042   0.00000  Uiso   1.00
C69    C     0.54087   0.10380   0.21641   0.00000  Uiso   1.00
H70    H     0.23397   0.07641   0.07314   0.00000  Uiso   1.00
H71    H     0.13540   0.04833   0.08480   0.00000  Uiso   1.00
H72    H     0.18323   0.21542   0.00584   0.00000  Uiso   1.00
H73    H     0.37033   0.93808   0.11973   0.00000  Uiso   1.00
H74    H     0.04651   0.06047   0.11194   0.00000  Uiso   1.00
H75    H     0.14739   0.41278   0.94546   0.00000  Uiso   1.00
H76    H     0.54193   0.82796   0.18562   0.00000  Uiso   1.00
H77    H     0.39130   0.40955   0.18277   0.00000  Uiso   1.00
H78    H     0.30136   0.39975   0.20044   0.00000  Uiso   1.00
H79    H     0.34919   0.56684   0.12149   0.00000  Uiso   1.00
H80    H     0.53629   0.28950   0.23538   0.00000  Uiso   1.00
H81    H     0.18121   0.34570   0.20580   0.00000  Uiso   1.00
H82    H     0.28209   0.69800   0.03932   0.00000  Uiso   1.00
H83    H     0.67663   0.11319   0.27948   0.00000  Uiso   1.00
O84    O     0.05184   0.19065   0.16851   0.00000  Uiso   1.00
O85    O     0.18421   0.65286   0.95010   0.00000  Uiso   1.00
O86    O     0.70182   0.88559   0.26518   0.00000  Uiso   1.00
N87    N     0.09056   0.12892   0.13161   0.00000  Uiso   1.00
N88    N     0.18487   0.45832   0.97596   0.00000  Uiso   1.00
N89    N     0.55373   0.91157   0.20048   0.00000  Uiso   1.00
N90    N     0.16305   0.28240   0.18211   0.00000  Uiso   1.00
N91    N     0.25735   0.61179   0.02647   0.00000  Uiso   1.00
N92    N     0.62622   0.06505   0.25099   0.00000  Uiso   1.00
C93    C     0.22998   0.65272   0.40174   0.00000  Uiso   1.00
C94    C     0.26172   0.68366   0.38020   0.00000  Uiso   1.00
C95    C     0.32878   0.62419   0.39023   0.00000  Uiso   1.00
C96    C     0.34794   0.66627   0.36683   0.00000  Uiso   1.00
C97    C     0.40429   0.69943   0.33831   0.00000  Uiso   1.00
C98    C     0.23574   0.77445   0.42310   0.00000  Uiso   1.00
C99    C     0.28095   0.79131   0.46920   0.00000  Uiso   1.00
C100   C     0.27823   0.90982   0.48191   0.00000  Uiso   1.00
C101   C     0.29419   0.08391   0.51998   0.00000  Uiso   1.00
C102   C     0.13409   0.62376   0.36122   0.00000  Uiso   1.00
C103   C     0.09382   0.51393   0.35530   0.00000  Uiso   1.00
C104   C     0.00551   0.50558   0.31591   0.00000  Uiso   1.00
C105   C     0.86364   0.44570   0.25791   0.00000  Uiso   1.00
C106   C     0.14474   0.83322   0.34235   0.00000  Uiso   1.00
C107   C     0.21542   0.78170   0.34794   0.00000  Uiso   1.00
C108   C     0.23448   0.82388   0.32452   0.00000  Uiso   1.00
C109   C     0.30156   0.76448   0.33451   0.00000  Uiso   1.00
C110   C     0.18944   0.87249   0.39085   0.00000  Uiso   1.00
C111   C     0.18665   0.99100   0.40349   0.00000  Uiso   1.00
C112   C     0.23185   0.00803   0.44959   0.00000  Uiso   1.00
C113   C     0.08779   0.72179   0.32896   0.00000  Uiso   1.00
C114   C     0.99952   0.71362   0.28958   0.00000  Uiso   1.00
C115   C     0.95913   0.60380   0.28359   0.00000  Uiso   1.00
H116   H     0.26603   0.57641   0.42686   0.00000  Uiso   1.00
H117   H     0.36460   0.54833   0.41520   0.00000  Uiso   1.00
H118   H     0.31677   0.71542   0.49416   0.00000  Uiso   1.00
H119   H     0.12967   0.43808   0.38027   0.00000  Uiso   1.00
H120   H     0.45349   0.56047   0.38806   0.00000  Uiso   1.00
H121   H     0.35261   0.91278   0.55454   0.00000  Uiso   1.00
H122   H     0.95807   0.32796   0.31438   0.00000  Uiso   1.00
H123   H     0.10870   0.90955   0.31723   0.00000  Uiso   1.00
H124   H     0.19864   0.89975   0.29956   0.00000  Uiso   1.00
H125   H     0.15081   0.06684   0.37851   0.00000  Uiso   1.00
H126   H     0.96371   0.78950   0.26462   0.00000  Uiso   1.00
H127   H     0.31879   0.84570   0.29420   0.00000  Uiso   1.00
H128   H     0.21791   0.19800   0.46068   0.00000  Uiso   1.00
H129   H     0.82337   0.61319   0.22052   0.00000  Uiso   1.00
O130   O     0.44816   0.69065   0.33149   0.00000  Uiso   1.00
O131   O     0.31579   0.15286   0.54990   0.00000  Uiso   1.00
O132   O     0.79818   0.38559   0.23482   0.00000  Uiso   1.00
N133   N     0.40944   0.62892   0.36839   0.00000  Uiso   1.00
N134   N     0.31513   0.95832   0.52404   0.00000  Uiso   1.00
N135   N     0.94627   0.41157   0.29952   0.00000  Uiso   1.00
N136   N     0.33695   0.78240   0.31789   0.00000  Uiso   1.00
N137   N     0.24265   0.11179   0.47353   0.00000  Uiso   1.00
N138   N     0.87378   0.56505   0.24901   0.00000  Uiso   1.00
C139   C     0.72998   0.15272   0.40174   0.00000  Uiso   1.00
C140   C     0.76172   0.18366   0.38020   0.00000  Uiso   1.00
C141   C     0.82878   0.12419   0.39023   0.00000  Uiso   1.00
C142   C     0.84794   0.16627   0.36683   0.00000  Uiso   1.00
C143   C     0.90429   0.19943   0.33831   0.00000  Uiso   1.00
C144   C     0.73574   0.27445   0.42310   0.00000  Uiso   1.00
C145   C     0.78095   0.29131   0.46920   0.00000  Uiso   1.00
C146   C     0.77823   0.40982   0.48191   0.00000  Uiso   1.00
C147   C     0.79419   0.58391   0.51998   0.00000  Uiso   1.00
C148   C     0.63409   0.12376   0.36122   0.00000  Uiso   1.00
C149   C     0.59382   0.01393   0.35530   0.00000  Uiso   1.00
C150   C     0.50551   0.00558   0.31591   0.00000  Uiso   1.00
C151   C     0.36364   0.94570   0.25791   0.00000  Uiso   1.00
C152   C     0.64474   0.33322   0.34235   0.00000  Uiso   1.00
C153   C     0.71542   0.28170   0.34794   0.00000  Uiso   1.00
C154   C     0.73448   0.32388   0.32452   0.00000  Uiso   1.00
C155   C     0.80156   0.26448   0.33451   0.00000  Uiso   1.00
C156   C     0.68944   0.37249   0.39085   0.00000  Uiso   1.00
C157   C     0.68665   0.49100   0.40349   0.00000  Uiso   1.00
C158   C     0.73185   0.50803   0.44959   0.00000  Uiso   1.00
C159   C     0.58779   0.22179   0.32896   0.00000  Uiso   1.00
C160   C     0.49952   0.21362   0.28958   0.00000  Uiso   1.00
C161   C     0.45913   0.10380   0.28359   0.00000  Uiso   1.00
H162   H     0.76603   0.07641   0.42686   0.00000  Uiso   1.00
H163   H     0.86460   0.04833   0.41520   0.00000  Uiso   1.00
H164   H     0.81677   0.21542   0.49416   0.00000  Uiso   1.00
H165   H     0.62967   0.93808   0.38027   0.00000  Uiso   1.00
H166   H     0.95349   0.06047   0.38806   0.00000  Uiso   1.00
H167   H     0.85261   0.41278   0.55454   0.00000  Uiso   1.00
H168   H     0.45807   0.82796   0.31438   0.00000  Uiso   1.00
H169   H     0.60870   0.40955   0.31723   0.00000  Uiso   1.00
H170   H     0.69864   0.39975   0.29956   0.00000  Uiso   1.00
H171   H     0.65081   0.56684   0.37851   0.00000  Uiso   1.00
H172   H     0.46371   0.28950   0.26462   0.00000  Uiso   1.00
H173   H     0.81879   0.34570   0.29420   0.00000  Uiso   1.00
H174   H     0.71791   0.69800   0.46068   0.00000  Uiso   1.00
H175   H     0.32337   0.11319   0.22052   0.00000  Uiso   1.00
O176   O     0.94816   0.19065   0.33149   0.00000  Uiso   1.00
O177   O     0.81579   0.65286   0.54990   0.00000  Uiso   1.00
O178   O     0.29818   0.88559   0.23482   0.00000  Uiso   1.00
N179   N     0.90944   0.12892   0.36839   0.00000  Uiso   1.00
N180   N     0.81513   0.45832   0.52404   0.00000  Uiso   1.00
N181   N     0.44627   0.91157   0.29952   0.00000  Uiso   1.00
N182   N     0.83695   0.28240   0.31789   0.00000  Uiso   1.00
N183   N     0.74265   0.61179   0.47353   0.00000  Uiso   1.00
N184   N     0.37378   0.06505   0.24901   0.00000  Uiso   1.00
C185   C     0.22998   0.34728   0.90174   0.00000  Uiso   1.00
C186   C     0.26172   0.31634   0.88020   0.00000  Uiso   1.00
C187   C     0.32878   0.37581   0.89023   0.00000  Uiso   1.00
C188   C     0.34794   0.33373   0.86683   0.00000  Uiso   1.00
C189   C     0.40429   0.30057   0.83831   0.00000  Uiso   1.00
C190   C     0.23574   0.22555   0.92310   0.00000  Uiso   1.00
C191   C     0.28095   0.20869   0.96920   0.00000  Uiso   1.00
C192   C     0.27823   0.09018   0.98191   0.00000  Uiso   1.00
C193   C     0.29419   0.91609   0.01998   0.00000  Uiso   1.00
C194   C     0.13409   0.37624   0.86122   0.00000  Uiso   1.00
C195   C     0.09382   0.48607   0.85530   0.00000  Uiso   1.00
C196   C     0.00551   0.49442   0.81591   0.00000  Uiso   1.00
C197   C     0.86364   0.55430   0.75791   0.00000  Uiso   1.00
C198   C     0.14474   0.16678   0.84235   0.00000  Uiso   1.00
C199   C     0.21542   0.21830   0.84794   0.00000  Uiso   1.00
C200   C     0.23448   0.17612   0.82452   0.00000  Uiso   1.00
C201   C     0.30156   0.23552   0.83451   0.00000  Uiso   1.00
C202   C     0.18944   0.12751   0.89085   0.00000  Uiso   1.00
C203   C     0.18665   0.00900   0.90349   0.00000  Uiso   1.00
C204   C     0.23185   0.99197   0.94959   0.00000  Uiso   1.00
C205   C     0.08779   0.27821   0.82896   0.00000  Uiso   1.00
C206   C     0.99952   0.28638   0.78958   0.00000  Uiso   1.00
C207   C     0.95913   0.39620   0.78359   0.00000  Uiso   1.00
H208   H     0.26603   0.42359   0.92686   0.00000  Uiso   1.00
H209   H     0.36460   0.45167   0.91520   0.00000  Uiso   1.00
H210   H     0.31677   0.28458   0.99416   0.00000  Uiso   1.00
H211   H     0.12967   0.56192   0.88027   0.00000  Uiso   1.00
H212   H     0.45349   0.43953   0.88806   0.00000  Uiso   1.00
H213   H     0.35261   0.08722   0.05454   0.00000  Uiso   1.00
H214   H     0.95807   0.67204   0.81438   0.00000  Uiso   1.00
H215   H     0.10870   0.09045   0.81723   0.00000  Uiso   1.00
H216   H     0.19864   0.10025   0.79956   0.00000  Uiso   1.00
H217   H     0.15081   0.93316   0.87851   0.00000  Uiso   1.00
H218   H     0.96371   0.21050   0.76462   0.00000  Uiso   1.00
H219   H     0.31879   0.15430   0.79420   0.00000  Uiso   1.00
H220   H     0.21791   0.80200   0.96068   0.00000  Uiso   1.00
H221   H     0.82337   0.38681   0.72052   0.00000  Uiso   1.00
O222   O     0.44816   0.30935   0.83149   0.00000  Uiso   1.00
O223   O     0.31579   0.84714   0.04990   0.00000  Uiso   1.00
O224   O     0.79818   0.61441   0.73482   0.00000  Uiso   1.00
N225   N     0.40944   0.37108   0.86839   0.00000  Uiso   1.00
N226   N     0.31513   0.04168   0.02404   0.00000  Uiso   1.00
N227   N     0.94627   0.58843   0.79952   0.00000  Uiso   1.00
N228   N     0.33695   0.21760   0.81789   0.00000  Uiso   1.00
N229   N     0.24265   0.88821   0.97353   0.00000  Uiso   1.00
N230   N     0.87378   0.43495   0.74901   0.00000  Uiso   1.00
C231   C     0.72998   0.84728   0.90174   0.00000  Uiso   1.00
C232   C     0.76172   0.81634   0.88020   0.00000  Uiso   1.00
C233   C     0.82878   0.87581   0.89023   0.00000  Uiso   1.00
C234   C     0.84794   0.83373   0.86683   0.00000  Uiso   1.00
C235   C     0.90429   0.80057   0.83831   0.00000  Uiso   1.00
C236   C     0.73574   0.72555   0.92310   0.00000  Uiso   1.00
C237   C     0.78095   0.70869   0.96920   0.00000  Uiso   1.00
C238   C     0.77823   0.59018   0.98191   0.00000  Uiso   1.00
C239   C     0.79419   0.41609   0.01998   0.00000  Uiso   1.00
C240   C     0.63409   0.87624   0.86122   0.00000  Uiso   1.00
C241   C     0.59382   0.98607   0.85530   0.00000  Uiso   1.00
C242   C     0.50551   0.99442   0.81591   0.00000  Uiso   1.00
C243   C     0.36364   0.05430   0.75791   0.00000  Uiso   1.00
C244   C     0.64474   0.66678   0.84235   0.00000  Uiso   1.00
C245   C     0.71542   0.71830   0.84794   0.00000  Uiso   1.00
C246   C     0.73448   0.67612   0.82452   0.00000  Uiso   1.00
C247   C     0.80156   0.73552   0.83451   0.00000  Uiso   1.00
C248   C     0.68944   0.62751   0.89085   0.00000  Uiso   1.00
C249   C     0.68665   0.50900   0.90349   0.00000  Uiso   1.00
C250   C     0.73185   0.49197   0.94959   0.00000  Uiso   1.00
C251   C     0.58779   0.77821   0.82896   0.00000  Uiso   1.00
C252   C     0.49952   0.78638   0.78958   0.00000  Uiso   1.00
C253   C     0.45913   0.89620   0.78359   0.00000  Uiso   1.00
H254   H     0.76603   0.92359   0.92686   0.00000  Uiso   1.00
H255   H     0.86460   0.95167   0.91520   0.00000  Uiso   1.00
H256   H     0.81677   0.78458   0.99416   0.00000  Uiso   1.00
H257   H     0.62967   0.06192   0.88027   0.00000  Uiso   1.00
H258   H     0.95349   0.93953   0.88806   0.00000  Uiso   1.00
H259   H     0.85261   0.58722   0.05454   0.00000  Uiso   1.00
H260   H     0.45807   0.17204   0.81438   0.00000  Uiso   1.00
H261   H     0.60870   0.59045   0.81723   0.00000  Uiso   1.00
H262   H     0.69864   0.60025   0.79956   0.00000  Uiso   1.00
H263   H     0.65081   0.43316   0.87851   0.00000  Uiso   1.00
H264   H     0.46371   0.71050   0.76462   0.00000  Uiso   1.00
H265   H     0.81879   0.65430   0.79420   0.00000  Uiso   1.00
H266   H     0.71791   0.30200   0.96068   0.00000  Uiso   1.00
H267   H     0.32337   0.88681   0.72052   0.00000  Uiso   1.00
O268   O     0.94816   0.80935   0.83149   0.00000  Uiso   1.00
O269   O     0.81579   0.34714   0.04990   0.00000  Uiso   1.00
O270   O     0.29818   0.11441   0.73482   0.00000  Uiso   1.00
N271   N     0.90944   0.87108   0.86839   0.00000  Uiso   1.00
N272   N     0.81513   0.54168   0.02404   0.00000  Uiso   1.00
N273   N     0.44627   0.08843   0.79952   0.00000  Uiso   1.00
N274   N     0.83695   0.71760   0.81789   0.00000  Uiso   1.00
N275   N     0.74265   0.38821   0.97353   0.00000  Uiso   1.00
N276   N     0.37378   0.93495   0.74901   0.00000  Uiso   1.00
C277   C     0.77002   0.34728   0.59826   0.00000  Uiso   1.00
C278   C     0.73828   0.31634   0.61980   0.00000  Uiso   1.00
C279   C     0.67122   0.37581   0.60977   0.00000  Uiso   1.00
C280   C     0.65206   0.33373   0.63317   0.00000  Uiso   1.00
C281   C     0.59571   0.30057   0.66169   0.00000  Uiso   1.00
C282   C     0.76426   0.22555   0.57690   0.00000  Uiso   1.00
C283   C     0.71905   0.20869   0.53080   0.00000  Uiso   1.00
C284   C     0.72177   0.09018   0.51809   0.00000  Uiso   1.00
C285   C     0.70581   0.91609   0.48002   0.00000  Uiso   1.00
C286   C     0.86591   0.37624   0.63878   0.00000  Uiso   1.00
C287   C     0.90618   0.48607   0.64470   0.00000  Uiso   1.00
C288   C     0.99449   0.49442   0.68409   0.00000  Uiso   1.00
C289   C     0.13636   0.55430   0.74209   0.00000  Uiso   1.00
C290   C     0.85526   0.16678   0.65765   0.00000  Uiso   1.00
C291   C     0.78458   0.21830   0.65206   0.00000  Uiso   1.00
C292   C     0.76552   0.17612   0.67548   0.00000  Uiso   1.00
C293   C     0.69844   0.23552   0.66549   0.00000  Uiso   1.00
C294   C     0.81056   0.12751   0.60915   0.00000  Uiso   1.00
C295   C     0.81335   0.00900   0.59651   0.00000  Uiso   1.00
C296   C     0.76815   0.99197   0.55041   0.00000  Uiso   1.00
C297   C     0.91221   0.27821   0.67104   0.00000  Uiso   1.00
C298   C     0.00048   0.28638   0.71042   0.00000  Uiso   1.00
C299   C     0.04087   0.39620   0.71641   0.00000  Uiso   1.00
H300   H     0.73397   0.42359   0.57314   0.00000  Uiso   1.00
H301   H     0.63540   0.45167   0.58480   0.00000  Uiso   1.00
H302   H     0.68323   0.28458   0.50584   0.00000  Uiso   1.00
H303   H     0.87033   0.56192   0.61973   0.00000  Uiso   1.00
H304   H     0.54651   0.43953   0.61194   0.00000  Uiso   1.00
H305   H     0.64739   0.08722   0.44546   0.00000  Uiso   1.00
H306   H     0.04193   0.67204   0.68562   0.00000  Uiso   1.00
H307   H     0.89130   0.09045   0.68277   0.00000  Uiso   1.00
H308   H     0.80136   0.10025   0.70044   0.00000  Uiso   1.00
H309   H     0.84919   0.93316   0.62149   0.00000  Uiso   1.00
H310   H     0.03629   0.21050   0.73538   0.00000  Uiso   1.00
H311   H     0.68121   0.15430   0.70580   0.00000  Uiso   1.00
H312   H     0.78209   0.80200   0.53932   0.00000  Uiso   1.00
H313   H     0.17663   0.38681   0.77948   0.00000  Uiso   1.00
O314   O     0.55184   0.30935   0.66851   0.00000  Uiso   1.00
O315   O     0.68421   0.84714   0.45010   0.00000  Uiso   1.00
O316   O     0.20182   0.61441   0.76518   0.00000  Uiso   1.00
N317   N     0.59056   0.37108   0.63161   0.00000  Uiso   1.00
N318   N     0.68487   0.04168   0.47596   0.00000  Uiso   1.00
N319   N     0.05373   0.58843   0.70048   0.00000  Uiso   1.00
N320   N     0.66305   0.21760   0.68211   0.00000  Uiso   1.00
N321   N     0.75735   0.88821   0.52647   0.00000  Uiso   1.00
N322   N     0.12622   0.43495   0.75099   0.00000  Uiso   1.00
C323   C     0.27002   0.84728   0.59826   0.00000  Uiso   1.00
C324   C     0.23828   0.81634   0.61980   0.00000  Uiso   1.00
C325   C     0.17122   0.87581   0.60977   0.00000  Uiso   1.00
C326   C     0.15206   0.83373   0.63317   0.00000  Uiso   1.00
C327   C     0.09571   0.80057   0.66169   0.00000  Uiso   1.00
C328   C     0.26426   0.72555   0.57690   0.00000  Uiso   1.00
C329   C     0.21905   0.70869   0.53080   0.00000  Uiso   1.00
C330   C     0.22177   0.59018   0.51809   0.00000  Uiso   1.00
C331   C     0.20581   0.41609   0.48002   0.00000  Uiso   1.00
C332   C     0.36591   0.87624   0.63878   0.00000  Uiso   1.00
C333   C     0.40618   0.98607   0.64470   0.00000  Uiso   1.00
C334   C     0.49449   0.99442   0.68409   0.00000  Uiso   1.00
C335   C     0.63636   0.05430   0.74209   0.00000  Uiso   1.00
C336   C     0.35526   0.66678   0.65765   0.00000  Uiso   1.00
C337   C     0.28458   0.71830   0.65206   0.00000  Uiso   1.00
C338   C     0.26552   0.67612   0.67548   0.00000  Uiso   1.00
C339   C     0.19844   0.73552   0.66549   0.00000  Uiso   1.00
C340   C     0.31056   0.62751   0.60915   0.00000  Uiso   1.00
C341   C     0.31335   0.50900   0.59651   0.00000  Uiso   1.00
C342   C     0.26815   0.49197   0.55041   0.00000  Uiso   1.00
C343   C     0.41221   0.77821   0.67104   0.00000  Uiso   1.00
C344   C     0.50048   0.78638   0.71042   0.00000  Uiso   1.00
C345   C     0.54087   0.89620   0.71641   0.00000  Uiso   1.00
H346   H     0.23397   0.92359   0.57314   0.00000  Uiso   1.00
H347   H     0.13540   0.95167   0.58480   0.00000  Uiso   1.00
H348   H     0.18323   0.78458   0.50584   0.00000  Uiso   1.00
H349   H     0.37033   0.06192   0.61973   0.00000  Uiso   1.00
H350   H     0.04651   0.93953   0.61194   0.00000  Uiso   1.00
H351   H     0.14739   0.58722   0.44546   0.00000  Uiso   1.00
H352   H     0.54193   0.17204   0.68562   0.00000  Uiso   1.00
H353   H     0.39130   0.59045   0.68277   0.00000  Uiso   1.00
H354   H     0.30136   0.60025   0.70044   0.00000  Uiso   1.00
H355   H     0.34919   0.43316   0.62149   0.00000  Uiso   1.00
H356   H     0.53629   0.71050   0.73538   0.00000  Uiso   1.00
H357   H     0.18121   0.65430   0.70580   0.00000  Uiso   1.00
H358   H     0.28209   0.30200   0.53932   0.00000  Uiso   1.00
H359   H     0.67663   0.88681   0.77948   0.00000  Uiso   1.00
O360   O     0.05184   0.80935   0.66851   0.00000  Uiso   1.00
O361   O     0.18421   0.34714   0.45010   0.00000  Uiso   1.00
O362   O     0.70182   0.11441   0.76518   0.00000  Uiso   1.00
N363   N     0.09056   0.87108   0.63161   0.00000  Uiso   1.00
N364   N     0.18487   0.54168   0.47596   0.00000  Uiso   1.00
N365   N     0.55373   0.08843   0.70048   0.00000  Uiso   1.00
N366   N     0.16305   0.71760   0.68211   0.00000  Uiso   1.00
N367   N     0.25735   0.38821   0.52647   0.00000  Uiso   1.00
N368   N     0.62622   0.93495   0.75099   0.00000  Uiso   1.00
