data_job_01684
_audit_creation_date              2018-12-19
_audit_creation_method            'Materials Studio'
_symmetry_space_group_name_H-M    'P1'
_symmetry_Int_Tables_number       1
_symmetry_cell_setting            triclinic
loop_
_symmetry_equiv_pos_as_xyz
  x,y,z
_cell_length_a                    20.3193
_cell_length_b                    16.7904
_cell_length_c                    13.8043
_cell_angle_alpha                 90.0000
_cell_angle_beta                  148.0955
_cell_angle_gamma                 90.0000
loop_
_atom_site_label
_atom_site_type_symbol
_atom_site_fract_x
_atom_site_fract_y
_atom_site_fract_z
_atom_site_U_iso_or_equiv
_atom_site_adp_type
_atom_site_occupancy
C1     C     0.20257   0.34829   0.65522   0.00000  Uiso   1.00
C2     C     0.24460   0.41711   0.64351   0.00000  Uiso   1.00
C3     C     0.32150   0.47937   0.76777   0.00000  Uiso   1.00
C4     C     0.34907   0.53650   0.73276   0.00000  Uiso   1.00
C5     C     0.42154   0.64416   0.73792   0.00000  Uiso   1.00
C6     C     0.06061   0.34905   0.47529   0.00000  Uiso   1.00
C7     C     0.98281   0.35407   0.45813   0.00000  Uiso   1.00
C8     C     0.85550   0.35389   0.28150   0.00000  Uiso   1.00
C9     C     0.64232   0.35581   0.02551   0.00000  Uiso   1.00
C10    C     0.24234   0.27236   0.65281   0.00000  Uiso   1.00
C11    C     0.31732   0.21288   0.78487   0.00000  Uiso   1.00
C12    C     0.34300   0.14813   0.75768   0.00000  Uiso   1.00
C13    C     0.41198   0.03098   0.77731   0.00000  Uiso   1.00
C14    C     0.11481   0.33903   0.37208   0.00000  Uiso   1.00
C15    C     0.19693   0.41208   0.48971   0.00000  Uiso   1.00
C16    C     0.22440   0.46913   0.45451   0.00000  Uiso   1.00
C17    C     0.30133   0.53146   0.57869   0.00000  Uiso   1.00
C18    C     0.01294   0.34402   0.32150   0.00000  Uiso   1.00
C19    C     0.88572   0.34383   0.14486   0.00000  Uiso   1.00
C20    C     0.80775   0.34885   0.12742   0.00000  Uiso   1.00
C21    C     0.19468   0.26733   0.49902   0.00000  Uiso   1.00
C22    C     0.22023   0.20265   0.47161   0.00000  Uiso   1.00
C23    C     0.29524   0.14309   0.60360   0.00000  Uiso   1.00
H24    H     0.23967   0.35220   0.77495   0.00000  Uiso   1.00
H25    H     0.35836   0.48325   0.88677   0.00000  Uiso   1.00
H26    H     0.01972   0.35795   0.57717   0.00000  Uiso   1.00
H27    H     0.35419   0.21680   0.90386   0.00000  Uiso   1.00
H28    H     0.46888   0.62633   0.94287   0.00000  Uiso   1.00
H29    H     0.75486   0.36212   0.29007   0.00000  Uiso   1.00
H30    H     0.46014   0.06446   0.97898   0.00000  Uiso   1.00
H31    H     0.07770   0.33511   0.25233   0.00000  Uiso   1.00
H32    H     0.18750   0.46522   0.33548   0.00000  Uiso   1.00
H33    H     0.84887   0.33993   0.02588   0.00000  Uiso   1.00
H34    H     0.18333   0.19877   0.35258   0.00000  Uiso   1.00
H35    H     0.33021   0.61171   0.49543   0.00000  Uiso   1.00
H36    H     0.61618   0.34748   0.84262   0.00000  Uiso   1.00
H37    H     0.32146   0.04983   0.53153   0.00000  Uiso   1.00
O38    O     0.47467   0.70493   0.78324   0.00000  Uiso   1.00
O39    O     0.53790   0.35827   0.92680   0.00000  Uiso   1.00
O40    O     0.46321   0.96776   0.83063   0.00000  Uiso   1.00
N41    N     0.42120   0.60503   0.82618   0.00000  Uiso   1.00
N42    N     0.75363   0.35801   0.21584   0.00000  Uiso   1.00
N43    N     0.41298   0.07972   0.85989   0.00000  Uiso   1.00
N44    N     0.34658   0.59716   0.58541   0.00000  Uiso   1.00
N45    N     0.67901   0.35014   0.97508   0.00000  Uiso   1.00
N46    N     0.33836   0.07184   0.61912   0.00000  Uiso   1.00
C47    C     0.79743   0.84829   0.84478   0.00000  Uiso   1.00
C48    C     0.75540   0.91711   0.85649   0.00000  Uiso   1.00
C49    C     0.67850   0.97937   0.73223   0.00000  Uiso   1.00
C50    C     0.65093   0.03650   0.76724   0.00000  Uiso   1.00
C51    C     0.57846   0.14416   0.76208   0.00000  Uiso   1.00
C52    C     0.93939   0.84905   0.02471   0.00000  Uiso   1.00
C53    C     0.01719   0.85407   0.04187   0.00000  Uiso   1.00
C54    C     0.14450   0.85389   0.21850   0.00000  Uiso   1.00
C55    C     0.35768   0.85581   0.47449   0.00000  Uiso   1.00
C56    C     0.75766   0.77236   0.84719   0.00000  Uiso   1.00
C57    C     0.68268   0.71288   0.71513   0.00000  Uiso   1.00
C58    C     0.65700   0.64813   0.74232   0.00000  Uiso   1.00
C59    C     0.58802   0.53098   0.72269   0.00000  Uiso   1.00
C60    C     0.88519   0.83903   0.12792   0.00000  Uiso   1.00
C61    C     0.80307   0.91208   0.01029   0.00000  Uiso   1.00
C62    C     0.77560   0.96913   0.04549   0.00000  Uiso   1.00
C63    C     0.69867   0.03146   0.92131   0.00000  Uiso   1.00
C64    C     0.98706   0.84402   0.17850   0.00000  Uiso   1.00
C65    C     0.11428   0.84383   0.35514   0.00000  Uiso   1.00
C66    C     0.19225   0.84885   0.37258   0.00000  Uiso   1.00
C67    C     0.80532   0.76733   0.00098   0.00000  Uiso   1.00
C68    C     0.77977   0.70265   0.02839   0.00000  Uiso   1.00
C69    C     0.70476   0.64309   0.89640   0.00000  Uiso   1.00
H70    H     0.76033   0.85220   0.72505   0.00000  Uiso   1.00
H71    H     0.64164   0.98325   0.61323   0.00000  Uiso   1.00
H72    H     0.98028   0.85795   0.92283   0.00000  Uiso   1.00
H73    H     0.64581   0.71680   0.59614   0.00000  Uiso   1.00
H74    H     0.53112   0.12633   0.55713   0.00000  Uiso   1.00
H75    H     0.24514   0.86212   0.20993   0.00000  Uiso   1.00
H76    H     0.53986   0.56446   0.52102   0.00000  Uiso   1.00
H77    H     0.92230   0.83511   0.24767   0.00000  Uiso   1.00
H78    H     0.81250   0.96522   0.16452   0.00000  Uiso   1.00
H79    H     0.15113   0.83993   0.47412   0.00000  Uiso   1.00
H80    H     0.81667   0.69877   0.14742   0.00000  Uiso   1.00
H81    H     0.66979   0.11171   0.00457   0.00000  Uiso   1.00
H82    H     0.38382   0.84748   0.65738   0.00000  Uiso   1.00
H83    H     0.67854   0.54983   0.96847   0.00000  Uiso   1.00
O84    O     0.52533   0.20493   0.71676   0.00000  Uiso   1.00
O85    O     0.46210   0.85827   0.57320   0.00000  Uiso   1.00
O86    O     0.53679   0.46776   0.66937   0.00000  Uiso   1.00
N87    N     0.57880   0.10503   0.67382   0.00000  Uiso   1.00
N88    N     0.24637   0.85801   0.28416   0.00000  Uiso   1.00
N89    N     0.58702   0.57972   0.64011   0.00000  Uiso   1.00
N90    N     0.65342   0.09716   0.91459   0.00000  Uiso   1.00
N91    N     0.32099   0.85014   0.52492   0.00000  Uiso   1.00
N92    N     0.66164   0.57184   0.88088   0.00000  Uiso   1.00
C93    C     0.79743   0.65171   0.34478   0.00000  Uiso   1.00
C94    C     0.75540   0.58289   0.35649   0.00000  Uiso   1.00
C95    C     0.67850   0.52063   0.23223   0.00000  Uiso   1.00
C96    C     0.65093   0.46350   0.26724   0.00000  Uiso   1.00
C97    C     0.57846   0.35584   0.26208   0.00000  Uiso   1.00
C98    C     0.93939   0.65095   0.52471   0.00000  Uiso   1.00
C99    C     0.01719   0.64593   0.54187   0.00000  Uiso   1.00
C100   C     0.14450   0.64611   0.71850   0.00000  Uiso   1.00
C101   C     0.35768   0.64419   0.97449   0.00000  Uiso   1.00
C102   C     0.75766   0.72764   0.34719   0.00000  Uiso   1.00
C103   C     0.68268   0.78712   0.21513   0.00000  Uiso   1.00
C104   C     0.65700   0.85187   0.24232   0.00000  Uiso   1.00
C105   C     0.58802   0.96902   0.22269   0.00000  Uiso   1.00
C106   C     0.88519   0.66097   0.62792   0.00000  Uiso   1.00
C107   C     0.80307   0.58792   0.51029   0.00000  Uiso   1.00
C108   C     0.77560   0.53087   0.54549   0.00000  Uiso   1.00
C109   C     0.69867   0.46854   0.42131   0.00000  Uiso   1.00
C110   C     0.98706   0.65598   0.67850   0.00000  Uiso   1.00
C111   C     0.11428   0.65617   0.85514   0.00000  Uiso   1.00
C112   C     0.19225   0.65115   0.87258   0.00000  Uiso   1.00
C113   C     0.80532   0.73267   0.50098   0.00000  Uiso   1.00
C114   C     0.77977   0.79735   0.52839   0.00000  Uiso   1.00
C115   C     0.70476   0.85691   0.39640   0.00000  Uiso   1.00
H116   H     0.76033   0.64780   0.22505   0.00000  Uiso   1.00
H117   H     0.64164   0.51675   0.11323   0.00000  Uiso   1.00
H118   H     0.98028   0.64205   0.42283   0.00000  Uiso   1.00
H119   H     0.64581   0.78320   0.09614   0.00000  Uiso   1.00
H120   H     0.53112   0.37367   0.05713   0.00000  Uiso   1.00
H121   H     0.24514   0.63788   0.70993   0.00000  Uiso   1.00
H122   H     0.53986   0.93554   0.02102   0.00000  Uiso   1.00
H123   H     0.92230   0.66489   0.74767   0.00000  Uiso   1.00
H124   H     0.81250   0.53478   0.66452   0.00000  Uiso   1.00
H125   H     0.15113   0.66007   0.97412   0.00000  Uiso   1.00
H126   H     0.81667   0.80123   0.64742   0.00000  Uiso   1.00
H127   H     0.66979   0.38829   0.50457   0.00000  Uiso   1.00
H128   H     0.38382   0.65252   0.15738   0.00000  Uiso   1.00
H129   H     0.67854   0.95017   0.46847   0.00000  Uiso   1.00
O130   O     0.52533   0.29507   0.21676   0.00000  Uiso   1.00
O131   O     0.46210   0.64173   0.07320   0.00000  Uiso   1.00
O132   O     0.53679   0.03224   0.16937   0.00000  Uiso   1.00
N133   N     0.57880   0.39497   0.17382   0.00000  Uiso   1.00
N134   N     0.24637   0.64199   0.78416   0.00000  Uiso   1.00
N135   N     0.58702   0.92028   0.14011   0.00000  Uiso   1.00
N136   N     0.65342   0.40284   0.41459   0.00000  Uiso   1.00
N137   N     0.32099   0.64986   0.02492   0.00000  Uiso   1.00
N138   N     0.66164   0.92816   0.38088   0.00000  Uiso   1.00
C139   C     0.20257   0.15171   0.15522   0.00000  Uiso   1.00
C140   C     0.24460   0.08289   0.14351   0.00000  Uiso   1.00
C141   C     0.32150   0.02063   0.26777   0.00000  Uiso   1.00
C142   C     0.34907   0.96350   0.23276   0.00000  Uiso   1.00
C143   C     0.42154   0.85584   0.23792   0.00000  Uiso   1.00
C144   C     0.06061   0.15095   0.97529   0.00000  Uiso   1.00
C145   C     0.98281   0.14593   0.95813   0.00000  Uiso   1.00
C146   C     0.85550   0.14611   0.78150   0.00000  Uiso   1.00
C147   C     0.64232   0.14419   0.52551   0.00000  Uiso   1.00
C148   C     0.24234   0.22764   0.15281   0.00000  Uiso   1.00
C149   C     0.31732   0.28712   0.28487   0.00000  Uiso   1.00
C150   C     0.34300   0.35187   0.25768   0.00000  Uiso   1.00
C151   C     0.41198   0.46902   0.27731   0.00000  Uiso   1.00
C152   C     0.11481   0.16097   0.87208   0.00000  Uiso   1.00
C153   C     0.19693   0.08792   0.98971   0.00000  Uiso   1.00
C154   C     0.22440   0.03087   0.95451   0.00000  Uiso   1.00
C155   C     0.30133   0.96854   0.07869   0.00000  Uiso   1.00
C156   C     0.01294   0.15598   0.82150   0.00000  Uiso   1.00
C157   C     0.88572   0.15617   0.64486   0.00000  Uiso   1.00
C158   C     0.80775   0.15115   0.62742   0.00000  Uiso   1.00
C159   C     0.19468   0.23267   0.99902   0.00000  Uiso   1.00
C160   C     0.22023   0.29735   0.97161   0.00000  Uiso   1.00
C161   C     0.29524   0.35691   0.10360   0.00000  Uiso   1.00
H162   H     0.23967   0.14780   0.27495   0.00000  Uiso   1.00
H163   H     0.35836   0.01675   0.38677   0.00000  Uiso   1.00
H164   H     0.01972   0.14205   0.07717   0.00000  Uiso   1.00
H165   H     0.35419   0.28320   0.40386   0.00000  Uiso   1.00
H166   H     0.46888   0.87367   0.44287   0.00000  Uiso   1.00
H167   H     0.75486   0.13788   0.79007   0.00000  Uiso   1.00
H168   H     0.46014   0.43554   0.47898   0.00000  Uiso   1.00
H169   H     0.07770   0.16489   0.75233   0.00000  Uiso   1.00
H170   H     0.18750   0.03478   0.83548   0.00000  Uiso   1.00
H171   H     0.84887   0.16007   0.52588   0.00000  Uiso   1.00
H172   H     0.18333   0.30123   0.85258   0.00000  Uiso   1.00
H173   H     0.33021   0.88829   0.99543   0.00000  Uiso   1.00
H174   H     0.61618   0.15252   0.34262   0.00000  Uiso   1.00
H175   H     0.32146   0.45017   0.03153   0.00000  Uiso   1.00
O176   O     0.47467   0.79507   0.28324   0.00000  Uiso   1.00
O177   O     0.53790   0.14173   0.42680   0.00000  Uiso   1.00
O178   O     0.46321   0.53224   0.33063   0.00000  Uiso   1.00
N179   N     0.42120   0.89497   0.32618   0.00000  Uiso   1.00
N180   N     0.75363   0.14199   0.71584   0.00000  Uiso   1.00
N181   N     0.41298   0.42028   0.35989   0.00000  Uiso   1.00
N182   N     0.34658   0.90284   0.08541   0.00000  Uiso   1.00
N183   N     0.67901   0.14986   0.47508   0.00000  Uiso   1.00
N184   N     0.33836   0.42816   0.11912   0.00000  Uiso   1.00
