data_job_07062
_audit_creation_date              2018-12-19
_audit_creation_method            'Materials Studio'
_symmetry_space_group_name_H-M    'P1'
_symmetry_Int_Tables_number       1
_symmetry_cell_setting            triclinic
loop_
_symmetry_equiv_pos_as_xyz
  x,y,z
_cell_length_a                    19.8372
_cell_length_b                    20.8414
_cell_length_c                    24.6101
_cell_angle_alpha                 112.7082
_cell_angle_beta                  91.9115
_cell_angle_gamma                 107.9042
loop_
_atom_site_label
_atom_site_type_symbol
_atom_site_fract_x
_atom_site_fract_y
_atom_site_fract_z
_atom_site_U_iso_or_equiv
_atom_site_adp_type
_atom_site_occupancy
C1     C     0.33154   0.38517   0.20331   0.00000  Uiso   1.00
C2     C     0.33139   0.31945   0.14706   0.00000  Uiso   1.00
C3     C     0.28173   0.24794   0.12570   0.00000  Uiso   1.00
C4     C     0.29089   0.19566   0.07349   0.00000  Uiso   1.00
C5     C     0.28204   0.09078   0.99069   0.00000  Uiso   1.00
C6     C     0.40512   0.41413   0.24208   0.00000  Uiso   1.00
C7     C     0.41744   0.42223   0.30060   0.00000  Uiso   1.00
C8     C     0.48867   0.44967   0.32838   0.00000  Uiso   1.00
C9     C     0.59427   0.49183   0.39310   0.00000  Uiso   1.00
C10    C     0.32979   0.44544   0.18329   0.00000  Uiso   1.00
C11    C     0.27880   0.47988   0.19240   0.00000  Uiso   1.00
C12    C     0.28663   0.53369   0.17070   0.00000  Uiso   1.00
C13    C     0.27528   0.62445   0.14415   0.00000  Uiso   1.00
C14    C     0.43612   0.41949   0.14858   0.00000  Uiso   1.00
C15    C     0.38820   0.33810   0.11734   0.00000  Uiso   1.00
C16    C     0.39744   0.28592   0.06514   0.00000  Uiso   1.00
C17    C     0.34780   0.21434   0.04370   0.00000  Uiso   1.00
C18    C     0.46192   0.43278   0.21235   0.00000  Uiso   1.00
C19    C     0.53315   0.46021   0.24005   0.00000  Uiso   1.00
C20    C     0.54558   0.46834   0.29860   0.00000  Uiso   1.00
C21    C     0.38660   0.46408   0.15356   0.00000  Uiso   1.00
C22    C     0.39451   0.51785   0.13185   0.00000  Uiso   1.00
C23    C     0.34353   0.55237   0.14092   0.00000  Uiso   1.00
H24    H     0.28732   0.37066   0.22646   0.00000  Uiso   1.00
H25    H     0.23778   0.23353   0.14872   0.00000  Uiso   1.00
H26    H     0.37347   0.40781   0.32360   0.00000  Uiso   1.00
H27    H     0.23485   0.46544   0.21541   0.00000  Uiso   1.00
H28    H     0.20792   0.08972   0.04943   0.00000  Uiso   1.00
H29    H     0.49403   0.45721   0.41818   0.00000  Uiso   1.00
H30    H     0.20173   0.57875   0.19005   0.00000  Uiso   1.00
H31    H     0.48035   0.43401   0.12544   0.00000  Uiso   1.00
H32    H     0.44140   0.30036   0.04215   0.00000  Uiso   1.00
H33    H     0.57709   0.47463   0.21703   0.00000  Uiso   1.00
H34    H     0.43847   0.53227   0.10884   0.00000  Uiso   1.00
H35    H     0.37319   0.14396   0.96294   0.00000  Uiso   1.00
H36    H     0.65930   0.51145   0.33169   0.00000  Uiso   1.00
H37    H     0.36699   0.63298   0.10356   0.00000  Uiso   1.00
O38    O     0.26147   0.02778   0.95323   0.00000  Uiso   1.00
O39    O     0.63682   0.50992   0.43702   0.00000  Uiso   1.00
O40    O     0.25333   0.66936   0.13771   0.00000  Uiso   1.00
N41    N     0.25216   0.12083   0.04050   0.00000  Uiso   1.00
N42    N     0.51965   0.46440   0.38525   0.00000  Uiso   1.00
N43    N     0.24638   0.57804   0.17199   0.00000  Uiso   1.00
N44    N     0.34108   0.15002   0.99396   0.00000  Uiso   1.00
N45    N     0.60858   0.49359   0.33871   0.00000  Uiso   1.00
N46    N     0.33531   0.60722   0.12544   0.00000  Uiso   1.00
C47    C     0.86290   0.98515   0.46058   0.00000  Uiso   1.00
C48    C     0.93403   0.01615   0.44207   0.00000  Uiso   1.00
C49    C     0.94883   0.06733   0.41713   0.00000  Uiso   1.00
C50    C     0.01714   0.08871   0.40329   0.00000  Uiso   1.00
C51    C     0.11972   0.14119   0.37288   0.00000  Uiso   1.00
C52    C     0.83878   0.90104   0.42678   0.00000  Uiso   1.00
C53    C     0.77348   0.85546   0.38900   0.00000  Uiso   1.00
C54    C     0.76160   0.77994   0.36229   0.00000  Uiso   1.00
C55    C     0.71627   0.65372   0.30819   0.00000  Uiso   1.00
C56    C     0.88101   0.00189   0.52644   0.00000  Uiso   1.00
C57    C     0.85122   0.04108   0.57245   0.00000  Uiso   1.00
C58    C     0.87489   0.05045   0.62966   0.00000  Uiso   1.00
C59    C     0.89514   0.08081   0.73029   0.00000  Uiso   1.00
C60    C     0.95791   0.93209   0.48036   0.00000  Uiso   1.00
C61    C     0.98563   0.98732   0.45281   0.00000  Uiso   1.00
C62    C     0.05395   0.00863   0.43900   0.00000  Uiso   1.00
C63    C     0.06884   0.05984   0.41405   0.00000  Uiso   1.00
C64    C     0.89038   0.87222   0.43752   0.00000  Uiso   1.00
C65    C     0.87859   0.79675   0.41087   0.00000  Uiso   1.00
C66    C     0.81330   0.75106   0.37305   0.00000  Uiso   1.00
C67    C     0.93262   0.97307   0.53718   0.00000  Uiso   1.00
C68    C     0.95634   0.98238   0.59433   0.00000  Uiso   1.00
C69    C     0.92659   0.02157   0.64041   0.00000  Uiso   1.00
H70    H     0.82272   0.00758   0.45222   0.00000  Uiso   1.00
H71    H     0.90887   0.08962   0.40882   0.00000  Uiso   1.00
H72    H     0.73355   0.87778   0.38070   0.00000  Uiso   1.00
H73    H     0.81128   0.06337   0.56412   0.00000  Uiso   1.00
H74    H     0.02714   0.16784   0.36542   0.00000  Uiso   1.00
H75    H     0.65744   0.72115   0.30614   0.00000  Uiso   1.00
H76    H     0.82135   0.11252   0.69293   0.00000  Uiso   1.00
H77    H     0.99809   0.90965   0.48872   0.00000  Uiso   1.00
H78    H     0.09387   0.98631   0.44732   0.00000  Uiso   1.00
H79    H     0.91854   0.77447   0.41919   0.00000  Uiso   1.00
H80    H     0.99627   0.96007   0.60262   0.00000  Uiso   1.00
H81    H     0.17728   0.08399   0.39666   0.00000  Uiso   1.00
H82    H     0.80759   0.63730   0.33738   0.00000  Uiso   1.00
H83    H     0.97150   0.02867   0.72417   0.00000  Uiso   1.00
O84    O     0.16204   0.17809   0.35313   0.00000  Uiso   1.00
O85    O     0.67701   0.59206   0.27537   0.00000  Uiso   1.00
O86    O     0.89206   0.10553   0.78283   0.00000  Uiso   1.00
N87    N     0.04933   0.13759   0.37847   0.00000  Uiso   1.00
N88    N     0.70370   0.71997   0.32303   0.00000  Uiso   1.00
N89    N     0.85693   0.08585   0.68465   0.00000  Uiso   1.00
N90    N     0.13013   0.09248   0.39528   0.00000  Uiso   1.00
N91    N     0.78449   0.67486   0.33985   0.00000  Uiso   1.00
N92    N     0.93772   0.04073   0.70146   0.00000  Uiso   1.00
C93    C     0.80161   0.85214   0.72082   0.00000  Uiso   1.00
C94    C     0.79896   0.81463   0.76343   0.00000  Uiso   1.00
C95    C     0.85131   0.83712   0.81229   0.00000  Uiso   1.00
C96    C     0.83886   0.79541   0.84572   0.00000  Uiso   1.00
C97    C     0.84428   0.74657   0.91415   0.00000  Uiso   1.00
C98    C     0.79365   0.79228   0.65837   0.00000  Uiso   1.00
C99    C     0.84152   0.79600   0.61889   0.00000  Uiso   1.00
C100   C     0.82458   0.73548   0.56387   0.00000  Uiso   1.00
C101   C     0.82173   0.65197   0.46917   0.00000  Uiso   1.00
C102   C     0.73328   0.87131   0.72179   0.00000  Uiso   1.00
C103   C     0.73039   0.94147   0.73561   0.00000  Uiso   1.00
C104   C     0.66263   0.94748   0.73398   0.00000  Uiso   1.00
C105   C     0.56605   0.98667   0.73774   0.00000  Uiso   1.00
C106   C     0.68641   0.73804   0.69330   0.00000  Uiso   1.00
C107   C     0.73639   0.75265   0.74848   0.00000  Uiso   1.00
C108   C     0.72386   0.71089   0.78185   0.00000  Uiso   1.00
C109   C     0.77617   0.73332   0.83075   0.00000  Uiso   1.00
C110   C     0.73108   0.73031   0.64342   0.00000  Uiso   1.00
C111   C     0.71407   0.66977   0.58845   0.00000  Uiso   1.00
C112   C     0.76190   0.67339   0.54890   0.00000  Uiso   1.00
C113   C     0.67071   0.80933   0.70684   0.00000  Uiso   1.00
C114   C     0.60294   0.81523   0.70518   0.00000  Uiso   1.00
C115   C     0.59995   0.88539   0.71900   0.00000  Uiso   1.00
H116   H     0.85032   0.90038   0.73245   0.00000  Uiso   1.00
H117   H     0.89973   0.88509   0.82384   0.00000  Uiso   1.00
H118   H     0.88993   0.84397   0.63047   0.00000  Uiso   1.00
H119   H     0.77882   0.98941   0.74718   0.00000  Uiso   1.00
H120   H     0.92692   0.84078   0.91856   0.00000  Uiso   1.00
H121   H     0.90625   0.75410   0.51082   0.00000  Uiso   1.00
H122   H     0.67195   0.06080   0.75692   0.00000  Uiso   1.00
H123   H     0.63770   0.68979   0.68166   0.00000  Uiso   1.00
H124   H     0.67543   0.66293   0.77027   0.00000  Uiso   1.00
H125   H     0.66564   0.62182   0.57690   0.00000  Uiso   1.00
H126   H     0.55453   0.76726   0.69361   0.00000  Uiso   1.00
H127   H     0.74487   0.66047   0.87508   0.00000  Uiso   1.00
H128   H     0.72421   0.57379   0.46734   0.00000  Uiso   1.00
H129   H     0.48991   0.88048   0.71344   0.00000  Uiso   1.00
O130   O     0.86456   0.73674   0.95602   0.00000  Uiso   1.00
O131   O     0.83745   0.62303   0.42107   0.00000  Uiso   1.00
O132   O     0.53006   0.02541   0.74395   0.00000  Uiso   1.00
N133   N     0.87889   0.80203   0.89618   0.00000  Uiso   1.00
N134   N     0.85957   0.72099   0.51496   0.00000  Uiso   1.00
N135   N     0.64052   0.00772   0.74503   0.00000  Uiso   1.00
N136   N     0.78093   0.70501   0.87278   0.00000  Uiso   1.00
N137   N     0.76162   0.62397   0.49157   0.00000  Uiso   1.00
N138   N     0.54257   0.91070   0.72164   0.00000  Uiso   1.00
C139   C     0.98050   0.68021   0.01471   0.00000  Uiso   1.00
C140   C     0.92488   0.60411   0.00051   0.00000  Uiso   1.00
C141   C     0.85284   0.58025   0.97608   0.00000  Uiso   1.00
C142   C     0.81076   0.50866   0.96645   0.00000  Uiso   1.00
C143   C     0.71999   0.39748   0.94220   0.00000  Uiso   1.00
C144   C     0.04106   0.66581   0.98077   0.00000  Uiso   1.00
C145   C     0.06670   0.69385   0.93975   0.00000  Uiso   1.00
C146   C     0.12242   0.67420   0.91352   0.00000  Uiso   1.00
C147   C     0.21205   0.65887   0.85866   0.00000  Uiso   1.00
C148   C     0.01214   0.71263   0.08090   0.00000  Uiso   1.00
C149   C     0.01349   0.78005   0.12407   0.00000  Uiso   1.00
C150   C     0.04489   0.79984   0.18214   0.00000  Uiso   1.00
C151   C     0.08962   0.85720   0.28274   0.00000  Uiso   1.00
C152   C     0.03387   0.59548   0.04106   0.00000  Uiso   1.00
C153   C     0.95387   0.55808   0.01482   0.00000  Uiso   1.00
C154   C     0.91188   0.48651   0.00524   0.00000  Uiso   1.00
C155   C     0.83979   0.46255   0.98080   0.00000  Uiso   1.00
C156   C     0.07004   0.61979   0.99509   0.00000  Uiso   1.00
C157   C     0.12574   0.60010   0.96891   0.00000  Uiso   1.00
C158   C     0.15145   0.62810   0.92786   0.00000  Uiso   1.00
C159   C     0.04113   0.66661   0.09522   0.00000  Uiso   1.00
C160   C     0.07253   0.68630   0.15323   0.00000  Uiso   1.00
C161   C     0.07392   0.75373   0.19648   0.00000  Uiso   1.00
H162   H     0.95794   0.71604   0.00356   0.00000  Uiso   1.00
H163   H     0.83044   0.61588   0.96500   0.00000  Uiso   1.00
H164   H     0.04426   0.72947   0.92869   0.00000  Uiso   1.00
H165   H     0.99106   0.81565   0.11297   0.00000  Uiso   1.00
H166   H     0.70186   0.48454   0.92854   0.00000  Uiso   1.00
H167   H     0.15274   0.72406   0.85199   0.00000  Uiso   1.00
H168   H     0.04056   0.90580   0.24059   0.00000  Uiso   1.00
H169   H     0.05643   0.55964   0.05221   0.00000  Uiso   1.00
H170   H     0.93433   0.45090   0.01632   0.00000  Uiso   1.00
H171   H     0.14816   0.56449   0.98001   0.00000  Uiso   1.00
H172   H     0.09495   0.65067   0.16429   0.00000  Uiso   1.00
H173   H     0.78618   0.35063   0.97019   0.00000  Uiso   1.00
H174   H     0.23707   0.59016   0.89364   0.00000  Uiso   1.00
H175   H     0.12488   0.77189   0.28224   0.00000  Uiso   1.00
O176   O     0.66192   0.34887   0.92486   0.00000  Uiso   1.00
O177   O     0.25347   0.66312   0.82444   0.00000  Uiso   1.00
O178   O     0.10628   0.90155   0.33427   0.00000  Uiso   1.00
N179   N     0.73846   0.46795   0.94328   0.00000  Uiso   1.00
N180   N     0.16000   0.69188   0.87170   0.00000  Uiso   1.00
N181   N     0.05513   0.86180   0.23501   0.00000  Uiso   1.00
N182   N     0.78383   0.39590   0.96569   0.00000  Uiso   1.00
N183   N     0.20537   0.61983   0.89412   0.00000  Uiso   1.00
N184   N     0.10051   0.78975   0.25742   0.00000  Uiso   1.00
C185   C     0.40765   0.00052   0.27461   0.00000  Uiso   1.00
C186   C     0.48629   0.03318   0.30467   0.00000  Uiso   1.00
C187   C     0.51223   0.03272   0.35753   0.00000  Uiso   1.00
C188   C     0.58597   0.06544   0.37766   0.00000  Uiso   1.00
C189   C     0.70107   0.11125   0.42913   0.00000  Uiso   1.00
C190   C     0.40469   0.94511   0.21133   0.00000  Uiso   1.00
C191   C     0.36200   0.87060   0.18573   0.00000  Uiso   1.00
C192   C     0.36703   0.82918   0.12729   0.00000  Uiso   1.00
C193   C     0.35540   0.73828   0.03385   0.00000  Uiso   1.00
C194   C     0.39012   0.06365   0.26788   0.00000  Uiso   1.00
C195   C     0.33518   0.08880   0.28981   0.00000  Uiso   1.00
C196   C     0.32794   0.14718   0.27897   0.00000  Uiso   1.00
C197   C     0.29369   0.24033   0.27333   0.00000  Uiso   1.00
C198   C     0.49249   0.05946   0.21634   0.00000  Uiso   1.00
C199   C     0.53237   0.06520   0.27301   0.00000  Uiso   1.00
C200   C     0.60609   0.09793   0.29307   0.00000  Uiso   1.00
C201   C     0.63213   0.09751   0.34596   0.00000  Uiso   1.00
C202   C     0.45076   0.97712   0.17968   0.00000  Uiso   1.00
C203   C     0.45586   0.93581   0.12126   0.00000  Uiso   1.00
C204   C     0.41319   0.86125   0.09558   0.00000  Uiso   1.00
C205   C     0.43620   0.09567   0.23623   0.00000  Uiso   1.00
C206   C     0.42904   0.15402   0.22535   0.00000  Uiso   1.00
C207   C     0.37410   0.17925   0.24726   0.00000  Uiso   1.00
H208   H     0.37178   0.97559   0.29924   0.00000  Uiso   1.00
H209   H     0.47655   0.00793   0.38201   0.00000  Uiso   1.00
H210   H     0.32634   0.84584   0.21023   0.00000  Uiso   1.00
H211   H     0.29953   0.06401   0.31430   0.00000  Uiso   1.00
H212   H     0.61304   0.05787   0.45981   0.00000  Uiso   1.00
H213   H     0.29629   0.71611   0.09760   0.00000  Uiso   1.00
H214   H     0.23975   0.17616   0.31704   0.00000  Uiso   1.00
H215   H     0.52836   0.08439   0.19169   0.00000  Uiso   1.00
H216   H     0.64173   0.12270   0.26856   0.00000  Uiso   1.00
H217   H     0.49152   0.96061   0.09678   0.00000  Uiso   1.00
H218   H     0.46471   0.17878   0.20085   0.00000  Uiso   1.00
H219   H     0.74711   0.15103   0.36773   0.00000  Uiso   1.00
H220   H     0.43035   0.80925   0.00551   0.00000  Uiso   1.00
H221   H     0.37381   0.26931   0.22496   0.00000  Uiso   1.00
O222   O     0.75183   0.12767   0.46626   0.00000  Uiso   1.00
O223   O     0.33625   0.67928   0.99106   0.00000  Uiso   1.00
O224   O     0.26207   0.28287   0.27897   0.00000  Uiso   1.00
N225   N     0.62903   0.07455   0.42759   0.00000  Uiso   1.00
N226   N     0.33290   0.75502   0.08895   0.00000  Uiso   1.00
N227   N     0.28002   0.18512   0.29410   0.00000  Uiso   1.00
N228   N     0.70117   0.12468   0.37804   0.00000  Uiso   1.00
N229   N     0.40504   0.80514   0.03940   0.00000  Uiso   1.00
N230   N     0.35216   0.23524   0.24456   0.00000  Uiso   1.00
C231   C     0.35099   0.90277   0.70175   0.00000  Uiso   1.00
C232   C     0.36221   0.85522   0.64020   0.00000  Uiso   1.00
C233   C     0.40901   0.88056   0.60632   0.00000  Uiso   1.00
C234   C     0.41146   0.82828   0.55115   0.00000  Uiso   1.00
C235   C     0.43543   0.76584   0.45871   0.00000  Uiso   1.00
C236   C     0.36595   0.86800   0.74303   0.00000  Uiso   1.00
C237   C     0.41588   0.90409   0.79561   0.00000  Uiso   1.00
C238   C     0.42147   0.86257   0.82701   0.00000  Uiso   1.00
C239   C     0.45120   0.81999   0.89423   0.00000  Uiso   1.00
C240   C     0.27078   0.89058   0.69618   0.00000  Uiso   1.00
C241   C     0.24068   0.94566   0.70938   0.00000  Uiso   1.00
C242   C     0.16614   0.92316   0.70135   0.00000  Uiso   1.00
C243   C     0.04811   0.91563   0.69583   0.00000  Uiso   1.00
C244   C     0.27214   0.76487   0.66403   0.00000  Uiso   1.00
C245   C     0.31939   0.78032   0.61971   0.00000  Uiso   1.00
C246   C     0.32177   0.72799   0.56458   0.00000  Uiso   1.00
C247   C     0.36856   0.75325   0.53062   0.00000  Uiso   1.00
C248   C     0.32312   0.79310   0.72254   0.00000  Uiso   1.00
C249   C     0.32864   0.75152   0.75387   0.00000  Uiso   1.00
C250   C     0.37856   0.78754   0.80648   0.00000  Uiso   1.00
C251   C     0.22795   0.81568   0.67569   0.00000  Uiso   1.00
C252   C     0.15344   0.79309   0.66764   0.00000  Uiso   1.00
C253   C     0.12324   0.84812   0.68083   0.00000  Uiso   1.00
H254   H     0.38433   0.96108   0.71771   0.00000  Uiso   1.00
H255   H     0.44215   0.93853   0.62219   0.00000  Uiso   1.00
H256   H     0.44901   0.96206   0.81146   0.00000  Uiso   1.00
H257   H     0.27384   0.00362   0.72524   0.00000  Uiso   1.00
H258   H     0.48737   0.88049   0.50727   0.00000  Uiso   1.00
H259   H     0.50182   0.93011   0.90635   0.00000  Uiso   1.00
H260   H     0.13245   0.01775   0.72455   0.00000  Uiso   1.00
H261   H     0.23880   0.70655   0.64808   0.00000  Uiso   1.00
H262   H     0.28862   0.67003   0.54874   0.00000  Uiso   1.00
H263   H     0.29549   0.69356   0.73800   0.00000  Uiso   1.00
H264   H     0.12032   0.73512   0.65178   0.00000  Uiso   1.00
H265   H     0.36277   0.66256   0.44765   0.00000  Uiso   1.00
H266   H     0.37722   0.71218   0.84674   0.00000  Uiso   1.00
H267   H     0.00784   0.79982   0.66493   0.00000  Uiso   1.00
O268   O     0.46049   0.75209   0.41338   0.00000  Uiso   1.00
O269   O     0.47944   0.81719   0.93696   0.00000  Uiso   1.00
O270   O     0.99483   0.93217   0.69844   0.00000  Uiso   1.00
N271   N     0.45120   0.83421   0.50687   0.00000  Uiso   1.00
N272   N     0.46472   0.88060   0.87998   0.00000  Uiso   1.00
N273   N     0.11938   0.96254   0.71003   0.00000  Uiso   1.00
N274   N     0.38415   0.71695   0.47479   0.00000  Uiso   1.00
N275   N     0.39767   0.76334   0.84790   0.00000  Uiso   1.00
N276   N     0.05233   0.84527   0.67795   0.00000  Uiso   1.00
C277   C     0.75277   0.77707   0.08412   0.00000  Uiso   1.00
C278   C     0.75543   0.84606   0.13853   0.00000  Uiso   1.00
C279   C     0.80514   0.91687   0.15561   0.00000  Uiso   1.00
C280   C     0.79847   0.97255   0.20679   0.00000  Uiso   1.00
C281   C     0.81086   0.08191   0.28627   0.00000  Uiso   1.00
C282   C     0.67759   0.74617   0.04741   0.00000  Uiso   1.00
C283   C     0.66186   0.73300   0.98786   0.00000  Uiso   1.00
C284   C     0.58966   0.70458   0.96233   0.00000  Uiso   1.00
C285   C     0.48120   0.65882   0.90032   0.00000  Uiso   1.00
C286   C     0.75659   0.72045   0.10788   0.00000  Uiso   1.00
C287   C     0.80726   0.68563   0.09917   0.00000  Uiso   1.00
C288   C     0.80157   0.63555   0.12455   0.00000  Uiso   1.00
C289   C     0.81577   0.54985   0.15644   0.00000  Uiso   1.00
C290   C     0.65252   0.75002   0.14464   0.00000  Uiso   1.00
C291   C     0.70098   0.83136   0.17141   0.00000  Uiso   1.00
C292   C     0.69423   0.88695   0.22258   0.00000  Uiso   1.00
C293   C     0.74393   0.95783   0.23973   0.00000  Uiso   1.00
C294   C     0.62314   0.73148   0.08028   0.00000  Uiso   1.00
C295   C     0.55095   0.70307   0.05483   0.00000  Uiso   1.00
C296   C     0.53511   0.68986   0.99527   0.00000  Uiso   1.00
C297   C     0.70214   0.70576   0.14076   0.00000  Uiso   1.00
C298   C     0.69636   0.65571   0.16615   0.00000  Uiso   1.00
C299   C     0.74702   0.62083   0.15748   0.00000  Uiso   1.00
H300   H     0.79515   0.78851   0.05852   0.00000  Uiso   1.00
H301   H     0.84726   0.92822   0.13015   0.00000  Uiso   1.00
H302   H     0.70400   0.74437   0.96243   0.00000  Uiso   1.00
H303   H     0.84939   0.69702   0.07373   0.00000  Uiso   1.00
H304   H     0.88101   0.07664   0.22406   0.00000  Uiso   1.00
H305   H     0.57894   0.68896   0.87041   0.00000  Uiso   1.00
H306   H     0.88552   0.58910   0.10510   0.00000  Uiso   1.00
H307   H     0.61013   0.73858   0.17024   0.00000  Uiso   1.00
H308   H     0.65209   0.87556   0.24801   0.00000  Uiso   1.00
H309   H     0.50883   0.69171   0.08029   0.00000  Uiso   1.00
H310   H     0.65422   0.64436   0.19158   0.00000  Uiso   1.00
H311   H     0.72260   0.03390   0.31972   0.00000  Uiso   1.00
H312   H     0.42053   0.64621   0.96606   0.00000  Uiso   1.00
H313   H     0.72711   0.54636   0.20075   0.00000  Uiso   1.00
O314   O     0.83273   0.14628   0.32103   0.00000  Uiso   1.00
O315   O     0.43643   0.63764   0.85704   0.00000  Uiso   1.00
O316   O     0.83865   0.50664   0.16495   0.00000  Uiso   1.00
N317   N     0.83798   0.04778   0.23591   0.00000  Uiso   1.00
N318   N     0.55556   0.68533   0.90527   0.00000  Uiso   1.00
N319   N     0.84217   0.59196   0.12467   0.00000  Uiso   1.00
N320   N     0.75274   0.02478   0.28738   0.00000  Uiso   1.00
N321   N     0.47032   0.66233   0.95674   0.00000  Uiso   1.00
N322   N     0.75693   0.56896   0.17614   0.00000  Uiso   1.00
C323   C     0.26435   0.17604   0.81784   0.00000  Uiso   1.00
C324   C     0.19876   0.13261   0.83566   0.00000  Uiso   1.00
C325   C     0.19625   0.07936   0.85696   0.00000  Uiso   1.00
C326   C     0.13116   0.04594   0.87080   0.00000  Uiso   1.00
C327   C     0.03850   0.97561   0.89960   0.00000  Uiso   1.00
C328   C     0.27705   0.25779   0.85538   0.00000  Uiso   1.00
C329   C     0.34038   0.30979   0.89324   0.00000  Uiso   1.00
C330   C     0.34119   0.38176   0.92367   0.00000  Uiso   1.00
C331   C     0.37010   0.50579   0.98305   0.00000  Uiso   1.00
C332   C     0.24109   0.16194   0.75336   0.00000  Uiso   1.00
C333   C     0.27419   0.13337   0.70544   0.00000  Uiso   1.00
C334   C     0.24474   0.12466   0.64998   0.00000  Uiso   1.00
C335   C     0.21782   0.09987   0.55096   0.00000  Uiso   1.00
C336   C     0.15321   0.21139   0.80453   0.00000  Uiso   1.00
C337   C     0.13839   0.15181   0.82844   0.00000  Uiso   1.00
C338   C     0.07329   0.11847   0.84224   0.00000  Uiso   1.00
C339   C     0.07069   0.06517   0.86355   0.00000  Uiso   1.00
C340   C     0.21669   0.27699   0.84815   0.00000  Uiso   1.00
C341   C     0.21741   0.34890   0.87852   0.00000  Uiso   1.00
C342   C     0.28072   0.40100   0.91643   0.00000  Uiso   1.00
C343   C     0.18072   0.18114   0.74613   0.00000  Uiso   1.00
C344   C     0.15122   0.17248   0.69072   0.00000  Uiso   1.00
C345   C     0.18427   0.14390   0.64274   0.00000  Uiso   1.00
H346   H     0.31135   0.16109   0.82346   0.00000  Uiso   1.00
H347   H     0.24298   0.06452   0.86255   0.00000  Uiso   1.00
H348   H     0.38708   0.29492   0.89882   0.00000  Uiso   1.00
H349   H     0.32090   0.11852   0.71105   0.00000  Uiso   1.00
H350   H     0.14057   0.96593   0.90272   0.00000  Uiso   1.00
H351   H     0.44442   0.45175   0.97919   0.00000  Uiso   1.00
H352   H     0.30487   0.07979   0.58324   0.00000  Uiso   1.00
H353   H     0.10621   0.22634   0.79890   0.00000  Uiso   1.00
H354   H     0.02658   0.13334   0.83664   0.00000  Uiso   1.00
H355   H     0.17069   0.36374   0.87292   0.00000  Uiso   1.00
H356   H     0.10451   0.18735   0.68515   0.00000  Uiso   1.00
H357   H     0.96493   0.02179   0.88170   0.00000  Uiso   1.00
H358   H     0.26879   0.50761   0.95816   0.00000  Uiso   1.00
H359   H     0.12923   0.13565   0.56221   0.00000  Uiso   1.00
O360   O     0.00407   0.93153   0.91750   0.00000  Uiso   1.00
O361   O     0.40273   0.56890   0.01781   0.00000  Uiso   1.00
O362   O     0.21963   0.08089   0.49833   0.00000  Uiso   1.00
N363   N     0.11015   0.99183   0.89258   0.00000  Uiso   1.00
N364   N     0.39424   0.44604   0.96408   0.00000  Uiso   1.00
N365   N     0.26378   0.09830   0.59390   0.00000  Uiso   1.00
N366   N     0.01564   0.02189   0.88127   0.00000  Uiso   1.00
N367   N     0.29973   0.47610   0.95277   0.00000  Uiso   1.00
N368   N     0.16927   0.12836   0.58259   0.00000  Uiso   1.00
C369   C     0.30839   0.33776   0.56003   0.00000  Uiso   1.00
C370   C     0.32867   0.39458   0.53325   0.00000  Uiso   1.00
C371   C     0.28892   0.39189   0.48444   0.00000  Uiso   1.00
C372   C     0.31663   0.44919   0.46683   0.00000  Uiso   1.00
C373   C     0.33819   0.52862   0.42068   0.00000  Uiso   1.00
C374   C     0.30699   0.38109   0.62579   0.00000  Uiso   1.00
C375   C     0.24902   0.36707   0.65478   0.00000  Uiso   1.00
C376   C     0.25849   0.41301   0.71508   0.00000  Uiso   1.00
C377   C     0.24642   0.47147   0.81260   0.00000  Uiso   1.00
C378   C     0.37168   0.31062   0.55911   0.00000  Uiso   1.00
C379   C     0.36810   0.23734   0.53205   0.00000  Uiso   1.00
C380   C     0.43203   0.22394   0.53622   0.00000  Uiso   1.00
C381   C     0.52039   0.17299   0.53021   0.00000  Uiso   1.00
C382   C     0.42830   0.44428   0.61556   0.00000  Uiso   1.00
C383   C     0.39379   0.45243   0.56342   0.00000  Uiso   1.00
C384   C     0.42158   0.50975   0.54588   0.00000  Uiso   1.00
C385   C     0.38187   0.50715   0.49705   0.00000  Uiso   1.00
C386   C     0.37212   0.43895   0.65595   0.00000  Uiso   1.00
C387   C     0.38168   0.48492   0.71622   0.00000  Uiso   1.00
C388   C     0.32373   0.47097   0.74530   0.00000  Uiso   1.00
C389   C     0.43681   0.36848   0.58927   0.00000  Uiso   1.00
C390   C     0.50075   0.35519   0.59349   0.00000  Uiso   1.00
C391   C     0.49727   0.28191   0.56643   0.00000  Uiso   1.00
H392   H     0.25769   0.29272   0.53655   0.00000  Uiso   1.00
H393   H     0.23852   0.34711   0.46111   0.00000  Uiso   1.00
H394   H     0.19863   0.32228   0.63143   0.00000  Uiso   1.00
H395   H     0.31769   0.19258   0.50871   0.00000  Uiso   1.00
H396   H     0.24597   0.43295   0.39079   0.00000  Uiso   1.00
H397   H     0.16188   0.38058   0.74992   0.00000  Uiso   1.00
H398   H     0.41293   0.10707   0.49114   0.00000  Uiso   1.00
H399   H     0.47900   0.48933   0.63905   0.00000  Uiso   1.00
H400   H     0.47198   0.55451   0.56923   0.00000  Uiso   1.00
H401   H     0.43208   0.52969   0.73955   0.00000  Uiso   1.00
H402   H     0.55114   0.39998   0.61683   0.00000  Uiso   1.00
H403   H     0.43545   0.60128   0.47854   0.00000  Uiso   1.00
H404   H     0.35135   0.54891   0.83767   0.00000  Uiso   1.00
H405   H     0.60241   0.27541   0.57890   0.00000  Uiso   1.00
O406   O     0.33208   0.55646   0.38690   0.00000  Uiso   1.00
O407   O     0.22176   0.48774   0.85806   0.00000  Uiso   1.00
O408   O     0.55113   0.12891   0.51856   0.00000  Uiso   1.00
N409   N     0.29154   0.46361   0.42102   0.00000  Uiso   1.00
N410   N     0.21291   0.41466   0.75678   0.00000  Uiso   1.00
N411   N     0.44762   0.15895   0.51486   0.00000  Uiso   1.00
N412   N     0.39349   0.55419   0.46823   0.00000  Uiso   1.00
N413   N     0.31487   0.50524   0.80400   0.00000  Uiso   1.00
N414   N     0.54958   0.24953   0.56208   0.00000  Uiso   1.00
C415   C     0.16899   0.63380   0.37948   0.00000  Uiso   1.00
C416   C     0.19234   0.71568   0.39171   0.00000  Uiso   1.00
C417   C     0.26262   0.76258   0.40038   0.00000  Uiso   1.00
C418   C     0.27279   0.83563   0.41098   0.00000  Uiso   1.00
C419   C     0.31789   0.95895   0.42971   0.00000  Uiso   1.00
C420   C     0.12609   0.62530   0.42809   0.00000  Uiso   1.00
C421   C     0.14066   0.59620   0.46734   0.00000  Uiso   1.00
C422   C     0.09505   0.59316   0.50856   0.00000  Uiso   1.00
C423   C     0.03725   0.57612   0.58375   0.00000  Uiso   1.00
C424   C     0.11527   0.59218   0.32100   0.00000  Uiso   1.00
C425   C     0.12073   0.53521   0.27021   0.00000  Uiso   1.00
C426   C     0.06599   0.50427   0.22127   0.00000  Uiso   1.00
C427   C     0.99139   0.43579   0.13018   0.00000  Uiso   1.00
C428   C     0.06206   0.68014   0.38290   0.00000  Uiso   1.00
C429   C     0.13426   0.74085   0.39356   0.00000  Uiso   1.00
C430   C     0.14432   0.81385   0.40415   0.00000  Uiso   1.00
C431   C     0.21461   0.86084   0.41284   0.00000  Uiso   1.00
C432   C     0.06801   0.65047   0.42994   0.00000  Uiso   1.00
C433   C     0.02236   0.64747   0.47112   0.00000  Uiso   1.00
C434   C     0.03686   0.61838   0.51042   0.00000  Uiso   1.00
C435   C     0.05719   0.61735   0.32285   0.00000  Uiso   1.00
C436   C     0.00243   0.58648   0.27398   0.00000  Uiso   1.00
C437   C     0.00781   0.52948   0.22313   0.00000  Uiso   1.00
H438   H     0.21420   0.61421   0.37804   0.00000  Uiso   1.00
H439   H     0.30756   0.74308   0.39894   0.00000  Uiso   1.00
H440   H     0.18561   0.57672   0.46589   0.00000  Uiso   1.00
H441   H     0.16568   0.51575   0.26879   0.00000  Uiso   1.00
H442   H     0.38544   0.89707   0.42296   0.00000  Uiso   1.00
H443   H     0.12829   0.54627   0.56411   0.00000  Uiso   1.00
H444   H     0.08627   0.41769   0.14848   0.00000  Uiso   1.00
H445   H     0.01684   0.69973   0.38434   0.00000  Uiso   1.00
H446   H     0.09937   0.83331   0.40559   0.00000  Uiso   1.00
H447   H     0.97742   0.66695   0.47254   0.00000  Uiso   1.00
H448   H     0.95749   0.60597   0.27544   0.00000  Uiso   1.00
H449   H     0.21647   0.97030   0.42835   0.00000  Uiso   1.00
H450   H     0.95932   0.61950   0.56950   0.00000  Uiso   1.00
H451   H     0.91729   0.49092   0.15387   0.00000  Uiso   1.00
O452   O     0.35881   0.02002   0.43954   0.00000  Uiso   1.00
O453   O     0.02143   0.55977   0.62471   0.00000  Uiso   1.00
O454   O     0.96629   0.39108   0.07942   0.00000  Uiso   1.00
N455   N     0.33435   0.89597   0.42130   0.00000  Uiso   1.00
N456   N     0.09393   0.56800   0.55327   0.00000  Uiso   1.00
N457   N     0.05464   0.44778   0.16470   0.00000  Uiso   1.00
N458   N     0.24343   0.93538   0.42420   0.00000  Uiso   1.00
N459   N     0.00301   0.60741   0.55617   0.00000  Uiso   1.00
N460   N     0.96371   0.48718   0.16760   0.00000  Uiso   1.00
C461   C     0.68685   0.17583   0.01432   0.00000  Uiso   1.00
C462   C     0.61012   0.14565   0.98059   0.00000  Uiso   1.00
C463   C     0.58970   0.14992   0.92796   0.00000  Uiso   1.00
C464   C     0.51684   0.11897   0.90412   0.00000  Uiso   1.00
C465   C     0.40538   0.07731   0.84753   0.00000  Uiso   1.00
C466   C     0.68615   0.22866   0.07761   0.00000  Uiso   1.00
C467   C     0.72968   0.30272   0.10656   0.00000  Uiso   1.00
C468   C     0.72082   0.34164   0.16440   0.00000  Uiso   1.00
C469   C     0.72746   0.42884   0.25845   0.00000  Uiso   1.00
C470   C     0.70046   0.11031   0.01988   0.00000  Uiso   1.00
C471   C     0.75604   0.08487   0.00030   0.00000  Uiso   1.00
C472   C     0.75924   0.02415   0.00954   0.00000  Uiso   1.00
C473   C     0.78809   0.92760   0.01396   0.00000  Uiso   1.00
C474   C     0.59374   0.11326   0.06557   0.00000  Uiso   1.00
C475   C     0.55954   0.11166   0.00843   0.00000  Uiso   1.00
C476   C     0.48669   0.08069   0.98466   0.00000  Uiso   1.00
C477   C     0.46617   0.08492   0.93200   0.00000  Uiso   1.00
C478   C     0.63558   0.19467   0.10545   0.00000  Uiso   1.00
C479   C     0.62667   0.23349   0.16326   0.00000  Uiso   1.00
C480   C     0.67016   0.30759   0.19229   0.00000  Uiso   1.00
C481   C     0.64989   0.07632   0.04772   0.00000  Uiso   1.00
C482   C     0.65302   0.01564   0.05700   0.00000  Uiso   1.00
C483   C     0.70858   0.99011   0.03744   0.00000  Uiso   1.00
H484   H     0.72622   0.20230   0.99265   0.00000  Uiso   1.00
H485   H     0.62885   0.17624   0.90643   0.00000  Uiso   1.00
H486   H     0.76881   0.32901   0.08500   0.00000  Uiso   1.00
H487   H     0.79516   0.11119   0.97876   0.00000  Uiso   1.00
H488   H     0.49860   0.13238   0.82313   0.00000  Uiso   1.00
H489   H     0.79373   0.45450   0.19967   0.00000  Uiso   1.00
H490   H     0.84929   0.99518   0.97563   0.00000  Uiso   1.00
H491   H     0.55437   0.08680   0.08725   0.00000  Uiso   1.00
H492   H     0.44757   0.05439   0.00622   0.00000  Uiso   1.00
H493   H     0.58753   0.20717   0.18479   0.00000  Uiso   1.00
H494   H     0.61387   0.98935   0.07855   0.00000  Uiso   1.00
H495   H     0.35146   0.03350   0.90412   0.00000  Uiso   1.00
H496   H     0.64659   0.35561   0.28067   0.00000  Uiso   1.00
H497   H     0.70215   0.89629   0.05663   0.00000  Uiso   1.00
O498   O     0.35788   0.06373   0.80863   0.00000  Uiso   1.00
O499   O     0.74508   0.48633   0.30263   0.00000  Uiso   1.00
O500   O     0.81797   0.88372   0.00870   0.00000  Uiso   1.00
N501   N     0.47863   0.11354   0.85330   0.00000  Uiso   1.00
N502   N     0.75455   0.41471   0.20534   0.00000  Uiso   1.00
N503   N     0.80651   0.98530   0.99590   0.00000  Uiso   1.00
N504   N     0.39946   0.06033   0.89689   0.00000  Uiso   1.00
N505   N     0.67538   0.36150   0.24893   0.00000  Uiso   1.00
N506   N     0.72733   0.93208   0.03948   0.00000  Uiso   1.00
C507   C     0.75778   0.29680   0.58317   0.00000  Uiso   1.00
C508   C     0.76216   0.36271   0.64092   0.00000  Uiso   1.00
C509   C     0.72282   0.35979   0.68603   0.00000  Uiso   1.00
C510   C     0.73455   0.42621   0.73528   0.00000  Uiso   1.00
C511   C     0.73381   0.51839   0.82433   0.00000  Uiso   1.00
C512   C     0.73925   0.31647   0.53235   0.00000  Uiso   1.00
C513   C     0.68066   0.27466   0.48618   0.00000  Uiso   1.00
C514   C     0.67312   0.30217   0.44404   0.00000  Uiso   1.00
C515   C     0.63685   0.32253   0.36452   0.00000  Uiso   1.00
C516   C     0.83416   0.29562   0.58122   0.00000  Uiso   1.00
C517   C     0.85537   0.23627   0.57611   0.00000  Uiso   1.00
C518   C     0.92773   0.24621   0.57510   0.00000  Uiso   1.00
C519   C     0.03882   0.23420   0.57144   0.00000  Uiso   1.00
C520   C     0.84858   0.41997   0.59043   0.00000  Uiso   1.00
C521   C     0.81147   0.42961   0.64486   0.00000  Uiso   1.00
C522   C     0.82328   0.49606   0.69406   0.00000  Uiso   1.00
C523   C     0.78396   0.49324   0.73923   0.00000  Uiso   1.00
C524   C     0.78857   0.38337   0.53629   0.00000  Uiso   1.00
C525   C     0.78112   0.41094   0.49421   0.00000  Uiso   1.00
C526   C     0.72253   0.36919   0.44799   0.00000  Uiso   1.00
C527   C     0.88348   0.36252   0.58516   0.00000  Uiso   1.00
C528   C     0.95582   0.37255   0.58415   0.00000  Uiso   1.00
C529   C     0.97714   0.31324   0.57905   0.00000  Uiso   1.00
H530   H     0.71939   0.24471   0.58010   0.00000  Uiso   1.00
H531   H     0.68465   0.30800   0.68296   0.00000  Uiso   1.00
H532   H     0.64251   0.22289   0.48314   0.00000  Uiso   1.00
H533   H     0.81719   0.18451   0.57306   0.00000  Uiso   1.00
H534   H     0.66787   0.40768   0.79872   0.00000  Uiso   1.00
H535   H     0.57902   0.22821   0.37738   0.00000  Uiso   1.00
H536   H     0.94737   0.14727   0.56700   0.00000  Uiso   1.00
H537   H     0.88698   0.47205   0.59350   0.00000  Uiso   1.00
H538   H     0.86144   0.54783   0.69710   0.00000  Uiso   1.00
H539   H     0.81929   0.46271   0.49727   0.00000  Uiso   1.00
H540   H     0.99397   0.42433   0.58720   0.00000  Uiso   1.00
H541   H     0.81136   0.60233   0.81020   0.00000  Uiso   1.00
H542   H     0.72251   0.42285   0.38885   0.00000  Uiso   1.00
H543   H     0.09086   0.34192   0.57847   0.00000  Uiso   1.00
O544   O     0.71978   0.55075   0.87236   0.00000  Uiso   1.00
O545   O     0.60321   0.31528   0.31957   0.00000  Uiso   1.00
O546   O     0.08648   0.20909   0.56835   0.00000  Uiso   1.00
N547   N     0.70516   0.44309   0.78721   0.00000  Uiso   1.00
N548   N     0.62208   0.27530   0.39329   0.00000  Uiso   1.00
N549   N     0.96645   0.19962   0.57055   0.00000  Uiso   1.00
N550   N     0.78237   0.54783   0.79338   0.00000  Uiso   1.00
N551   N     0.69929   0.38004   0.39946   0.00000  Uiso   1.00
N552   N     0.04366   0.30436   0.57672   0.00000  Uiso   1.00
