data_job_03938
_audit_creation_date              2018-12-19
_audit_creation_method            'Materials Studio'
_symmetry_space_group_name_H-M    'P1'
_symmetry_Int_Tables_number       1
_symmetry_cell_setting            triclinic
loop_
_symmetry_equiv_pos_as_xyz
  x,y,z
_cell_length_a                    12.2375
_cell_length_b                    12.2375
_cell_length_c                    44.2087
_cell_angle_alpha                 90.0000
_cell_angle_beta                  90.0000
_cell_angle_gamma                 90.0000
loop_
_atom_site_label
_atom_site_type_symbol
_atom_site_fract_x
_atom_site_fract_y
_atom_site_fract_z
_atom_site_U_iso_or_equiv
_atom_site_adp_type
_atom_site_occupancy
C1     C     0.59278   0.30774   0.37397   0.00000  Uiso   1.00
C2     C     0.61450   0.29850   0.40784   0.00000  Uiso   1.00
C3     C     0.60387   0.38230   0.42878   0.00000  Uiso   1.00
C4     C     0.62759   0.35737   0.45871   0.00000  Uiso   1.00
C5     C     0.65633   0.35901   0.50998   0.00000  Uiso   1.00
C6     C     0.69787   0.27169   0.35835   0.00000  Uiso   1.00
C7     C     0.75732   0.33294   0.33768   0.00000  Uiso   1.00
C8     C     0.85122   0.28542   0.32594   0.00000  Uiso   1.00
C9     C     0.00934   0.24541   0.30037   0.00000  Uiso   1.00
C10    C     0.50780   0.22056   0.36662   0.00000  Uiso   1.00
C11    C     0.40746   0.23881   0.35289   0.00000  Uiso   1.00
C12    C     0.34134   0.14824   0.34811   0.00000  Uiso   1.00
C13    C     0.20436   0.02884   0.33537   0.00000  Uiso   1.00
C14    C     0.65381   0.11444   0.38987   0.00000  Uiso   1.00
C15    C     0.64765   0.19351   0.41648   0.00000  Uiso   1.00
C16    C     0.67139   0.16844   0.44638   0.00000  Uiso   1.00
C17    C     0.66080   0.25219   0.46736   0.00000  Uiso   1.00
C18    C     0.73102   0.16670   0.36699   0.00000  Uiso   1.00
C19    C     0.82485   0.11908   0.35527   0.00000  Uiso   1.00
C20    C     0.88443   0.18024   0.33459   0.00000  Uiso   1.00
C21    C     0.54095   0.11557   0.37525   0.00000  Uiso   1.00
C22    C     0.47498   0.02495   0.37049   0.00000  Uiso   1.00
C23    C     0.37455   0.04306   0.35676   0.00000  Uiso   1.00
H24    H     0.56698   0.38948   0.36724   0.00000  Uiso   1.00
H25    H     0.57822   0.46355   0.42209   0.00000  Uiso   1.00
H26    H     0.73164   0.41418   0.33100   0.00000  Uiso   1.00
H27    H     0.38183   0.32007   0.34621   0.00000  Uiso   1.00
H28    H     0.60535   0.49937   0.48670   0.00000  Uiso   1.00
H29    H     0.92882   0.39528   0.29463   0.00000  Uiso   1.00
H30    H     0.19118   0.19682   0.32670   0.00000  Uiso   1.00
H31    H     0.67962   0.03269   0.39659   0.00000  Uiso   1.00
H32    H     0.69704   0.08718   0.45305   0.00000  Uiso   1.00
H33    H     0.85047   0.03783   0.36196   0.00000  Uiso   1.00
H34    H     0.50066   0.94371   0.37717   0.00000  Uiso   1.00
H35    H     0.70180   0.19390   0.51184   0.00000  Uiso   1.00
H36    H     0.02527   0.08981   0.31975   0.00000  Uiso   1.00
H37    H     0.28763   0.89135   0.35183   0.00000  Uiso   1.00
O38    O     0.66304   0.38893   0.53588   0.00000  Uiso   1.00
O39    O     0.08741   0.25236   0.28387   0.00000  Uiso   1.00
O40    O     0.11964   0.99198   0.32596   0.00000  Uiso   1.00
N41    N     0.62563   0.41999   0.48487   0.00000  Uiso   1.00
N42    N     0.92808   0.32268   0.30529   0.00000  Uiso   1.00
N43    N     0.23845   0.13713   0.33527   0.00000  Uiso   1.00
N44    N     0.67753   0.25562   0.49839   0.00000  Uiso   1.00
N45    N     0.97997   0.15831   0.31882   0.00000  Uiso   1.00
N46    N     0.29035   0.97276   0.34880   0.00000  Uiso   1.00
C47    C     0.40722   0.69226   0.87397   0.00000  Uiso   1.00
C48    C     0.38550   0.70150   0.90784   0.00000  Uiso   1.00
C49    C     0.39613   0.61770   0.92878   0.00000  Uiso   1.00
C50    C     0.37241   0.64263   0.95871   0.00000  Uiso   1.00
C51    C     0.34367   0.64099   0.00998   0.00000  Uiso   1.00
C52    C     0.30213   0.72831   0.85835   0.00000  Uiso   1.00
C53    C     0.24268   0.66706   0.83768   0.00000  Uiso   1.00
C54    C     0.14878   0.71458   0.82594   0.00000  Uiso   1.00
C55    C     0.99066   0.75459   0.80037   0.00000  Uiso   1.00
C56    C     0.49220   0.77944   0.86662   0.00000  Uiso   1.00
C57    C     0.59254   0.76119   0.85289   0.00000  Uiso   1.00
C58    C     0.65866   0.85176   0.84811   0.00000  Uiso   1.00
C59    C     0.79564   0.97116   0.83537   0.00000  Uiso   1.00
C60    C     0.34619   0.88556   0.88987   0.00000  Uiso   1.00
C61    C     0.35235   0.80649   0.91648   0.00000  Uiso   1.00
C62    C     0.32861   0.83156   0.94638   0.00000  Uiso   1.00
C63    C     0.33920   0.74781   0.96736   0.00000  Uiso   1.00
C64    C     0.26898   0.83330   0.86699   0.00000  Uiso   1.00
C65    C     0.17515   0.88092   0.85527   0.00000  Uiso   1.00
C66    C     0.11557   0.81976   0.83459   0.00000  Uiso   1.00
C67    C     0.45905   0.88443   0.87525   0.00000  Uiso   1.00
C68    C     0.52502   0.97505   0.87049   0.00000  Uiso   1.00
C69    C     0.62545   0.95694   0.85676   0.00000  Uiso   1.00
H70    H     0.43302   0.61052   0.86724   0.00000  Uiso   1.00
H71    H     0.42178   0.53645   0.92209   0.00000  Uiso   1.00
H72    H     0.26836   0.58582   0.83100   0.00000  Uiso   1.00
H73    H     0.61817   0.67993   0.84621   0.00000  Uiso   1.00
H74    H     0.39465   0.50063   0.98670   0.00000  Uiso   1.00
H75    H     0.07118   0.60472   0.79463   0.00000  Uiso   1.00
H76    H     0.80882   0.80318   0.82670   0.00000  Uiso   1.00
H77    H     0.32038   0.96731   0.89659   0.00000  Uiso   1.00
H78    H     0.30296   0.91282   0.95305   0.00000  Uiso   1.00
H79    H     0.14953   0.96217   0.86196   0.00000  Uiso   1.00
H80    H     0.49934   0.05629   0.87717   0.00000  Uiso   1.00
H81    H     0.29820   0.80610   0.01184   0.00000  Uiso   1.00
H82    H     0.97473   0.91019   0.81975   0.00000  Uiso   1.00
H83    H     0.71237   0.10865   0.85183   0.00000  Uiso   1.00
O84    O     0.33696   0.61107   0.03588   0.00000  Uiso   1.00
O85    O     0.91259   0.74764   0.78387   0.00000  Uiso   1.00
O86    O     0.88036   0.00802   0.82596   0.00000  Uiso   1.00
N87    N     0.37437   0.58001   0.98487   0.00000  Uiso   1.00
N88    N     0.07192   0.67732   0.80529   0.00000  Uiso   1.00
N89    N     0.76155   0.86287   0.83527   0.00000  Uiso   1.00
N90    N     0.32247   0.74438   0.99839   0.00000  Uiso   1.00
N91    N     0.02003   0.84169   0.81882   0.00000  Uiso   1.00
N92    N     0.70965   0.02724   0.84880   0.00000  Uiso   1.00
C93    C     0.69226   0.59278   0.62397   0.00000  Uiso   1.00
C94    C     0.70150   0.61450   0.65784   0.00000  Uiso   1.00
C95    C     0.61770   0.60387   0.67878   0.00000  Uiso   1.00
C96    C     0.64263   0.62759   0.70871   0.00000  Uiso   1.00
C97    C     0.64099   0.65633   0.75998   0.00000  Uiso   1.00
C98    C     0.72831   0.69787   0.60835   0.00000  Uiso   1.00
C99    C     0.66706   0.75732   0.58768   0.00000  Uiso   1.00
C100   C     0.71458   0.85122   0.57594   0.00000  Uiso   1.00
C101   C     0.75459   0.00934   0.55037   0.00000  Uiso   1.00
C102   C     0.77944   0.50780   0.61662   0.00000  Uiso   1.00
C103   C     0.76119   0.40746   0.60289   0.00000  Uiso   1.00
C104   C     0.85176   0.34134   0.59811   0.00000  Uiso   1.00
C105   C     0.97116   0.20436   0.58537   0.00000  Uiso   1.00
C106   C     0.88556   0.65381   0.63987   0.00000  Uiso   1.00
C107   C     0.80649   0.64765   0.66648   0.00000  Uiso   1.00
C108   C     0.83156   0.67139   0.69638   0.00000  Uiso   1.00
C109   C     0.74781   0.66080   0.71736   0.00000  Uiso   1.00
C110   C     0.83330   0.73102   0.61699   0.00000  Uiso   1.00
C111   C     0.88092   0.82485   0.60527   0.00000  Uiso   1.00
C112   C     0.81976   0.88443   0.58459   0.00000  Uiso   1.00
C113   C     0.88443   0.54095   0.62525   0.00000  Uiso   1.00
C114   C     0.97505   0.47498   0.62049   0.00000  Uiso   1.00
C115   C     0.95694   0.37455   0.60676   0.00000  Uiso   1.00
H116   H     0.61052   0.56698   0.61724   0.00000  Uiso   1.00
H117   H     0.53645   0.57822   0.67209   0.00000  Uiso   1.00
H118   H     0.58582   0.73164   0.58100   0.00000  Uiso   1.00
H119   H     0.67993   0.38183   0.59621   0.00000  Uiso   1.00
H120   H     0.50063   0.60535   0.73670   0.00000  Uiso   1.00
H121   H     0.60472   0.92882   0.54463   0.00000  Uiso   1.00
H122   H     0.80318   0.19118   0.57670   0.00000  Uiso   1.00
H123   H     0.96731   0.67962   0.64659   0.00000  Uiso   1.00
H124   H     0.91282   0.69704   0.70305   0.00000  Uiso   1.00
H125   H     0.96217   0.85047   0.61196   0.00000  Uiso   1.00
H126   H     0.05629   0.50066   0.62717   0.00000  Uiso   1.00
H127   H     0.80610   0.70180   0.76184   0.00000  Uiso   1.00
H128   H     0.91019   0.02527   0.56975   0.00000  Uiso   1.00
H129   H     0.10865   0.28763   0.60183   0.00000  Uiso   1.00
O130   O     0.61107   0.66304   0.78588   0.00000  Uiso   1.00
O131   O     0.74764   0.08741   0.53387   0.00000  Uiso   1.00
O132   O     0.00802   0.11964   0.57596   0.00000  Uiso   1.00
N133   N     0.58001   0.62563   0.73487   0.00000  Uiso   1.00
N134   N     0.67732   0.92808   0.55529   0.00000  Uiso   1.00
N135   N     0.86287   0.23845   0.58527   0.00000  Uiso   1.00
N136   N     0.74438   0.67753   0.74839   0.00000  Uiso   1.00
N137   N     0.84169   0.97997   0.56882   0.00000  Uiso   1.00
N138   N     0.02724   0.29035   0.59880   0.00000  Uiso   1.00
C139   C     0.30774   0.40722   0.12397   0.00000  Uiso   1.00
C140   C     0.29850   0.38550   0.15784   0.00000  Uiso   1.00
C141   C     0.38230   0.39613   0.17878   0.00000  Uiso   1.00
C142   C     0.35737   0.37241   0.20871   0.00000  Uiso   1.00
C143   C     0.35901   0.34367   0.25998   0.00000  Uiso   1.00
C144   C     0.27169   0.30213   0.10835   0.00000  Uiso   1.00
C145   C     0.33294   0.24268   0.08768   0.00000  Uiso   1.00
C146   C     0.28542   0.14878   0.07594   0.00000  Uiso   1.00
C147   C     0.24541   0.99066   0.05037   0.00000  Uiso   1.00
C148   C     0.22056   0.49220   0.11662   0.00000  Uiso   1.00
C149   C     0.23881   0.59254   0.10289   0.00000  Uiso   1.00
C150   C     0.14824   0.65866   0.09811   0.00000  Uiso   1.00
C151   C     0.02884   0.79564   0.08537   0.00000  Uiso   1.00
C152   C     0.11444   0.34619   0.13987   0.00000  Uiso   1.00
C153   C     0.19351   0.35235   0.16648   0.00000  Uiso   1.00
C154   C     0.16844   0.32861   0.19638   0.00000  Uiso   1.00
C155   C     0.25219   0.33920   0.21736   0.00000  Uiso   1.00
C156   C     0.16670   0.26898   0.11699   0.00000  Uiso   1.00
C157   C     0.11908   0.17515   0.10527   0.00000  Uiso   1.00
C158   C     0.18024   0.11557   0.08459   0.00000  Uiso   1.00
C159   C     0.11557   0.45905   0.12525   0.00000  Uiso   1.00
C160   C     0.02495   0.52502   0.12049   0.00000  Uiso   1.00
C161   C     0.04306   0.62545   0.10676   0.00000  Uiso   1.00
H162   H     0.38948   0.43302   0.11724   0.00000  Uiso   1.00
H163   H     0.46355   0.42178   0.17209   0.00000  Uiso   1.00
H164   H     0.41418   0.26836   0.08100   0.00000  Uiso   1.00
H165   H     0.32007   0.61817   0.09621   0.00000  Uiso   1.00
H166   H     0.49937   0.39465   0.23670   0.00000  Uiso   1.00
H167   H     0.39528   0.07118   0.04463   0.00000  Uiso   1.00
H168   H     0.19682   0.80882   0.07670   0.00000  Uiso   1.00
H169   H     0.03269   0.32038   0.14659   0.00000  Uiso   1.00
H170   H     0.08718   0.30296   0.20305   0.00000  Uiso   1.00
H171   H     0.03783   0.14953   0.11196   0.00000  Uiso   1.00
H172   H     0.94371   0.49934   0.12717   0.00000  Uiso   1.00
H173   H     0.19390   0.29820   0.26184   0.00000  Uiso   1.00
H174   H     0.08981   0.97473   0.06975   0.00000  Uiso   1.00
H175   H     0.89135   0.71237   0.10183   0.00000  Uiso   1.00
O176   O     0.38893   0.33696   0.28588   0.00000  Uiso   1.00
O177   O     0.25236   0.91259   0.03387   0.00000  Uiso   1.00
O178   O     0.99198   0.88036   0.07596   0.00000  Uiso   1.00
N179   N     0.41999   0.37437   0.23487   0.00000  Uiso   1.00
N180   N     0.32268   0.07192   0.05529   0.00000  Uiso   1.00
N181   N     0.13713   0.76155   0.08527   0.00000  Uiso   1.00
N182   N     0.25562   0.32247   0.24839   0.00000  Uiso   1.00
N183   N     0.15831   0.02003   0.06882   0.00000  Uiso   1.00
N184   N     0.97276   0.70965   0.09880   0.00000  Uiso   1.00
C185   C     0.40722   0.30774   0.62603   0.00000  Uiso   1.00
C186   C     0.38550   0.29850   0.59216   0.00000  Uiso   1.00
C187   C     0.39613   0.38230   0.57122   0.00000  Uiso   1.00
C188   C     0.37241   0.35737   0.54129   0.00000  Uiso   1.00
C189   C     0.34367   0.35901   0.49002   0.00000  Uiso   1.00
C190   C     0.30213   0.27169   0.64165   0.00000  Uiso   1.00
C191   C     0.24268   0.33294   0.66232   0.00000  Uiso   1.00
C192   C     0.14878   0.28542   0.67406   0.00000  Uiso   1.00
C193   C     0.99066   0.24541   0.69963   0.00000  Uiso   1.00
C194   C     0.49220   0.22056   0.63338   0.00000  Uiso   1.00
C195   C     0.59254   0.23881   0.64711   0.00000  Uiso   1.00
C196   C     0.65866   0.14824   0.65189   0.00000  Uiso   1.00
C197   C     0.79564   0.02884   0.66463   0.00000  Uiso   1.00
C198   C     0.34619   0.11444   0.61013   0.00000  Uiso   1.00
C199   C     0.35235   0.19351   0.58352   0.00000  Uiso   1.00
C200   C     0.32861   0.16844   0.55362   0.00000  Uiso   1.00
C201   C     0.33920   0.25219   0.53264   0.00000  Uiso   1.00
C202   C     0.26898   0.16670   0.63301   0.00000  Uiso   1.00
C203   C     0.17515   0.11908   0.64473   0.00000  Uiso   1.00
C204   C     0.11557   0.18024   0.66541   0.00000  Uiso   1.00
C205   C     0.45905   0.11557   0.62475   0.00000  Uiso   1.00
C206   C     0.52502   0.02495   0.62951   0.00000  Uiso   1.00
C207   C     0.62545   0.04306   0.64324   0.00000  Uiso   1.00
H208   H     0.43302   0.38948   0.63276   0.00000  Uiso   1.00
H209   H     0.42178   0.46355   0.57791   0.00000  Uiso   1.00
H210   H     0.26836   0.41418   0.66900   0.00000  Uiso   1.00
H211   H     0.61817   0.32007   0.65379   0.00000  Uiso   1.00
H212   H     0.39465   0.49937   0.51330   0.00000  Uiso   1.00
H213   H     0.07118   0.39528   0.70537   0.00000  Uiso   1.00
H214   H     0.80882   0.19682   0.67330   0.00000  Uiso   1.00
H215   H     0.32038   0.03269   0.60341   0.00000  Uiso   1.00
H216   H     0.30296   0.08718   0.54695   0.00000  Uiso   1.00
H217   H     0.14953   0.03783   0.63804   0.00000  Uiso   1.00
H218   H     0.49934   0.94371   0.62283   0.00000  Uiso   1.00
H219   H     0.29820   0.19390   0.48816   0.00000  Uiso   1.00
H220   H     0.97473   0.08981   0.68025   0.00000  Uiso   1.00
H221   H     0.71237   0.89135   0.64817   0.00000  Uiso   1.00
O222   O     0.33696   0.38893   0.46412   0.00000  Uiso   1.00
O223   O     0.91259   0.25236   0.71613   0.00000  Uiso   1.00
O224   O     0.88036   0.99198   0.67404   0.00000  Uiso   1.00
N225   N     0.37437   0.41999   0.51513   0.00000  Uiso   1.00
N226   N     0.07192   0.32268   0.69471   0.00000  Uiso   1.00
N227   N     0.76155   0.13713   0.66473   0.00000  Uiso   1.00
N228   N     0.32247   0.25562   0.50161   0.00000  Uiso   1.00
N229   N     0.02003   0.15831   0.68118   0.00000  Uiso   1.00
N230   N     0.70965   0.97276   0.65120   0.00000  Uiso   1.00
C231   C     0.59278   0.69226   0.12603   0.00000  Uiso   1.00
C232   C     0.61450   0.70150   0.09216   0.00000  Uiso   1.00
C233   C     0.60387   0.61770   0.07122   0.00000  Uiso   1.00
C234   C     0.62759   0.64263   0.04129   0.00000  Uiso   1.00
C235   C     0.65633   0.64099   0.99002   0.00000  Uiso   1.00
C236   C     0.69787   0.72831   0.14165   0.00000  Uiso   1.00
C237   C     0.75732   0.66706   0.16232   0.00000  Uiso   1.00
C238   C     0.85122   0.71458   0.17406   0.00000  Uiso   1.00
C239   C     0.00934   0.75459   0.19963   0.00000  Uiso   1.00
C240   C     0.50780   0.77944   0.13338   0.00000  Uiso   1.00
C241   C     0.40746   0.76119   0.14711   0.00000  Uiso   1.00
C242   C     0.34134   0.85176   0.15189   0.00000  Uiso   1.00
C243   C     0.20436   0.97116   0.16463   0.00000  Uiso   1.00
C244   C     0.65381   0.88556   0.11013   0.00000  Uiso   1.00
C245   C     0.64765   0.80649   0.08352   0.00000  Uiso   1.00
C246   C     0.67139   0.83156   0.05362   0.00000  Uiso   1.00
C247   C     0.66080   0.74781   0.03264   0.00000  Uiso   1.00
C248   C     0.73102   0.83330   0.13301   0.00000  Uiso   1.00
C249   C     0.82485   0.88092   0.14473   0.00000  Uiso   1.00
C250   C     0.88443   0.81976   0.16541   0.00000  Uiso   1.00
C251   C     0.54095   0.88443   0.12475   0.00000  Uiso   1.00
C252   C     0.47498   0.97505   0.12951   0.00000  Uiso   1.00
C253   C     0.37455   0.95694   0.14324   0.00000  Uiso   1.00
H254   H     0.56698   0.61052   0.13276   0.00000  Uiso   1.00
H255   H     0.57822   0.53645   0.07791   0.00000  Uiso   1.00
H256   H     0.73164   0.58582   0.16900   0.00000  Uiso   1.00
H257   H     0.38183   0.67993   0.15379   0.00000  Uiso   1.00
H258   H     0.60535   0.50063   0.01330   0.00000  Uiso   1.00
H259   H     0.92882   0.60472   0.20537   0.00000  Uiso   1.00
H260   H     0.19118   0.80318   0.17330   0.00000  Uiso   1.00
H261   H     0.67962   0.96731   0.10341   0.00000  Uiso   1.00
H262   H     0.69704   0.91282   0.04695   0.00000  Uiso   1.00
H263   H     0.85047   0.96217   0.13804   0.00000  Uiso   1.00
H264   H     0.50066   0.05629   0.12283   0.00000  Uiso   1.00
H265   H     0.70180   0.80610   0.98816   0.00000  Uiso   1.00
H266   H     0.02527   0.91019   0.18025   0.00000  Uiso   1.00
H267   H     0.28763   0.10865   0.14817   0.00000  Uiso   1.00
O268   O     0.66304   0.61107   0.96412   0.00000  Uiso   1.00
O269   O     0.08741   0.74764   0.21613   0.00000  Uiso   1.00
O270   O     0.11964   0.00802   0.17404   0.00000  Uiso   1.00
N271   N     0.62563   0.58001   0.01513   0.00000  Uiso   1.00
N272   N     0.92808   0.67732   0.19471   0.00000  Uiso   1.00
N273   N     0.23845   0.86287   0.16473   0.00000  Uiso   1.00
N274   N     0.67753   0.74438   0.00161   0.00000  Uiso   1.00
N275   N     0.97997   0.84169   0.18118   0.00000  Uiso   1.00
N276   N     0.29035   0.02724   0.15120   0.00000  Uiso   1.00
C277   C     0.30774   0.59278   0.37603   0.00000  Uiso   1.00
C278   C     0.29850   0.61450   0.34216   0.00000  Uiso   1.00
C279   C     0.38230   0.60387   0.32122   0.00000  Uiso   1.00
C280   C     0.35737   0.62759   0.29129   0.00000  Uiso   1.00
C281   C     0.35901   0.65633   0.24002   0.00000  Uiso   1.00
C282   C     0.27169   0.69787   0.39165   0.00000  Uiso   1.00
C283   C     0.33294   0.75732   0.41232   0.00000  Uiso   1.00
C284   C     0.28542   0.85122   0.42406   0.00000  Uiso   1.00
C285   C     0.24541   0.00934   0.44963   0.00000  Uiso   1.00
C286   C     0.22056   0.50780   0.38338   0.00000  Uiso   1.00
C287   C     0.23881   0.40746   0.39711   0.00000  Uiso   1.00
C288   C     0.14824   0.34134   0.40189   0.00000  Uiso   1.00
C289   C     0.02884   0.20436   0.41463   0.00000  Uiso   1.00
C290   C     0.11444   0.65381   0.36013   0.00000  Uiso   1.00
C291   C     0.19351   0.64765   0.33352   0.00000  Uiso   1.00
C292   C     0.16844   0.67139   0.30362   0.00000  Uiso   1.00
C293   C     0.25219   0.66080   0.28264   0.00000  Uiso   1.00
C294   C     0.16670   0.73102   0.38301   0.00000  Uiso   1.00
C295   C     0.11908   0.82485   0.39473   0.00000  Uiso   1.00
C296   C     0.18024   0.88443   0.41541   0.00000  Uiso   1.00
C297   C     0.11557   0.54095   0.37475   0.00000  Uiso   1.00
C298   C     0.02495   0.47498   0.37951   0.00000  Uiso   1.00
C299   C     0.04306   0.37455   0.39324   0.00000  Uiso   1.00
H300   H     0.38948   0.56698   0.38276   0.00000  Uiso   1.00
H301   H     0.46355   0.57822   0.32791   0.00000  Uiso   1.00
H302   H     0.41418   0.73164   0.41900   0.00000  Uiso   1.00
H303   H     0.32007   0.38183   0.40379   0.00000  Uiso   1.00
H304   H     0.49937   0.60535   0.26330   0.00000  Uiso   1.00
H305   H     0.39528   0.92882   0.45537   0.00000  Uiso   1.00
H306   H     0.19682   0.19118   0.42330   0.00000  Uiso   1.00
H307   H     0.03269   0.67962   0.35341   0.00000  Uiso   1.00
H308   H     0.08718   0.69704   0.29695   0.00000  Uiso   1.00
H309   H     0.03783   0.85047   0.38804   0.00000  Uiso   1.00
H310   H     0.94371   0.50066   0.37283   0.00000  Uiso   1.00
H311   H     0.19390   0.70180   0.23816   0.00000  Uiso   1.00
H312   H     0.08981   0.02527   0.43025   0.00000  Uiso   1.00
H313   H     0.89135   0.28763   0.39817   0.00000  Uiso   1.00
O314   O     0.38893   0.66304   0.21412   0.00000  Uiso   1.00
O315   O     0.25236   0.08741   0.46613   0.00000  Uiso   1.00
O316   O     0.99198   0.11964   0.42404   0.00000  Uiso   1.00
N317   N     0.41999   0.62563   0.26513   0.00000  Uiso   1.00
N318   N     0.32268   0.92808   0.44471   0.00000  Uiso   1.00
N319   N     0.13713   0.23845   0.41473   0.00000  Uiso   1.00
N320   N     0.25562   0.67753   0.25161   0.00000  Uiso   1.00
N321   N     0.15831   0.97997   0.43118   0.00000  Uiso   1.00
N322   N     0.97276   0.29035   0.40120   0.00000  Uiso   1.00
C323   C     0.69226   0.40722   0.87603   0.00000  Uiso   1.00
C324   C     0.70150   0.38550   0.84216   0.00000  Uiso   1.00
C325   C     0.61770   0.39613   0.82122   0.00000  Uiso   1.00
C326   C     0.64263   0.37241   0.79129   0.00000  Uiso   1.00
C327   C     0.64099   0.34367   0.74002   0.00000  Uiso   1.00
C328   C     0.72831   0.30213   0.89165   0.00000  Uiso   1.00
C329   C     0.66706   0.24268   0.91232   0.00000  Uiso   1.00
C330   C     0.71458   0.14878   0.92406   0.00000  Uiso   1.00
C331   C     0.75459   0.99066   0.94963   0.00000  Uiso   1.00
C332   C     0.77944   0.49220   0.88338   0.00000  Uiso   1.00
C333   C     0.76119   0.59254   0.89711   0.00000  Uiso   1.00
C334   C     0.85176   0.65866   0.90189   0.00000  Uiso   1.00
C335   C     0.97116   0.79564   0.91463   0.00000  Uiso   1.00
C336   C     0.88556   0.34619   0.86013   0.00000  Uiso   1.00
C337   C     0.80649   0.35235   0.83352   0.00000  Uiso   1.00
C338   C     0.83156   0.32861   0.80362   0.00000  Uiso   1.00
C339   C     0.74781   0.33920   0.78264   0.00000  Uiso   1.00
C340   C     0.83330   0.26898   0.88301   0.00000  Uiso   1.00
C341   C     0.88092   0.17515   0.89473   0.00000  Uiso   1.00
C342   C     0.81976   0.11557   0.91541   0.00000  Uiso   1.00
C343   C     0.88443   0.45905   0.87475   0.00000  Uiso   1.00
C344   C     0.97505   0.52502   0.87951   0.00000  Uiso   1.00
C345   C     0.95694   0.62545   0.89324   0.00000  Uiso   1.00
H346   H     0.61052   0.43302   0.88276   0.00000  Uiso   1.00
H347   H     0.53645   0.42178   0.82791   0.00000  Uiso   1.00
H348   H     0.58582   0.26836   0.91900   0.00000  Uiso   1.00
H349   H     0.67993   0.61817   0.90379   0.00000  Uiso   1.00
H350   H     0.50063   0.39465   0.76330   0.00000  Uiso   1.00
H351   H     0.60472   0.07118   0.95537   0.00000  Uiso   1.00
H352   H     0.80318   0.80882   0.92330   0.00000  Uiso   1.00
H353   H     0.96731   0.32038   0.85341   0.00000  Uiso   1.00
H354   H     0.91282   0.30296   0.79695   0.00000  Uiso   1.00
H355   H     0.96217   0.14953   0.88804   0.00000  Uiso   1.00
H356   H     0.05629   0.49934   0.87283   0.00000  Uiso   1.00
H357   H     0.80610   0.29820   0.73816   0.00000  Uiso   1.00
H358   H     0.91019   0.97473   0.93025   0.00000  Uiso   1.00
H359   H     0.10865   0.71237   0.89817   0.00000  Uiso   1.00
O360   O     0.61107   0.33696   0.71412   0.00000  Uiso   1.00
O361   O     0.74764   0.91259   0.96613   0.00000  Uiso   1.00
O362   O     0.00802   0.88036   0.92404   0.00000  Uiso   1.00
N363   N     0.58001   0.37437   0.76513   0.00000  Uiso   1.00
N364   N     0.67732   0.07192   0.94471   0.00000  Uiso   1.00
N365   N     0.86287   0.76155   0.91473   0.00000  Uiso   1.00
N366   N     0.74438   0.32247   0.75161   0.00000  Uiso   1.00
N367   N     0.84169   0.02003   0.93118   0.00000  Uiso   1.00
N368   N     0.02724   0.70965   0.90120   0.00000  Uiso   1.00
