data_job_00839
_audit_creation_date              2018-12-19
_audit_creation_method            'Materials Studio'
_symmetry_space_group_name_H-M    'P1'
_symmetry_Int_Tables_number       1
_symmetry_cell_setting            triclinic
loop_
_symmetry_equiv_pos_as_xyz
  x,y,z
_cell_length_a                    13.0028
_cell_length_b                    13.0028
_cell_length_c                    14.4038
_cell_angle_alpha                 90.0000
_cell_angle_beta                  90.0000
_cell_angle_gamma                 90.0000
loop_
_atom_site_label
_atom_site_type_symbol
_atom_site_fract_x
_atom_site_fract_y
_atom_site_fract_z
_atom_site_U_iso_or_equiv
_atom_site_adp_type
_atom_site_occupancy
C1     C     0.20125   0.83556   0.93590   0.00000  Uiso   1.00
C2     C     0.30506   0.84298   0.98471   0.00000  Uiso   1.00
C3     C     0.34544   0.93059   0.02592   0.00000  Uiso   1.00
C4     C     0.44164   0.92158   0.06696   0.00000  Uiso   1.00
C5     C     0.59467   0.94730   0.14274   0.00000  Uiso   1.00
C6     C     0.22383   0.79657   0.83816   0.00000  Uiso   1.00
C7     C     0.19590   0.84517   0.75615   0.00000  Uiso   1.00
C8     C     0.22371   0.79708   0.67383   0.00000  Uiso   1.00
C9     C     0.25056   0.75072   0.52208   0.00000  Uiso   1.00
C10    C     0.14272   0.74941   0.98456   0.00000  Uiso   1.00
C11    C     0.04658   0.75834   0.02563   0.00000  Uiso   1.00
C12    C     0.00609   0.67054   0.06655   0.00000  Uiso   1.00
C13    C     0.90701   0.55095   0.14211   0.00000  Uiso   1.00
C14    C     0.30026   0.66377   0.93550   0.00000  Uiso   1.00
C15    C     0.35884   0.74966   0.98449   0.00000  Uiso   1.00
C16    C     0.45499   0.74052   0.02548   0.00000  Uiso   1.00
C17    C     0.49551   0.82810   0.06675   0.00000  Uiso   1.00
C18    C     0.27761   0.70326   0.83794   0.00000  Uiso   1.00
C19    C     0.30545   0.65509   0.75571   0.00000  Uiso   1.00
C20    C     0.27759   0.70360   0.67361   0.00000  Uiso   1.00
C21    C     0.19650   0.65610   0.98434   0.00000  Uiso   1.00
C22    C     0.15614   0.56827   0.02519   0.00000  Uiso   1.00
C23    C     0.05996   0.57706   0.06633   0.00000  Uiso   1.00
H24    H     0.15938   0.90821   0.93607   0.00000  Uiso   1.00
H25    H     0.30380   0.00279   0.02607   0.00000  Uiso   1.00
H26    H     0.15428   0.91737   0.75635   0.00000  Uiso   1.00
H27    H     0.00499   0.83056   0.02579   0.00000  Uiso   1.00
H28    H     0.48766   0.06651   0.12572   0.00000  Uiso   1.00
H29    H     0.17235   0.88638   0.55700   0.00000  Uiso   1.00
H30    H     0.85753   0.70332   0.12517   0.00000  Uiso   1.00
H31    H     0.34213   0.59112   0.93533   0.00000  Uiso   1.00
H32    H     0.49659   0.66830   0.02530   0.00000  Uiso   1.00
H33    H     0.34707   0.58288   0.75557   0.00000  Uiso   1.00
H34    H     0.19778   0.49607   0.02501   0.00000  Uiso   1.00
H35    H     0.64414   0.79502   0.12510   0.00000  Uiso   1.00
H36    H     0.32882   0.61490   0.55637   0.00000  Uiso   1.00
H37    H     0.01401   0.43184   0.12454   0.00000  Uiso   1.00
O38    O     0.66422   0.98727   0.18458   0.00000  Uiso   1.00
O39    O     0.25053   0.75094   0.43844   0.00000  Uiso   1.00
O40    O     0.83750   0.51077   0.18386   0.00000  Uiso   1.00
N41    N     0.50328   0.99202   0.11325   0.00000  Uiso   1.00
N42    N     0.20850   0.82362   0.58152   0.00000  Uiso   1.00
N43    N     0.91416   0.65247   0.11269   0.00000  Uiso   1.00
N44    N     0.58748   0.84593   0.11291   0.00000  Uiso   1.00
N45    N     0.29270   0.67753   0.58119   0.00000  Uiso   1.00
N46    N     0.99836   0.50638   0.11235   0.00000  Uiso   1.00
C47    C     0.79875   0.16444   0.43590   0.00000  Uiso   1.00
C48    C     0.69494   0.15702   0.48471   0.00000  Uiso   1.00
C49    C     0.65456   0.06941   0.52592   0.00000  Uiso   1.00
C50    C     0.55836   0.07842   0.56696   0.00000  Uiso   1.00
C51    C     0.40533   0.05270   0.64274   0.00000  Uiso   1.00
C52    C     0.77617   0.20343   0.33816   0.00000  Uiso   1.00
C53    C     0.80410   0.15483   0.25615   0.00000  Uiso   1.00
C54    C     0.77629   0.20292   0.17383   0.00000  Uiso   1.00
C55    C     0.74944   0.24928   0.02208   0.00000  Uiso   1.00
C56    C     0.85728   0.25059   0.48456   0.00000  Uiso   1.00
C57    C     0.95342   0.24166   0.52563   0.00000  Uiso   1.00
C58    C     0.99391   0.32946   0.56655   0.00000  Uiso   1.00
C59    C     0.09299   0.44905   0.64211   0.00000  Uiso   1.00
C60    C     0.69974   0.33623   0.43550   0.00000  Uiso   1.00
C61    C     0.64116   0.25034   0.48449   0.00000  Uiso   1.00
C62    C     0.54501   0.25948   0.52548   0.00000  Uiso   1.00
C63    C     0.50449   0.17190   0.56675   0.00000  Uiso   1.00
C64    C     0.72239   0.29674   0.33794   0.00000  Uiso   1.00
C65    C     0.69455   0.34491   0.25571   0.00000  Uiso   1.00
C66    C     0.72241   0.29640   0.17361   0.00000  Uiso   1.00
C67    C     0.80350   0.34390   0.48434   0.00000  Uiso   1.00
C68    C     0.84386   0.43173   0.52519   0.00000  Uiso   1.00
C69    C     0.94004   0.42294   0.56633   0.00000  Uiso   1.00
H70    H     0.84062   0.09179   0.43607   0.00000  Uiso   1.00
H71    H     0.69620   0.99721   0.52607   0.00000  Uiso   1.00
H72    H     0.84572   0.08263   0.25635   0.00000  Uiso   1.00
H73    H     0.99501   0.16944   0.52579   0.00000  Uiso   1.00
H74    H     0.51234   0.93349   0.62572   0.00000  Uiso   1.00
H75    H     0.82765   0.11362   0.05700   0.00000  Uiso   1.00
H76    H     0.14247   0.29668   0.62517   0.00000  Uiso   1.00
H77    H     0.65787   0.40888   0.43533   0.00000  Uiso   1.00
H78    H     0.50341   0.33170   0.52530   0.00000  Uiso   1.00
H79    H     0.65293   0.41712   0.25557   0.00000  Uiso   1.00
H80    H     0.80222   0.50393   0.52501   0.00000  Uiso   1.00
H81    H     0.35586   0.20498   0.62510   0.00000  Uiso   1.00
H82    H     0.67118   0.38510   0.05637   0.00000  Uiso   1.00
H83    H     0.98599   0.56816   0.62454   0.00000  Uiso   1.00
O84    O     0.33578   0.01273   0.68458   0.00000  Uiso   1.00
O85    O     0.74947   0.24906   0.93844   0.00000  Uiso   1.00
O86    O     0.16250   0.48923   0.68386   0.00000  Uiso   1.00
N87    N     0.49672   0.00798   0.61325   0.00000  Uiso   1.00
N88    N     0.79150   0.17638   0.08152   0.00000  Uiso   1.00
N89    N     0.08584   0.34753   0.61269   0.00000  Uiso   1.00
N90    N     0.41252   0.15407   0.61291   0.00000  Uiso   1.00
N91    N     0.70730   0.32247   0.08119   0.00000  Uiso   1.00
N92    N     0.00164   0.49362   0.61235   0.00000  Uiso   1.00
C93    C     0.16444   0.20125   0.18590   0.00000  Uiso   1.00
C94    C     0.15702   0.30506   0.23471   0.00000  Uiso   1.00
C95    C     0.06941   0.34544   0.27592   0.00000  Uiso   1.00
C96    C     0.07842   0.44164   0.31696   0.00000  Uiso   1.00
C97    C     0.05270   0.59467   0.39274   0.00000  Uiso   1.00
C98    C     0.20343   0.22383   0.08816   0.00000  Uiso   1.00
C99    C     0.15483   0.19590   0.00615   0.00000  Uiso   1.00
C100   C     0.20292   0.22371   0.92383   0.00000  Uiso   1.00
C101   C     0.24928   0.25056   0.77208   0.00000  Uiso   1.00
C102   C     0.25059   0.14272   0.23456   0.00000  Uiso   1.00
C103   C     0.24166   0.04658   0.27563   0.00000  Uiso   1.00
C104   C     0.32946   0.00609   0.31655   0.00000  Uiso   1.00
C105   C     0.44905   0.90701   0.39211   0.00000  Uiso   1.00
C106   C     0.33623   0.30026   0.18550   0.00000  Uiso   1.00
C107   C     0.25034   0.35884   0.23449   0.00000  Uiso   1.00
C108   C     0.25948   0.45499   0.27548   0.00000  Uiso   1.00
C109   C     0.17190   0.49551   0.31675   0.00000  Uiso   1.00
C110   C     0.29674   0.27761   0.08794   0.00000  Uiso   1.00
C111   C     0.34491   0.30545   0.00571   0.00000  Uiso   1.00
C112   C     0.29640   0.27759   0.92361   0.00000  Uiso   1.00
C113   C     0.34390   0.19650   0.23434   0.00000  Uiso   1.00
C114   C     0.43173   0.15614   0.27519   0.00000  Uiso   1.00
C115   C     0.42294   0.05996   0.31633   0.00000  Uiso   1.00
H116   H     0.09179   0.15938   0.18607   0.00000  Uiso   1.00
H117   H     0.99721   0.30380   0.27607   0.00000  Uiso   1.00
H118   H     0.08263   0.15428   0.00635   0.00000  Uiso   1.00
H119   H     0.16944   0.00499   0.27579   0.00000  Uiso   1.00
H120   H     0.93349   0.48766   0.37572   0.00000  Uiso   1.00
H121   H     0.11362   0.17235   0.80700   0.00000  Uiso   1.00
H122   H     0.29668   0.85753   0.37517   0.00000  Uiso   1.00
H123   H     0.40888   0.34213   0.18533   0.00000  Uiso   1.00
H124   H     0.33170   0.49659   0.27530   0.00000  Uiso   1.00
H125   H     0.41712   0.34707   0.00557   0.00000  Uiso   1.00
H126   H     0.50393   0.19778   0.27501   0.00000  Uiso   1.00
H127   H     0.20498   0.64414   0.37510   0.00000  Uiso   1.00
H128   H     0.38510   0.32882   0.80637   0.00000  Uiso   1.00
H129   H     0.56816   0.01401   0.37454   0.00000  Uiso   1.00
O130   O     0.01273   0.66422   0.43458   0.00000  Uiso   1.00
O131   O     0.24906   0.25053   0.68844   0.00000  Uiso   1.00
O132   O     0.48923   0.83750   0.43386   0.00000  Uiso   1.00
N133   N     0.00798   0.50328   0.36325   0.00000  Uiso   1.00
N134   N     0.17638   0.20850   0.83152   0.00000  Uiso   1.00
N135   N     0.34753   0.91416   0.36269   0.00000  Uiso   1.00
N136   N     0.15407   0.58748   0.36291   0.00000  Uiso   1.00
N137   N     0.32247   0.29270   0.83119   0.00000  Uiso   1.00
N138   N     0.49362   0.99836   0.36235   0.00000  Uiso   1.00
C139   C     0.83556   0.79875   0.68590   0.00000  Uiso   1.00
C140   C     0.84298   0.69494   0.73471   0.00000  Uiso   1.00
C141   C     0.93059   0.65456   0.77592   0.00000  Uiso   1.00
C142   C     0.92158   0.55836   0.81696   0.00000  Uiso   1.00
C143   C     0.94730   0.40533   0.89274   0.00000  Uiso   1.00
C144   C     0.79657   0.77617   0.58816   0.00000  Uiso   1.00
C145   C     0.84517   0.80410   0.50615   0.00000  Uiso   1.00
C146   C     0.79708   0.77629   0.42383   0.00000  Uiso   1.00
C147   C     0.75072   0.74944   0.27208   0.00000  Uiso   1.00
C148   C     0.74941   0.85728   0.73456   0.00000  Uiso   1.00
C149   C     0.75834   0.95342   0.77563   0.00000  Uiso   1.00
C150   C     0.67054   0.99391   0.81655   0.00000  Uiso   1.00
C151   C     0.55095   0.09299   0.89211   0.00000  Uiso   1.00
C152   C     0.66377   0.69974   0.68550   0.00000  Uiso   1.00
C153   C     0.74966   0.64116   0.73449   0.00000  Uiso   1.00
C154   C     0.74052   0.54501   0.77548   0.00000  Uiso   1.00
C155   C     0.82810   0.50449   0.81675   0.00000  Uiso   1.00
C156   C     0.70326   0.72239   0.58794   0.00000  Uiso   1.00
C157   C     0.65509   0.69455   0.50571   0.00000  Uiso   1.00
C158   C     0.70360   0.72241   0.42361   0.00000  Uiso   1.00
C159   C     0.65610   0.80350   0.73434   0.00000  Uiso   1.00
C160   C     0.56827   0.84386   0.77519   0.00000  Uiso   1.00
C161   C     0.57706   0.94004   0.81633   0.00000  Uiso   1.00
H162   H     0.90821   0.84062   0.68607   0.00000  Uiso   1.00
H163   H     0.00279   0.69620   0.77607   0.00000  Uiso   1.00
H164   H     0.91737   0.84572   0.50635   0.00000  Uiso   1.00
H165   H     0.83056   0.99501   0.77579   0.00000  Uiso   1.00
H166   H     0.06651   0.51234   0.87572   0.00000  Uiso   1.00
H167   H     0.88638   0.82765   0.30700   0.00000  Uiso   1.00
H168   H     0.70332   0.14247   0.87517   0.00000  Uiso   1.00
H169   H     0.59112   0.65787   0.68533   0.00000  Uiso   1.00
H170   H     0.66830   0.50341   0.77530   0.00000  Uiso   1.00
H171   H     0.58288   0.65293   0.50557   0.00000  Uiso   1.00
H172   H     0.49607   0.80222   0.77501   0.00000  Uiso   1.00
H173   H     0.79502   0.35586   0.87510   0.00000  Uiso   1.00
H174   H     0.61490   0.67118   0.30637   0.00000  Uiso   1.00
H175   H     0.43184   0.98599   0.87454   0.00000  Uiso   1.00
O176   O     0.98727   0.33578   0.93458   0.00000  Uiso   1.00
O177   O     0.75094   0.74947   0.18844   0.00000  Uiso   1.00
O178   O     0.51077   0.16250   0.93386   0.00000  Uiso   1.00
N179   N     0.99202   0.49672   0.86325   0.00000  Uiso   1.00
N180   N     0.82362   0.79150   0.33152   0.00000  Uiso   1.00
N181   N     0.65247   0.08584   0.86269   0.00000  Uiso   1.00
N182   N     0.84593   0.41252   0.86291   0.00000  Uiso   1.00
N183   N     0.67753   0.70730   0.33119   0.00000  Uiso   1.00
N184   N     0.50638   0.00164   0.86235   0.00000  Uiso   1.00
