data_job_05158
_audit_creation_date              2018-12-19
_audit_creation_method            'Materials Studio'
_symmetry_space_group_name_H-M    'P1'
_symmetry_Int_Tables_number       1
_symmetry_cell_setting            triclinic
loop_
_symmetry_equiv_pos_as_xyz
  x,y,z
_cell_length_a                    15.2189
_cell_length_b                    15.2189
_cell_length_c                    20.2800
_cell_angle_alpha                 90.0000
_cell_angle_beta                  90.0000
_cell_angle_gamma                 90.0000
loop_
_atom_site_label
_atom_site_type_symbol
_atom_site_fract_x
_atom_site_fract_y
_atom_site_fract_z
_atom_site_U_iso_or_equiv
_atom_site_adp_type
_atom_site_occupancy
C1     C     0.76594   0.04349   0.62450   0.00000  Uiso   1.00
C2     C     0.72967   0.99432   0.56490   0.00000  Uiso   1.00
C3     C     0.75996   0.00184   0.50060   0.00000  Uiso   1.00
C4     C     0.71802   0.95130   0.45308   0.00000  Uiso   1.00
C5     C     0.67228   0.88352   0.35806   0.00000  Uiso   1.00
C6     C     0.68820   0.09224   0.65469   0.00000  Uiso   1.00
C7     C     0.68363   0.18209   0.66590   0.00000  Uiso   1.00
C8     C     0.60678   0.21398   0.69398   0.00000  Uiso   1.00
C9     C     0.49669   0.29821   0.73841   0.00000  Uiso   1.00
C10    C     0.79198   0.97324   0.67442   0.00000  Uiso   1.00
C11    C     0.87468   0.96303   0.70223   0.00000  Uiso   1.00
C12    C     0.88520   0.89474   0.74694   0.00000  Uiso   1.00
C13    C     0.93624   0.79419   0.82200   0.00000  Uiso   1.00
C14    C     0.63758   0.94037   0.65444   0.00000  Uiso   1.00
C15    C     0.65995   0.93832   0.58116   0.00000  Uiso   1.00
C16    C     0.61795   0.88775   0.53373   0.00000  Uiso   1.00
C17    C     0.64818   0.89519   0.46938   0.00000  Uiso   1.00
C18    C     0.61848   0.03624   0.67096   0.00000  Uiso   1.00
C19    C     0.54162   0.06800   0.69903   0.00000  Uiso   1.00
C20    C     0.53694   0.15787   0.71028   0.00000  Uiso   1.00
C21    C     0.72227   0.91722   0.69069   0.00000  Uiso   1.00
C22    C     0.73266   0.84894   0.73536   0.00000  Uiso   1.00
C23    C     0.81535   0.83863   0.76323   0.00000  Uiso   1.00
H24    H     0.82022   0.08710   0.61183   0.00000  Uiso   1.00
H25    H     0.81392   0.04520   0.48803   0.00000  Uiso   1.00
H26    H     0.73760   0.22541   0.65331   0.00000  Uiso   1.00
H27    H     0.92861   0.00639   0.68963   0.00000  Uiso   1.00
H28    H     0.77616   0.97407   0.35794   0.00000  Uiso   1.00
H29    H     0.61526   0.35406   0.70647   0.00000  Uiso   1.00
H30    H     0.01804   0.89220   0.78306   0.00000  Uiso   1.00
H31    H     0.58330   0.89676   0.66711   0.00000  Uiso   1.00
H32    H     0.56400   0.84441   0.54633   0.00000  Uiso   1.00
H33    H     0.48769   0.02464   0.71162   0.00000  Uiso   1.00
H34    H     0.67870   0.80561   0.74794   0.00000  Uiso   1.00
H35    H     0.57332   0.81111   0.40526   0.00000  Uiso   1.00
H36    H     0.41242   0.19111   0.75379   0.00000  Uiso   1.00
H37    H     0.81520   0.72924   0.83038   0.00000  Uiso   1.00
O38    O     0.66630   0.86161   0.30115   0.00000  Uiso   1.00
O39    O     0.45521   0.36014   0.75842   0.00000  Uiso   1.00
O40    O     0.98366   0.75419   0.85890   0.00000  Uiso   1.00
N41    N     0.73109   0.94289   0.38566   0.00000  Uiso   1.00
N42    N     0.58065   0.29816   0.71150   0.00000  Uiso   1.00
N43    N     0.95721   0.86638   0.78312   0.00000  Uiso   1.00
N44    N     0.62194   0.85520   0.41112   0.00000  Uiso   1.00
N45    N     0.47150   0.21047   0.73696   0.00000  Uiso   1.00
N46    N     0.84806   0.77869   0.80858   0.00000  Uiso   1.00
C47    C     0.23406   0.95651   0.12450   0.00000  Uiso   1.00
C48    C     0.27033   0.00568   0.06490   0.00000  Uiso   1.00
C49    C     0.24004   0.99816   0.00060   0.00000  Uiso   1.00
C50    C     0.28198   0.04870   0.95308   0.00000  Uiso   1.00
C51    C     0.32772   0.11648   0.85806   0.00000  Uiso   1.00
C52    C     0.31180   0.90776   0.15469   0.00000  Uiso   1.00
C53    C     0.31637   0.81791   0.16590   0.00000  Uiso   1.00
C54    C     0.39322   0.78602   0.19398   0.00000  Uiso   1.00
C55    C     0.50331   0.70179   0.23841   0.00000  Uiso   1.00
C56    C     0.20802   0.02676   0.17442   0.00000  Uiso   1.00
C57    C     0.12532   0.03697   0.20223   0.00000  Uiso   1.00
C58    C     0.11480   0.10526   0.24694   0.00000  Uiso   1.00
C59    C     0.06376   0.20581   0.32200   0.00000  Uiso   1.00
C60    C     0.36242   0.05963   0.15444   0.00000  Uiso   1.00
C61    C     0.34005   0.06168   0.08116   0.00000  Uiso   1.00
C62    C     0.38205   0.11225   0.03373   0.00000  Uiso   1.00
C63    C     0.35182   0.10481   0.96938   0.00000  Uiso   1.00
C64    C     0.38152   0.96376   0.17096   0.00000  Uiso   1.00
C65    C     0.45838   0.93200   0.19903   0.00000  Uiso   1.00
C66    C     0.46306   0.84213   0.21028   0.00000  Uiso   1.00
C67    C     0.27773   0.08278   0.19069   0.00000  Uiso   1.00
C68    C     0.26734   0.15106   0.23536   0.00000  Uiso   1.00
C69    C     0.18465   0.16137   0.26323   0.00000  Uiso   1.00
H70    H     0.17978   0.91290   0.11183   0.00000  Uiso   1.00
H71    H     0.18608   0.95480   0.98803   0.00000  Uiso   1.00
H72    H     0.26240   0.77459   0.15331   0.00000  Uiso   1.00
H73    H     0.07139   0.99361   0.18963   0.00000  Uiso   1.00
H74    H     0.22384   0.02593   0.85794   0.00000  Uiso   1.00
H75    H     0.38474   0.64594   0.20647   0.00000  Uiso   1.00
H76    H     0.98196   0.10780   0.28306   0.00000  Uiso   1.00
H77    H     0.41670   0.10324   0.16711   0.00000  Uiso   1.00
H78    H     0.43600   0.15559   0.04633   0.00000  Uiso   1.00
H79    H     0.51231   0.97536   0.21162   0.00000  Uiso   1.00
H80    H     0.32130   0.19439   0.24794   0.00000  Uiso   1.00
H81    H     0.42668   0.18889   0.90526   0.00000  Uiso   1.00
H82    H     0.58758   0.80889   0.25379   0.00000  Uiso   1.00
H83    H     0.18480   0.27076   0.33038   0.00000  Uiso   1.00
O84    O     0.33370   0.13839   0.80115   0.00000  Uiso   1.00
O85    O     0.54479   0.63986   0.25842   0.00000  Uiso   1.00
O86    O     0.01634   0.24581   0.35890   0.00000  Uiso   1.00
N87    N     0.26891   0.05711   0.88566   0.00000  Uiso   1.00
N88    N     0.41935   0.70184   0.21150   0.00000  Uiso   1.00
N89    N     0.04279   0.13362   0.28312   0.00000  Uiso   1.00
N90    N     0.37806   0.14480   0.91112   0.00000  Uiso   1.00
N91    N     0.52850   0.78953   0.23696   0.00000  Uiso   1.00
N92    N     0.15194   0.22131   0.30858   0.00000  Uiso   1.00
C93    C     0.45651   0.26594   0.37450   0.00000  Uiso   1.00
C94    C     0.50568   0.22967   0.31490   0.00000  Uiso   1.00
C95    C     0.49816   0.25996   0.25060   0.00000  Uiso   1.00
C96    C     0.54870   0.21802   0.20308   0.00000  Uiso   1.00
C97    C     0.61648   0.17228   0.10806   0.00000  Uiso   1.00
C98    C     0.40776   0.18820   0.40469   0.00000  Uiso   1.00
C99    C     0.31791   0.18363   0.41590   0.00000  Uiso   1.00
C100   C     0.28602   0.10678   0.44398   0.00000  Uiso   1.00
C101   C     0.20179   0.99669   0.48841   0.00000  Uiso   1.00
C102   C     0.52676   0.29198   0.42442   0.00000  Uiso   1.00
C103   C     0.53697   0.37468   0.45223   0.00000  Uiso   1.00
C104   C     0.60526   0.38520   0.49694   0.00000  Uiso   1.00
C105   C     0.70581   0.43624   0.57200   0.00000  Uiso   1.00
C106   C     0.55963   0.13758   0.40444   0.00000  Uiso   1.00
C107   C     0.56168   0.15995   0.33116   0.00000  Uiso   1.00
C108   C     0.61225   0.11795   0.28373   0.00000  Uiso   1.00
C109   C     0.60481   0.14818   0.21938   0.00000  Uiso   1.00
C110   C     0.46376   0.11848   0.42096   0.00000  Uiso   1.00
C111   C     0.43200   0.04162   0.44903   0.00000  Uiso   1.00
C112   C     0.34213   0.03694   0.46028   0.00000  Uiso   1.00
C113   C     0.58278   0.22227   0.44069   0.00000  Uiso   1.00
C114   C     0.65106   0.23266   0.48536   0.00000  Uiso   1.00
C115   C     0.66137   0.31535   0.51323   0.00000  Uiso   1.00
H116   H     0.41290   0.32022   0.36183   0.00000  Uiso   1.00
H117   H     0.45480   0.31392   0.23803   0.00000  Uiso   1.00
H118   H     0.27459   0.23760   0.40331   0.00000  Uiso   1.00
H119   H     0.49361   0.42861   0.43963   0.00000  Uiso   1.00
H120   H     0.52593   0.27616   0.10794   0.00000  Uiso   1.00
H121   H     0.14594   0.11526   0.45647   0.00000  Uiso   1.00
H122   H     0.60780   0.51804   0.53306   0.00000  Uiso   1.00
H123   H     0.60324   0.08330   0.41711   0.00000  Uiso   1.00
H124   H     0.65559   0.06400   0.29633   0.00000  Uiso   1.00
H125   H     0.47536   0.98769   0.46162   0.00000  Uiso   1.00
H126   H     0.69439   0.17870   0.49794   0.00000  Uiso   1.00
H127   H     0.68889   0.07332   0.15526   0.00000  Uiso   1.00
H128   H     0.30889   0.91242   0.50379   0.00000  Uiso   1.00
H129   H     0.77076   0.31520   0.58038   0.00000  Uiso   1.00
O130   O     0.63839   0.16630   0.05115   0.00000  Uiso   1.00
O131   O     0.13986   0.95521   0.50842   0.00000  Uiso   1.00
O132   O     0.74581   0.48366   0.60890   0.00000  Uiso   1.00
N133   N     0.55711   0.23109   0.13566   0.00000  Uiso   1.00
N134   N     0.20184   0.08065   0.46150   0.00000  Uiso   1.00
N135   N     0.63362   0.45721   0.53312   0.00000  Uiso   1.00
N136   N     0.64480   0.12194   0.16112   0.00000  Uiso   1.00
N137   N     0.28953   0.97150   0.48696   0.00000  Uiso   1.00
N138   N     0.72131   0.34806   0.55858   0.00000  Uiso   1.00
C139   C     0.54349   0.73406   0.87450   0.00000  Uiso   1.00
C140   C     0.49432   0.77033   0.81490   0.00000  Uiso   1.00
C141   C     0.50184   0.74004   0.75060   0.00000  Uiso   1.00
C142   C     0.45130   0.78198   0.70308   0.00000  Uiso   1.00
C143   C     0.38352   0.82772   0.60806   0.00000  Uiso   1.00
C144   C     0.59224   0.81180   0.90469   0.00000  Uiso   1.00
C145   C     0.68209   0.81637   0.91590   0.00000  Uiso   1.00
C146   C     0.71398   0.89322   0.94398   0.00000  Uiso   1.00
C147   C     0.79821   0.00331   0.98841   0.00000  Uiso   1.00
C148   C     0.47324   0.70802   0.92442   0.00000  Uiso   1.00
C149   C     0.46303   0.62532   0.95223   0.00000  Uiso   1.00
C150   C     0.39474   0.61480   0.99694   0.00000  Uiso   1.00
C151   C     0.29419   0.56376   0.07200   0.00000  Uiso   1.00
C152   C     0.44037   0.86242   0.90444   0.00000  Uiso   1.00
C153   C     0.43832   0.84005   0.83116   0.00000  Uiso   1.00
C154   C     0.38775   0.88205   0.78373   0.00000  Uiso   1.00
C155   C     0.39519   0.85182   0.71938   0.00000  Uiso   1.00
C156   C     0.53624   0.88152   0.92096   0.00000  Uiso   1.00
C157   C     0.56800   0.95838   0.94903   0.00000  Uiso   1.00
C158   C     0.65787   0.96306   0.96028   0.00000  Uiso   1.00
C159   C     0.41722   0.77773   0.94069   0.00000  Uiso   1.00
C160   C     0.34894   0.76734   0.98536   0.00000  Uiso   1.00
C161   C     0.33863   0.68465   0.01323   0.00000  Uiso   1.00
H162   H     0.58710   0.67978   0.86183   0.00000  Uiso   1.00
H163   H     0.54520   0.68608   0.73803   0.00000  Uiso   1.00
H164   H     0.72541   0.76240   0.90331   0.00000  Uiso   1.00
H165   H     0.50639   0.57139   0.93963   0.00000  Uiso   1.00
H166   H     0.47407   0.72384   0.60794   0.00000  Uiso   1.00
H167   H     0.85406   0.88474   0.95647   0.00000  Uiso   1.00
H168   H     0.39220   0.48196   0.03306   0.00000  Uiso   1.00
H169   H     0.39676   0.91670   0.91711   0.00000  Uiso   1.00
H170   H     0.34441   0.93600   0.79633   0.00000  Uiso   1.00
H171   H     0.52464   0.01231   0.96162   0.00000  Uiso   1.00
H172   H     0.30561   0.82130   0.99794   0.00000  Uiso   1.00
H173   H     0.31111   0.92668   0.65526   0.00000  Uiso   1.00
H174   H     0.69111   0.08758   0.00379   0.00000  Uiso   1.00
H175   H     0.22924   0.68480   0.08038   0.00000  Uiso   1.00
O176   O     0.36161   0.83370   0.55115   0.00000  Uiso   1.00
O177   O     0.86014   0.04479   0.00842   0.00000  Uiso   1.00
O178   O     0.25419   0.51634   0.10890   0.00000  Uiso   1.00
N179   N     0.44289   0.76891   0.63566   0.00000  Uiso   1.00
N180   N     0.79816   0.91935   0.96150   0.00000  Uiso   1.00
N181   N     0.36638   0.54279   0.03312   0.00000  Uiso   1.00
N182   N     0.35520   0.87806   0.66112   0.00000  Uiso   1.00
N183   N     0.71047   0.02850   0.98696   0.00000  Uiso   1.00
N184   N     0.27869   0.65194   0.05858   0.00000  Uiso   1.00
C185   C     0.73406   0.54349   0.12550   0.00000  Uiso   1.00
C186   C     0.77033   0.49432   0.18510   0.00000  Uiso   1.00
C187   C     0.74004   0.50184   0.24940   0.00000  Uiso   1.00
C188   C     0.78198   0.45130   0.29692   0.00000  Uiso   1.00
C189   C     0.82772   0.38352   0.39194   0.00000  Uiso   1.00
C190   C     0.81180   0.59224   0.09531   0.00000  Uiso   1.00
C191   C     0.81637   0.68209   0.08410   0.00000  Uiso   1.00
C192   C     0.89322   0.71398   0.05602   0.00000  Uiso   1.00
C193   C     0.00331   0.79821   0.01159   0.00000  Uiso   1.00
C194   C     0.70802   0.47324   0.07558   0.00000  Uiso   1.00
C195   C     0.62532   0.46303   0.04777   0.00000  Uiso   1.00
C196   C     0.61480   0.39474   0.00306   0.00000  Uiso   1.00
C197   C     0.56376   0.29419   0.92800   0.00000  Uiso   1.00
C198   C     0.86242   0.44037   0.09556   0.00000  Uiso   1.00
C199   C     0.84005   0.43832   0.16884   0.00000  Uiso   1.00
C200   C     0.88205   0.38775   0.21627   0.00000  Uiso   1.00
C201   C     0.85182   0.39519   0.28062   0.00000  Uiso   1.00
C202   C     0.88152   0.53624   0.07904   0.00000  Uiso   1.00
C203   C     0.95838   0.56800   0.05097   0.00000  Uiso   1.00
C204   C     0.96306   0.65787   0.03972   0.00000  Uiso   1.00
C205   C     0.77773   0.41722   0.05931   0.00000  Uiso   1.00
C206   C     0.76734   0.34894   0.01464   0.00000  Uiso   1.00
C207   C     0.68465   0.33863   0.98677   0.00000  Uiso   1.00
H208   H     0.67978   0.58710   0.13817   0.00000  Uiso   1.00
H209   H     0.68608   0.54520   0.26197   0.00000  Uiso   1.00
H210   H     0.76240   0.72541   0.09669   0.00000  Uiso   1.00
H211   H     0.57139   0.50639   0.06037   0.00000  Uiso   1.00
H212   H     0.72384   0.47407   0.39206   0.00000  Uiso   1.00
H213   H     0.88474   0.85406   0.04353   0.00000  Uiso   1.00
H214   H     0.48196   0.39220   0.96694   0.00000  Uiso   1.00
H215   H     0.91670   0.39676   0.08289   0.00000  Uiso   1.00
H216   H     0.93600   0.34441   0.20367   0.00000  Uiso   1.00
H217   H     0.01231   0.52464   0.03838   0.00000  Uiso   1.00
H218   H     0.82130   0.30561   0.00206   0.00000  Uiso   1.00
H219   H     0.92668   0.31111   0.34474   0.00000  Uiso   1.00
H220   H     0.08758   0.69111   0.99621   0.00000  Uiso   1.00
H221   H     0.68480   0.22924   0.91962   0.00000  Uiso   1.00
O222   O     0.83370   0.36161   0.44885   0.00000  Uiso   1.00
O223   O     0.04479   0.86014   0.99158   0.00000  Uiso   1.00
O224   O     0.51634   0.25419   0.89110   0.00000  Uiso   1.00
N225   N     0.76891   0.44289   0.36434   0.00000  Uiso   1.00
N226   N     0.91935   0.79816   0.03850   0.00000  Uiso   1.00
N227   N     0.54279   0.36638   0.96688   0.00000  Uiso   1.00
N228   N     0.87806   0.35520   0.33888   0.00000  Uiso   1.00
N229   N     0.02850   0.71047   0.01304   0.00000  Uiso   1.00
N230   N     0.65194   0.27869   0.94142   0.00000  Uiso   1.00
C231   C     0.26594   0.45651   0.62550   0.00000  Uiso   1.00
C232   C     0.22967   0.50568   0.68510   0.00000  Uiso   1.00
C233   C     0.25996   0.49816   0.74940   0.00000  Uiso   1.00
C234   C     0.21802   0.54870   0.79692   0.00000  Uiso   1.00
C235   C     0.17228   0.61648   0.89194   0.00000  Uiso   1.00
C236   C     0.18820   0.40776   0.59531   0.00000  Uiso   1.00
C237   C     0.18363   0.31791   0.58410   0.00000  Uiso   1.00
C238   C     0.10678   0.28602   0.55602   0.00000  Uiso   1.00
C239   C     0.99669   0.20179   0.51159   0.00000  Uiso   1.00
C240   C     0.29198   0.52676   0.57558   0.00000  Uiso   1.00
C241   C     0.37468   0.53697   0.54777   0.00000  Uiso   1.00
C242   C     0.38520   0.60526   0.50306   0.00000  Uiso   1.00
C243   C     0.43624   0.70581   0.42800   0.00000  Uiso   1.00
C244   C     0.13758   0.55963   0.59556   0.00000  Uiso   1.00
C245   C     0.15995   0.56168   0.66884   0.00000  Uiso   1.00
C246   C     0.11795   0.61225   0.71627   0.00000  Uiso   1.00
C247   C     0.14818   0.60481   0.78062   0.00000  Uiso   1.00
C248   C     0.11848   0.46376   0.57904   0.00000  Uiso   1.00
C249   C     0.04162   0.43200   0.55097   0.00000  Uiso   1.00
C250   C     0.03694   0.34213   0.53972   0.00000  Uiso   1.00
C251   C     0.22227   0.58278   0.55931   0.00000  Uiso   1.00
C252   C     0.23266   0.65106   0.51464   0.00000  Uiso   1.00
C253   C     0.31535   0.66137   0.48677   0.00000  Uiso   1.00
H254   H     0.32022   0.41290   0.63817   0.00000  Uiso   1.00
H255   H     0.31392   0.45480   0.76197   0.00000  Uiso   1.00
H256   H     0.23760   0.27459   0.59669   0.00000  Uiso   1.00
H257   H     0.42861   0.49361   0.56037   0.00000  Uiso   1.00
H258   H     0.27616   0.52593   0.89206   0.00000  Uiso   1.00
H259   H     0.11526   0.14594   0.54353   0.00000  Uiso   1.00
H260   H     0.51804   0.60780   0.46694   0.00000  Uiso   1.00
H261   H     0.08330   0.60324   0.58289   0.00000  Uiso   1.00
H262   H     0.06400   0.65559   0.70367   0.00000  Uiso   1.00
H263   H     0.98769   0.47536   0.53838   0.00000  Uiso   1.00
H264   H     0.17870   0.69439   0.50206   0.00000  Uiso   1.00
H265   H     0.07332   0.68889   0.84474   0.00000  Uiso   1.00
H266   H     0.91242   0.30889   0.49621   0.00000  Uiso   1.00
H267   H     0.31520   0.77076   0.41962   0.00000  Uiso   1.00
O268   O     0.16630   0.63839   0.94885   0.00000  Uiso   1.00
O269   O     0.95521   0.13986   0.49158   0.00000  Uiso   1.00
O270   O     0.48366   0.74581   0.39110   0.00000  Uiso   1.00
N271   N     0.23109   0.55711   0.86434   0.00000  Uiso   1.00
N272   N     0.08065   0.20184   0.53850   0.00000  Uiso   1.00
N273   N     0.45721   0.63362   0.46688   0.00000  Uiso   1.00
N274   N     0.12194   0.64480   0.83888   0.00000  Uiso   1.00
N275   N     0.97150   0.28953   0.51304   0.00000  Uiso   1.00
N276   N     0.34806   0.72131   0.44142   0.00000  Uiso   1.00
C277   C     0.04349   0.76594   0.37550   0.00000  Uiso   1.00
C278   C     0.99432   0.72967   0.43510   0.00000  Uiso   1.00
C279   C     0.00184   0.75996   0.49940   0.00000  Uiso   1.00
C280   C     0.95130   0.71802   0.54692   0.00000  Uiso   1.00
C281   C     0.88352   0.67228   0.64194   0.00000  Uiso   1.00
C282   C     0.09224   0.68820   0.34531   0.00000  Uiso   1.00
C283   C     0.18209   0.68363   0.33410   0.00000  Uiso   1.00
C284   C     0.21398   0.60678   0.30602   0.00000  Uiso   1.00
C285   C     0.29821   0.49669   0.26159   0.00000  Uiso   1.00
C286   C     0.97324   0.79198   0.32558   0.00000  Uiso   1.00
C287   C     0.96303   0.87468   0.29777   0.00000  Uiso   1.00
C288   C     0.89474   0.88520   0.25306   0.00000  Uiso   1.00
C289   C     0.79419   0.93624   0.17800   0.00000  Uiso   1.00
C290   C     0.94037   0.63758   0.34556   0.00000  Uiso   1.00
C291   C     0.93832   0.65995   0.41884   0.00000  Uiso   1.00
C292   C     0.88775   0.61795   0.46627   0.00000  Uiso   1.00
C293   C     0.89519   0.64818   0.53062   0.00000  Uiso   1.00
C294   C     0.03624   0.61848   0.32904   0.00000  Uiso   1.00
C295   C     0.06800   0.54162   0.30097   0.00000  Uiso   1.00
C296   C     0.15787   0.53694   0.28972   0.00000  Uiso   1.00
C297   C     0.91722   0.72227   0.30931   0.00000  Uiso   1.00
C298   C     0.84894   0.73266   0.26464   0.00000  Uiso   1.00
C299   C     0.83863   0.81535   0.23677   0.00000  Uiso   1.00
H300   H     0.08710   0.82022   0.38817   0.00000  Uiso   1.00
H301   H     0.04520   0.81392   0.51197   0.00000  Uiso   1.00
H302   H     0.22541   0.73760   0.34669   0.00000  Uiso   1.00
H303   H     0.00639   0.92861   0.31037   0.00000  Uiso   1.00
H304   H     0.97407   0.77616   0.64206   0.00000  Uiso   1.00
H305   H     0.35406   0.61526   0.29353   0.00000  Uiso   1.00
H306   H     0.89220   0.01804   0.21694   0.00000  Uiso   1.00
H307   H     0.89676   0.58330   0.33289   0.00000  Uiso   1.00
H308   H     0.84441   0.56400   0.45367   0.00000  Uiso   1.00
H309   H     0.02464   0.48769   0.28838   0.00000  Uiso   1.00
H310   H     0.80561   0.67870   0.25206   0.00000  Uiso   1.00
H311   H     0.81111   0.57332   0.59474   0.00000  Uiso   1.00
H312   H     0.19111   0.41242   0.24621   0.00000  Uiso   1.00
H313   H     0.72924   0.81520   0.16962   0.00000  Uiso   1.00
O314   O     0.86161   0.66630   0.69885   0.00000  Uiso   1.00
O315   O     0.36014   0.45521   0.24158   0.00000  Uiso   1.00
O316   O     0.75419   0.98366   0.14110   0.00000  Uiso   1.00
N317   N     0.94289   0.73109   0.61434   0.00000  Uiso   1.00
N318   N     0.29816   0.58065   0.28850   0.00000  Uiso   1.00
N319   N     0.86638   0.95721   0.21688   0.00000  Uiso   1.00
N320   N     0.85520   0.62194   0.58888   0.00000  Uiso   1.00
N321   N     0.21047   0.47150   0.26304   0.00000  Uiso   1.00
N322   N     0.77869   0.84806   0.19142   0.00000  Uiso   1.00
C323   C     0.95651   0.23406   0.87550   0.00000  Uiso   1.00
C324   C     0.00568   0.27033   0.93510   0.00000  Uiso   1.00
C325   C     0.99816   0.24004   0.99940   0.00000  Uiso   1.00
C326   C     0.04870   0.28198   0.04692   0.00000  Uiso   1.00
C327   C     0.11648   0.32772   0.14194   0.00000  Uiso   1.00
C328   C     0.90776   0.31180   0.84531   0.00000  Uiso   1.00
C329   C     0.81791   0.31637   0.83410   0.00000  Uiso   1.00
C330   C     0.78602   0.39322   0.80602   0.00000  Uiso   1.00
C331   C     0.70179   0.50331   0.76159   0.00000  Uiso   1.00
C332   C     0.02676   0.20802   0.82558   0.00000  Uiso   1.00
C333   C     0.03697   0.12532   0.79777   0.00000  Uiso   1.00
C334   C     0.10526   0.11480   0.75306   0.00000  Uiso   1.00
C335   C     0.20581   0.06376   0.67800   0.00000  Uiso   1.00
C336   C     0.05963   0.36242   0.84556   0.00000  Uiso   1.00
C337   C     0.06168   0.34005   0.91884   0.00000  Uiso   1.00
C338   C     0.11225   0.38205   0.96627   0.00000  Uiso   1.00
C339   C     0.10481   0.35182   0.03062   0.00000  Uiso   1.00
C340   C     0.96376   0.38152   0.82904   0.00000  Uiso   1.00
C341   C     0.93200   0.45838   0.80097   0.00000  Uiso   1.00
C342   C     0.84213   0.46306   0.78972   0.00000  Uiso   1.00
C343   C     0.08278   0.27773   0.80931   0.00000  Uiso   1.00
C344   C     0.15106   0.26734   0.76464   0.00000  Uiso   1.00
C345   C     0.16137   0.18465   0.73677   0.00000  Uiso   1.00
H346   H     0.91290   0.17978   0.88817   0.00000  Uiso   1.00
H347   H     0.95480   0.18608   0.01197   0.00000  Uiso   1.00
H348   H     0.77459   0.26240   0.84669   0.00000  Uiso   1.00
H349   H     0.99361   0.07139   0.81037   0.00000  Uiso   1.00
H350   H     0.02593   0.22384   0.14206   0.00000  Uiso   1.00
H351   H     0.64594   0.38474   0.79353   0.00000  Uiso   1.00
H352   H     0.10780   0.98196   0.71694   0.00000  Uiso   1.00
H353   H     0.10324   0.41670   0.83289   0.00000  Uiso   1.00
H354   H     0.15559   0.43600   0.95367   0.00000  Uiso   1.00
H355   H     0.97536   0.51231   0.78838   0.00000  Uiso   1.00
H356   H     0.19439   0.32130   0.75206   0.00000  Uiso   1.00
H357   H     0.18889   0.42668   0.09474   0.00000  Uiso   1.00
H358   H     0.80889   0.58758   0.74621   0.00000  Uiso   1.00
H359   H     0.27076   0.18480   0.66962   0.00000  Uiso   1.00
O360   O     0.13839   0.33370   0.19885   0.00000  Uiso   1.00
O361   O     0.63986   0.54479   0.74158   0.00000  Uiso   1.00
O362   O     0.24581   0.01634   0.64110   0.00000  Uiso   1.00
N363   N     0.05711   0.26891   0.11434   0.00000  Uiso   1.00
N364   N     0.70184   0.41935   0.78850   0.00000  Uiso   1.00
N365   N     0.13362   0.04279   0.71688   0.00000  Uiso   1.00
N366   N     0.14480   0.37806   0.08888   0.00000  Uiso   1.00
N367   N     0.78953   0.52850   0.76304   0.00000  Uiso   1.00
N368   N     0.22131   0.15194   0.69142   0.00000  Uiso   1.00
