data_job_05309
_audit_creation_date              2018-12-19
_audit_creation_method            'Materials Studio'
_symmetry_space_group_name_H-M    'P1'
_symmetry_Int_Tables_number       1
_symmetry_cell_setting            triclinic
loop_
_symmetry_equiv_pos_as_xyz
  x,y,z
_cell_length_a                    12.3229
_cell_length_b                    13.8072
_cell_length_c                    18.1290
_cell_angle_alpha                 90.0000
_cell_angle_beta                  120.5830
_cell_angle_gamma                 90.0000
loop_
_atom_site_label
_atom_site_type_symbol
_atom_site_fract_x
_atom_site_fract_y
_atom_site_fract_z
_atom_site_U_iso_or_equiv
_atom_site_adp_type
_atom_site_occupancy
C1     C     0.28451   0.21154   0.62648   0.00000  Uiso   1.00
C2     C     0.29900   0.32039   0.64294   0.00000  Uiso   1.00
C3     C     0.32969   0.36557   0.71954   0.00000  Uiso   1.00
C4     C     0.33840   0.46589   0.72163   0.00000  Uiso   1.00
C5     C     0.36407   0.62683   0.75813   0.00000  Uiso   1.00
C6     C     0.15237   0.19661   0.54969   0.00000  Uiso   1.00
C7     C     0.05978   0.13771   0.54788   0.00000  Uiso   1.00
C8     C     0.94505   0.13383   0.47147   0.00000  Uiso   1.00
C9     C     0.74309   0.10254   0.36317   0.00000  Uiso   1.00
C10    C     0.37535   0.18466   0.59601   0.00000  Uiso   1.00
C11    C     0.47023   0.11569   0.63313   0.00000  Uiso   1.00
C12    C     0.54323   0.10173   0.59570   0.00000  Uiso   1.00
C13    C     0.68750   0.05189   0.55932   0.00000  Uiso   1.00
C14    C     0.24540   0.30937   0.49399   0.00000  Uiso   1.00
C15    C     0.27776   0.37352   0.57098   0.00000  Uiso   1.00
C16    C     0.28642   0.47380   0.57296   0.00000  Uiso   1.00
C17    C     0.31712   0.51913   0.64954   0.00000  Uiso   1.00
C18    C     0.13112   0.24974   0.47773   0.00000  Uiso   1.00
C19    C     0.01651   0.24595   0.40130   0.00000  Uiso   1.00
C20    C     0.92377   0.18706   0.39938   0.00000  Uiso   1.00
C21    C     0.35412   0.23780   0.52405   0.00000  Uiso   1.00
C22    C     0.42697   0.22393   0.48655   0.00000  Uiso   1.00
C23    C     0.52195   0.15496   0.52360   0.00000  Uiso   1.00
H24    H     0.30104   0.17017   0.68250   0.00000  Uiso   1.00
H25    H     0.34611   0.32442   0.77521   0.00000  Uiso   1.00
H26    H     0.07625   0.09659   0.60358   0.00000  Uiso   1.00
H27    H     0.48664   0.07459   0.68881   0.00000  Uiso   1.00
H28    H     0.38667   0.51888   0.84625   0.00000  Uiso   1.00
H29    H     0.81765   0.03846   0.48434   0.00000  Uiso   1.00
H30    H     0.68306   0.99205   0.66408   0.00000  Uiso   1.00
H31    H     0.22886   0.35073   0.43797   0.00000  Uiso   1.00
H32    H     0.26998   0.51490   0.51726   0.00000  Uiso   1.00
H33    H     0.00011   0.28707   0.34563   0.00000  Uiso   1.00
H34    H     0.41051   0.26506   0.43086   0.00000  Uiso   1.00
H35    H     0.32487   0.67348   0.63689   0.00000  Uiso   1.00
H36    H     0.75585   0.19306   0.27498   0.00000  Uiso   1.00
H37    H     0.62126   0.14665   0.45472   0.00000  Uiso   1.00
O38    O     0.38407   0.70092   0.79813   0.00000  Uiso   1.00
O39    O     0.63756   0.07061   0.32332   0.00000  Uiso   1.00
O40    O     0.77295   0.00973   0.55914   0.00000  Uiso   1.00
N41    N     0.36651   0.53273   0.78610   0.00000  Uiso   1.00
N42    N     0.83450   0.08358   0.44774   0.00000  Uiso   1.00
N43    N     0.64356   0.04017   0.61577   0.00000  Uiso   1.00
N44    N     0.33325   0.61592   0.67344   0.00000  Uiso   1.00
N45    N     0.80125   0.16677   0.33509   0.00000  Uiso   1.00
N46    N     0.61031   0.12336   0.50311   0.00000  Uiso   1.00
C47    C     0.71549   0.21154   0.87352   0.00000  Uiso   1.00
C48    C     0.70100   0.32039   0.85706   0.00000  Uiso   1.00
C49    C     0.67031   0.36557   0.78046   0.00000  Uiso   1.00
C50    C     0.66160   0.46589   0.77837   0.00000  Uiso   1.00
C51    C     0.63593   0.62683   0.74187   0.00000  Uiso   1.00
C52    C     0.84763   0.19661   0.95031   0.00000  Uiso   1.00
C53    C     0.94022   0.13771   0.95212   0.00000  Uiso   1.00
C54    C     0.05495   0.13383   0.02853   0.00000  Uiso   1.00
C55    C     0.25691   0.10254   0.13683   0.00000  Uiso   1.00
C56    C     0.62465   0.18466   0.90399   0.00000  Uiso   1.00
C57    C     0.52977   0.11569   0.86687   0.00000  Uiso   1.00
C58    C     0.45677   0.10173   0.90430   0.00000  Uiso   1.00
C59    C     0.31250   0.05189   0.94068   0.00000  Uiso   1.00
C60    C     0.75460   0.30937   0.00601   0.00000  Uiso   1.00
C61    C     0.72224   0.37352   0.92902   0.00000  Uiso   1.00
C62    C     0.71358   0.47380   0.92704   0.00000  Uiso   1.00
C63    C     0.68288   0.51913   0.85046   0.00000  Uiso   1.00
C64    C     0.86888   0.24974   0.02227   0.00000  Uiso   1.00
C65    C     0.98349   0.24595   0.09870   0.00000  Uiso   1.00
C66    C     0.07623   0.18706   0.10062   0.00000  Uiso   1.00
C67    C     0.64588   0.23780   0.97595   0.00000  Uiso   1.00
C68    C     0.57303   0.22393   0.01345   0.00000  Uiso   1.00
C69    C     0.47805   0.15496   0.97640   0.00000  Uiso   1.00
H70    H     0.69896   0.17017   0.81750   0.00000  Uiso   1.00
H71    H     0.65389   0.32442   0.72479   0.00000  Uiso   1.00
H72    H     0.92375   0.09659   0.89642   0.00000  Uiso   1.00
H73    H     0.51336   0.07459   0.81119   0.00000  Uiso   1.00
H74    H     0.61333   0.51888   0.65375   0.00000  Uiso   1.00
H75    H     0.18235   0.03846   0.01566   0.00000  Uiso   1.00
H76    H     0.31694   0.99205   0.83592   0.00000  Uiso   1.00
H77    H     0.77114   0.35073   0.06203   0.00000  Uiso   1.00
H78    H     0.73002   0.51490   0.98274   0.00000  Uiso   1.00
H79    H     0.99989   0.28707   0.15437   0.00000  Uiso   1.00
H80    H     0.58949   0.26506   0.06914   0.00000  Uiso   1.00
H81    H     0.67513   0.67348   0.86311   0.00000  Uiso   1.00
H82    H     0.24415   0.19306   0.22502   0.00000  Uiso   1.00
H83    H     0.37874   0.14665   0.04528   0.00000  Uiso   1.00
O84    O     0.61593   0.70092   0.70187   0.00000  Uiso   1.00
O85    O     0.36244   0.07061   0.17668   0.00000  Uiso   1.00
O86    O     0.22705   0.00973   0.94086   0.00000  Uiso   1.00
N87    N     0.63349   0.53273   0.71390   0.00000  Uiso   1.00
N88    N     0.16550   0.08358   0.05226   0.00000  Uiso   1.00
N89    N     0.35644   0.04017   0.88423   0.00000  Uiso   1.00
N90    N     0.66675   0.61592   0.82656   0.00000  Uiso   1.00
N91    N     0.19875   0.16677   0.16491   0.00000  Uiso   1.00
N92    N     0.38969   0.12336   0.99689   0.00000  Uiso   1.00
C93    C     0.71549   0.78846   0.37352   0.00000  Uiso   1.00
C94    C     0.70100   0.67961   0.35706   0.00000  Uiso   1.00
C95    C     0.67031   0.63443   0.28046   0.00000  Uiso   1.00
C96    C     0.66160   0.53411   0.27837   0.00000  Uiso   1.00
C97    C     0.63593   0.37317   0.24187   0.00000  Uiso   1.00
C98    C     0.84763   0.80339   0.45031   0.00000  Uiso   1.00
C99    C     0.94022   0.86229   0.45212   0.00000  Uiso   1.00
C100   C     0.05495   0.86617   0.52853   0.00000  Uiso   1.00
C101   C     0.25691   0.89746   0.63683   0.00000  Uiso   1.00
C102   C     0.62465   0.81534   0.40399   0.00000  Uiso   1.00
C103   C     0.52977   0.88431   0.36687   0.00000  Uiso   1.00
C104   C     0.45677   0.89827   0.40430   0.00000  Uiso   1.00
C105   C     0.31250   0.94811   0.44068   0.00000  Uiso   1.00
C106   C     0.75460   0.69063   0.50601   0.00000  Uiso   1.00
C107   C     0.72224   0.62648   0.42902   0.00000  Uiso   1.00
C108   C     0.71358   0.52620   0.42704   0.00000  Uiso   1.00
C109   C     0.68288   0.48087   0.35046   0.00000  Uiso   1.00
C110   C     0.86888   0.75026   0.52227   0.00000  Uiso   1.00
C111   C     0.98349   0.75405   0.59870   0.00000  Uiso   1.00
C112   C     0.07623   0.81294   0.60062   0.00000  Uiso   1.00
C113   C     0.64588   0.76220   0.47595   0.00000  Uiso   1.00
C114   C     0.57303   0.77607   0.51345   0.00000  Uiso   1.00
C115   C     0.47805   0.84504   0.47640   0.00000  Uiso   1.00
H116   H     0.69896   0.82983   0.31750   0.00000  Uiso   1.00
H117   H     0.65389   0.67558   0.22479   0.00000  Uiso   1.00
H118   H     0.92375   0.90341   0.39642   0.00000  Uiso   1.00
H119   H     0.51336   0.92541   0.31119   0.00000  Uiso   1.00
H120   H     0.61333   0.48112   0.15375   0.00000  Uiso   1.00
H121   H     0.18235   0.96154   0.51566   0.00000  Uiso   1.00
H122   H     0.31694   0.00795   0.33592   0.00000  Uiso   1.00
H123   H     0.77114   0.64927   0.56203   0.00000  Uiso   1.00
H124   H     0.73002   0.48510   0.48274   0.00000  Uiso   1.00
H125   H     0.99989   0.71293   0.65437   0.00000  Uiso   1.00
H126   H     0.58949   0.73494   0.56914   0.00000  Uiso   1.00
H127   H     0.67513   0.32652   0.36311   0.00000  Uiso   1.00
H128   H     0.24415   0.80694   0.72502   0.00000  Uiso   1.00
H129   H     0.37874   0.85335   0.54528   0.00000  Uiso   1.00
O130   O     0.61593   0.29908   0.20187   0.00000  Uiso   1.00
O131   O     0.36244   0.92939   0.67668   0.00000  Uiso   1.00
O132   O     0.22705   0.99027   0.44086   0.00000  Uiso   1.00
N133   N     0.63349   0.46727   0.21390   0.00000  Uiso   1.00
N134   N     0.16550   0.91642   0.55226   0.00000  Uiso   1.00
N135   N     0.35644   0.95983   0.38423   0.00000  Uiso   1.00
N136   N     0.66675   0.38408   0.32656   0.00000  Uiso   1.00
N137   N     0.19875   0.83323   0.66491   0.00000  Uiso   1.00
N138   N     0.38969   0.87664   0.49689   0.00000  Uiso   1.00
C139   C     0.28451   0.78846   0.12648   0.00000  Uiso   1.00
C140   C     0.29900   0.67961   0.14294   0.00000  Uiso   1.00
C141   C     0.32969   0.63443   0.21954   0.00000  Uiso   1.00
C142   C     0.33840   0.53411   0.22163   0.00000  Uiso   1.00
C143   C     0.36407   0.37317   0.25813   0.00000  Uiso   1.00
C144   C     0.15237   0.80339   0.04969   0.00000  Uiso   1.00
C145   C     0.05978   0.86229   0.04788   0.00000  Uiso   1.00
C146   C     0.94505   0.86617   0.97147   0.00000  Uiso   1.00
C147   C     0.74309   0.89746   0.86317   0.00000  Uiso   1.00
C148   C     0.37535   0.81534   0.09601   0.00000  Uiso   1.00
C149   C     0.47023   0.88431   0.13313   0.00000  Uiso   1.00
C150   C     0.54323   0.89827   0.09570   0.00000  Uiso   1.00
C151   C     0.68750   0.94811   0.05932   0.00000  Uiso   1.00
C152   C     0.24540   0.69063   0.99399   0.00000  Uiso   1.00
C153   C     0.27776   0.62648   0.07098   0.00000  Uiso   1.00
C154   C     0.28642   0.52620   0.07296   0.00000  Uiso   1.00
C155   C     0.31712   0.48087   0.14954   0.00000  Uiso   1.00
C156   C     0.13112   0.75026   0.97773   0.00000  Uiso   1.00
C157   C     0.01651   0.75405   0.90130   0.00000  Uiso   1.00
C158   C     0.92377   0.81294   0.89938   0.00000  Uiso   1.00
C159   C     0.35412   0.76220   0.02405   0.00000  Uiso   1.00
C160   C     0.42697   0.77607   0.98655   0.00000  Uiso   1.00
C161   C     0.52195   0.84504   0.02360   0.00000  Uiso   1.00
H162   H     0.30104   0.82983   0.18250   0.00000  Uiso   1.00
H163   H     0.34611   0.67558   0.27521   0.00000  Uiso   1.00
H164   H     0.07625   0.90341   0.10358   0.00000  Uiso   1.00
H165   H     0.48664   0.92541   0.18881   0.00000  Uiso   1.00
H166   H     0.38667   0.48112   0.34625   0.00000  Uiso   1.00
H167   H     0.81765   0.96154   0.98434   0.00000  Uiso   1.00
H168   H     0.68306   0.00795   0.16408   0.00000  Uiso   1.00
H169   H     0.22886   0.64927   0.93797   0.00000  Uiso   1.00
H170   H     0.26998   0.48510   0.01726   0.00000  Uiso   1.00
H171   H     0.00011   0.71293   0.84563   0.00000  Uiso   1.00
H172   H     0.41051   0.73494   0.93086   0.00000  Uiso   1.00
H173   H     0.32487   0.32652   0.13689   0.00000  Uiso   1.00
H174   H     0.75585   0.80694   0.77498   0.00000  Uiso   1.00
H175   H     0.62126   0.85335   0.95472   0.00000  Uiso   1.00
O176   O     0.38407   0.29908   0.29813   0.00000  Uiso   1.00
O177   O     0.63756   0.92939   0.82332   0.00000  Uiso   1.00
O178   O     0.77295   0.99027   0.05914   0.00000  Uiso   1.00
N179   N     0.36651   0.46727   0.28610   0.00000  Uiso   1.00
N180   N     0.83450   0.91642   0.94774   0.00000  Uiso   1.00
N181   N     0.64356   0.95983   0.11577   0.00000  Uiso   1.00
N182   N     0.33325   0.38408   0.17344   0.00000  Uiso   1.00
N183   N     0.80125   0.83323   0.83509   0.00000  Uiso   1.00
N184   N     0.61031   0.87664   0.00311   0.00000  Uiso   1.00
