data_job_01731
_audit_creation_date              2018-12-19
_audit_creation_method            'Materials Studio'
_symmetry_space_group_name_H-M    'P1'
_symmetry_Int_Tables_number       1
_symmetry_cell_setting            triclinic
loop_
_symmetry_equiv_pos_as_xyz
  x,y,z
_cell_length_a                    12.4905
_cell_length_b                    22.2110
_cell_length_c                    30.2800
_cell_angle_alpha                 90.0000
_cell_angle_beta                  88.6873
_cell_angle_gamma                 90.0000
loop_
_atom_site_label
_atom_site_type_symbol
_atom_site_fract_x
_atom_site_fract_y
_atom_site_fract_z
_atom_site_U_iso_or_equiv
_atom_site_adp_type
_atom_site_occupancy
C1     C     0.13300   0.80008   0.31357   0.00000  Uiso   1.00
C2     C     0.05218   0.78908   0.35122   0.00000  Uiso   1.00
C3     C     0.95974   0.75470   0.34867   0.00000  Uiso   1.00
C4     C     0.89628   0.75016   0.38677   0.00000  Uiso   1.00
C5     C     0.76648   0.72872   0.43925   0.00000  Uiso   1.00
C6     C     0.14125   0.86824   0.30851   0.00000  Uiso   1.00
C7     C     0.12372   0.90042   0.27006   0.00000  Uiso   1.00
C8     C     0.13524   0.96252   0.27221   0.00000  Uiso   1.00
C9     C     0.14381   0.06398   0.25839   0.00000  Uiso   1.00
C10    C     0.24098   0.77928   0.33046   0.00000  Uiso   1.00
C11    C     0.30732   0.73668   0.31045   0.00000  Uiso   1.00
C12    C     0.40283   0.72389   0.33107   0.00000  Uiso   1.00
C13    C     0.56624   0.68723   0.35131   0.00000  Uiso   1.00
C14    C     0.18467   0.85314   0.38576   0.00000  Uiso   1.00
C15    C     0.08024   0.81790   0.39042   0.00000  Uiso   1.00
C16    C     0.01690   0.81341   0.42854   0.00000  Uiso   1.00
C17    C     0.92439   0.77903   0.42605   0.00000  Uiso   1.00
C18    C     0.16931   0.89706   0.34772   0.00000  Uiso   1.00
C19    C     0.18087   0.95913   0.34993   0.00000  Uiso   1.00
C20    C     0.16336   0.99139   0.31149   0.00000  Uiso   1.00
C21    C     0.26904   0.80810   0.36967   0.00000  Uiso   1.00
C22    C     0.36447   0.79538   0.39032   0.00000  Uiso   1.00
C23    C     0.43094   0.75276   0.37035   0.00000  Uiso   1.00
H24    H     0.11116   0.77765   0.28305   0.00000  Uiso   1.00
H25    H     0.93805   0.73241   0.31832   0.00000  Uiso   1.00
H26    H     0.10201   0.87811   0.23972   0.00000  Uiso   1.00
H27    H     0.28558   0.71439   0.28011   0.00000  Uiso   1.00
H28    H     0.75849   0.69499   0.37472   0.00000  Uiso   1.00
H29    H     0.10424   0.00220   0.20899   0.00000  Uiso   1.00
H30    H     0.49134   0.65696   0.29414   0.00000  Uiso   1.00
H31    H     0.20651   0.87558   0.41629   0.00000  Uiso   1.00
H32    H     0.03864   0.83571   0.45888   0.00000  Uiso   1.00
H33    H     0.20259   0.98141   0.38028   0.00000  Uiso   1.00
H34    H     0.38616   0.81769   0.42066   0.00000  Uiso   1.00
H35    H     0.84012   0.77884   0.48880   0.00000  Uiso   1.00
H36    H     0.18588   0.08604   0.32306   0.00000  Uiso   1.00
H37    H     0.57297   0.74081   0.40822   0.00000  Uiso   1.00
O38    O     0.68713   0.70894   0.45737   0.00000  Uiso   1.00
O39    O     0.14077   0.11198   0.23993   0.00000  Uiso   1.00
O40    O     0.64862   0.65904   0.35165   0.00000  Uiso   1.00
N41    N     0.80075   0.72018   0.39573   0.00000  Uiso   1.00
N42    N     0.12399   0.00740   0.24078   0.00000  Uiso   1.00
N43    N     0.48591   0.68465   0.32038   0.00000  Uiso   1.00
N44    N     0.84468   0.76530   0.45711   0.00000  Uiso   1.00
N45    N     0.16792   0.05252   0.30216   0.00000  Uiso   1.00
N46    N     0.52983   0.72977   0.38177   0.00000  Uiso   1.00
C47    C     0.63300   0.30008   0.31357   0.00000  Uiso   1.00
C48    C     0.55218   0.28908   0.35122   0.00000  Uiso   1.00
C49    C     0.45974   0.25470   0.34867   0.00000  Uiso   1.00
C50    C     0.39628   0.25016   0.38677   0.00000  Uiso   1.00
C51    C     0.26648   0.22872   0.43925   0.00000  Uiso   1.00
C52    C     0.64125   0.36824   0.30851   0.00000  Uiso   1.00
C53    C     0.62372   0.40042   0.27006   0.00000  Uiso   1.00
C54    C     0.63524   0.46252   0.27221   0.00000  Uiso   1.00
C55    C     0.64381   0.56398   0.25839   0.00000  Uiso   1.00
C56    C     0.74098   0.27928   0.33046   0.00000  Uiso   1.00
C57    C     0.80732   0.23668   0.31045   0.00000  Uiso   1.00
C58    C     0.90283   0.22389   0.33107   0.00000  Uiso   1.00
C59    C     0.06624   0.18723   0.35131   0.00000  Uiso   1.00
C60    C     0.68467   0.35314   0.38576   0.00000  Uiso   1.00
C61    C     0.58024   0.31790   0.39042   0.00000  Uiso   1.00
C62    C     0.51690   0.31341   0.42854   0.00000  Uiso   1.00
C63    C     0.42439   0.27903   0.42605   0.00000  Uiso   1.00
C64    C     0.66931   0.39706   0.34772   0.00000  Uiso   1.00
C65    C     0.68087   0.45913   0.34993   0.00000  Uiso   1.00
C66    C     0.66336   0.49139   0.31149   0.00000  Uiso   1.00
C67    C     0.76904   0.30810   0.36967   0.00000  Uiso   1.00
C68    C     0.86447   0.29538   0.39032   0.00000  Uiso   1.00
C69    C     0.93094   0.25276   0.37035   0.00000  Uiso   1.00
H70    H     0.61116   0.27765   0.28305   0.00000  Uiso   1.00
H71    H     0.43805   0.23241   0.31832   0.00000  Uiso   1.00
H72    H     0.60201   0.37811   0.23972   0.00000  Uiso   1.00
H73    H     0.78558   0.21439   0.28011   0.00000  Uiso   1.00
H74    H     0.25849   0.19499   0.37472   0.00000  Uiso   1.00
H75    H     0.60424   0.50220   0.20899   0.00000  Uiso   1.00
H76    H     0.99134   0.15696   0.29414   0.00000  Uiso   1.00
H77    H     0.70651   0.37558   0.41629   0.00000  Uiso   1.00
H78    H     0.53864   0.33571   0.45888   0.00000  Uiso   1.00
H79    H     0.70259   0.48141   0.38028   0.00000  Uiso   1.00
H80    H     0.88616   0.31769   0.42066   0.00000  Uiso   1.00
H81    H     0.34012   0.27884   0.48880   0.00000  Uiso   1.00
H82    H     0.68588   0.58604   0.32306   0.00000  Uiso   1.00
H83    H     0.07297   0.24081   0.40822   0.00000  Uiso   1.00
O84    O     0.18713   0.20894   0.45737   0.00000  Uiso   1.00
O85    O     0.64077   0.61198   0.23993   0.00000  Uiso   1.00
O86    O     0.14862   0.15904   0.35165   0.00000  Uiso   1.00
N87    N     0.30075   0.22018   0.39573   0.00000  Uiso   1.00
N88    N     0.62399   0.50740   0.24078   0.00000  Uiso   1.00
N89    N     0.98591   0.18465   0.32038   0.00000  Uiso   1.00
N90    N     0.34468   0.26530   0.45711   0.00000  Uiso   1.00
N91    N     0.66792   0.55252   0.30216   0.00000  Uiso   1.00
N92    N     0.02983   0.22977   0.38177   0.00000  Uiso   1.00
C93    C     0.86700   0.80008   0.18643   0.00000  Uiso   1.00
C94    C     0.94782   0.78908   0.14878   0.00000  Uiso   1.00
C95    C     0.04026   0.75470   0.15133   0.00000  Uiso   1.00
C96    C     0.10372   0.75016   0.11323   0.00000  Uiso   1.00
C97    C     0.23352   0.72872   0.06075   0.00000  Uiso   1.00
C98    C     0.85875   0.86824   0.19149   0.00000  Uiso   1.00
C99    C     0.87628   0.90042   0.22994   0.00000  Uiso   1.00
C100   C     0.86476   0.96252   0.22779   0.00000  Uiso   1.00
C101   C     0.85619   0.06398   0.24161   0.00000  Uiso   1.00
C102   C     0.75902   0.77928   0.16954   0.00000  Uiso   1.00
C103   C     0.69268   0.73668   0.18955   0.00000  Uiso   1.00
C104   C     0.59717   0.72389   0.16893   0.00000  Uiso   1.00
C105   C     0.43376   0.68723   0.14869   0.00000  Uiso   1.00
C106   C     0.81533   0.85314   0.11424   0.00000  Uiso   1.00
C107   C     0.91976   0.81790   0.10958   0.00000  Uiso   1.00
C108   C     0.98310   0.81341   0.07146   0.00000  Uiso   1.00
C109   C     0.07561   0.77903   0.07395   0.00000  Uiso   1.00
C110   C     0.83069   0.89706   0.15228   0.00000  Uiso   1.00
C111   C     0.81913   0.95913   0.15007   0.00000  Uiso   1.00
C112   C     0.83664   0.99139   0.18851   0.00000  Uiso   1.00
C113   C     0.73096   0.80810   0.13033   0.00000  Uiso   1.00
C114   C     0.63553   0.79538   0.10968   0.00000  Uiso   1.00
C115   C     0.56906   0.75276   0.12965   0.00000  Uiso   1.00
H116   H     0.88884   0.77765   0.21695   0.00000  Uiso   1.00
H117   H     0.06195   0.73241   0.18168   0.00000  Uiso   1.00
H118   H     0.89799   0.87811   0.26028   0.00000  Uiso   1.00
H119   H     0.71442   0.71439   0.21989   0.00000  Uiso   1.00
H120   H     0.24151   0.69499   0.12528   0.00000  Uiso   1.00
H121   H     0.89576   0.00220   0.29101   0.00000  Uiso   1.00
H122   H     0.50866   0.65696   0.20586   0.00000  Uiso   1.00
H123   H     0.79349   0.87558   0.08371   0.00000  Uiso   1.00
H124   H     0.96136   0.83571   0.04112   0.00000  Uiso   1.00
H125   H     0.79741   0.98141   0.11972   0.00000  Uiso   1.00
H126   H     0.61384   0.81769   0.07934   0.00000  Uiso   1.00
H127   H     0.15988   0.77884   0.01120   0.00000  Uiso   1.00
H128   H     0.81412   0.08604   0.17694   0.00000  Uiso   1.00
H129   H     0.42703   0.74081   0.09178   0.00000  Uiso   1.00
O130   O     0.31287   0.70894   0.04263   0.00000  Uiso   1.00
O131   O     0.85923   0.11198   0.26007   0.00000  Uiso   1.00
O132   O     0.35138   0.65904   0.14835   0.00000  Uiso   1.00
N133   N     0.19925   0.72018   0.10427   0.00000  Uiso   1.00
N134   N     0.87601   0.00740   0.25922   0.00000  Uiso   1.00
N135   N     0.51409   0.68465   0.17962   0.00000  Uiso   1.00
N136   N     0.15532   0.76530   0.04289   0.00000  Uiso   1.00
N137   N     0.83208   0.05252   0.19784   0.00000  Uiso   1.00
N138   N     0.47017   0.72977   0.11823   0.00000  Uiso   1.00
C139   C     0.36700   0.30008   0.18643   0.00000  Uiso   1.00
C140   C     0.44782   0.28908   0.14878   0.00000  Uiso   1.00
C141   C     0.54026   0.25470   0.15133   0.00000  Uiso   1.00
C142   C     0.60372   0.25016   0.11323   0.00000  Uiso   1.00
C143   C     0.73352   0.22872   0.06075   0.00000  Uiso   1.00
C144   C     0.35875   0.36824   0.19149   0.00000  Uiso   1.00
C145   C     0.37628   0.40042   0.22994   0.00000  Uiso   1.00
C146   C     0.36476   0.46252   0.22779   0.00000  Uiso   1.00
C147   C     0.35619   0.56398   0.24161   0.00000  Uiso   1.00
C148   C     0.25902   0.27928   0.16954   0.00000  Uiso   1.00
C149   C     0.19268   0.23668   0.18955   0.00000  Uiso   1.00
C150   C     0.09717   0.22389   0.16893   0.00000  Uiso   1.00
C151   C     0.93376   0.18723   0.14869   0.00000  Uiso   1.00
C152   C     0.31533   0.35314   0.11424   0.00000  Uiso   1.00
C153   C     0.41976   0.31790   0.10958   0.00000  Uiso   1.00
C154   C     0.48310   0.31341   0.07146   0.00000  Uiso   1.00
C155   C     0.57561   0.27903   0.07395   0.00000  Uiso   1.00
C156   C     0.33069   0.39706   0.15228   0.00000  Uiso   1.00
C157   C     0.31913   0.45913   0.15007   0.00000  Uiso   1.00
C158   C     0.33664   0.49139   0.18851   0.00000  Uiso   1.00
C159   C     0.23096   0.30810   0.13033   0.00000  Uiso   1.00
C160   C     0.13553   0.29538   0.10968   0.00000  Uiso   1.00
C161   C     0.06906   0.25276   0.12965   0.00000  Uiso   1.00
H162   H     0.38884   0.27765   0.21695   0.00000  Uiso   1.00
H163   H     0.56195   0.23241   0.18168   0.00000  Uiso   1.00
H164   H     0.39799   0.37811   0.26028   0.00000  Uiso   1.00
H165   H     0.21442   0.21439   0.21989   0.00000  Uiso   1.00
H166   H     0.74151   0.19499   0.12528   0.00000  Uiso   1.00
H167   H     0.39576   0.50220   0.29101   0.00000  Uiso   1.00
H168   H     0.00866   0.15696   0.20586   0.00000  Uiso   1.00
H169   H     0.29349   0.37558   0.08371   0.00000  Uiso   1.00
H170   H     0.46136   0.33571   0.04112   0.00000  Uiso   1.00
H171   H     0.29741   0.48141   0.11972   0.00000  Uiso   1.00
H172   H     0.11384   0.31769   0.07934   0.00000  Uiso   1.00
H173   H     0.65988   0.27884   0.01120   0.00000  Uiso   1.00
H174   H     0.31412   0.58604   0.17694   0.00000  Uiso   1.00
H175   H     0.92703   0.24081   0.09178   0.00000  Uiso   1.00
O176   O     0.81287   0.20894   0.04263   0.00000  Uiso   1.00
O177   O     0.35923   0.61198   0.26007   0.00000  Uiso   1.00
O178   O     0.85138   0.15904   0.14835   0.00000  Uiso   1.00
N179   N     0.69925   0.22018   0.10427   0.00000  Uiso   1.00
N180   N     0.37601   0.50740   0.25922   0.00000  Uiso   1.00
N181   N     0.01409   0.18465   0.17962   0.00000  Uiso   1.00
N182   N     0.65532   0.26530   0.04289   0.00000  Uiso   1.00
N183   N     0.33208   0.55252   0.19784   0.00000  Uiso   1.00
N184   N     0.97017   0.22977   0.11823   0.00000  Uiso   1.00
C185   C     0.86700   0.19992   0.68643   0.00000  Uiso   1.00
C186   C     0.94782   0.21092   0.64878   0.00000  Uiso   1.00
C187   C     0.04026   0.24530   0.65133   0.00000  Uiso   1.00
C188   C     0.10372   0.24984   0.61323   0.00000  Uiso   1.00
C189   C     0.23352   0.27128   0.56075   0.00000  Uiso   1.00
C190   C     0.85875   0.13176   0.69149   0.00000  Uiso   1.00
C191   C     0.87628   0.09958   0.72994   0.00000  Uiso   1.00
C192   C     0.86476   0.03748   0.72779   0.00000  Uiso   1.00
C193   C     0.85619   0.93602   0.74161   0.00000  Uiso   1.00
C194   C     0.75902   0.22072   0.66954   0.00000  Uiso   1.00
C195   C     0.69268   0.26332   0.68955   0.00000  Uiso   1.00
C196   C     0.59717   0.27611   0.66893   0.00000  Uiso   1.00
C197   C     0.43376   0.31277   0.64869   0.00000  Uiso   1.00
C198   C     0.81533   0.14686   0.61424   0.00000  Uiso   1.00
C199   C     0.91976   0.18210   0.60958   0.00000  Uiso   1.00
C200   C     0.98310   0.18659   0.57146   0.00000  Uiso   1.00
C201   C     0.07561   0.22097   0.57395   0.00000  Uiso   1.00
C202   C     0.83069   0.10294   0.65228   0.00000  Uiso   1.00
C203   C     0.81913   0.04087   0.65007   0.00000  Uiso   1.00
C204   C     0.83664   0.00861   0.68851   0.00000  Uiso   1.00
C205   C     0.73096   0.19190   0.63033   0.00000  Uiso   1.00
C206   C     0.63553   0.20462   0.60968   0.00000  Uiso   1.00
C207   C     0.56906   0.24724   0.62965   0.00000  Uiso   1.00
H208   H     0.88884   0.22235   0.71695   0.00000  Uiso   1.00
H209   H     0.06195   0.26759   0.68168   0.00000  Uiso   1.00
H210   H     0.89799   0.12189   0.76028   0.00000  Uiso   1.00
H211   H     0.71442   0.28561   0.71989   0.00000  Uiso   1.00
H212   H     0.24151   0.30501   0.62528   0.00000  Uiso   1.00
H213   H     0.89576   0.99780   0.79101   0.00000  Uiso   1.00
H214   H     0.50866   0.34304   0.70586   0.00000  Uiso   1.00
H215   H     0.79349   0.12442   0.58371   0.00000  Uiso   1.00
H216   H     0.96136   0.16429   0.54112   0.00000  Uiso   1.00
H217   H     0.79741   0.01859   0.61972   0.00000  Uiso   1.00
H218   H     0.61384   0.18231   0.57934   0.00000  Uiso   1.00
H219   H     0.15988   0.22116   0.51120   0.00000  Uiso   1.00
H220   H     0.81412   0.91396   0.67694   0.00000  Uiso   1.00
H221   H     0.42703   0.25919   0.59178   0.00000  Uiso   1.00
O222   O     0.31287   0.29106   0.54263   0.00000  Uiso   1.00
O223   O     0.85923   0.88802   0.76007   0.00000  Uiso   1.00
O224   O     0.35138   0.34096   0.64835   0.00000  Uiso   1.00
N225   N     0.19925   0.27982   0.60427   0.00000  Uiso   1.00
N226   N     0.87601   0.99260   0.75922   0.00000  Uiso   1.00
N227   N     0.51409   0.31535   0.67962   0.00000  Uiso   1.00
N228   N     0.15532   0.23470   0.54289   0.00000  Uiso   1.00
N229   N     0.83208   0.94748   0.69784   0.00000  Uiso   1.00
N230   N     0.47017   0.27023   0.61823   0.00000  Uiso   1.00
C231   C     0.36700   0.69992   0.68643   0.00000  Uiso   1.00
C232   C     0.44782   0.71092   0.64878   0.00000  Uiso   1.00
C233   C     0.54026   0.74530   0.65133   0.00000  Uiso   1.00
C234   C     0.60372   0.74984   0.61323   0.00000  Uiso   1.00
C235   C     0.73352   0.77128   0.56075   0.00000  Uiso   1.00
C236   C     0.35875   0.63176   0.69149   0.00000  Uiso   1.00
C237   C     0.37628   0.59958   0.72994   0.00000  Uiso   1.00
C238   C     0.36476   0.53748   0.72779   0.00000  Uiso   1.00
C239   C     0.35619   0.43602   0.74161   0.00000  Uiso   1.00
C240   C     0.25902   0.72072   0.66954   0.00000  Uiso   1.00
C241   C     0.19268   0.76332   0.68955   0.00000  Uiso   1.00
C242   C     0.09717   0.77611   0.66893   0.00000  Uiso   1.00
C243   C     0.93376   0.81277   0.64869   0.00000  Uiso   1.00
C244   C     0.31533   0.64686   0.61424   0.00000  Uiso   1.00
C245   C     0.41976   0.68210   0.60958   0.00000  Uiso   1.00
C246   C     0.48310   0.68659   0.57146   0.00000  Uiso   1.00
C247   C     0.57561   0.72097   0.57395   0.00000  Uiso   1.00
C248   C     0.33069   0.60294   0.65228   0.00000  Uiso   1.00
C249   C     0.31913   0.54087   0.65007   0.00000  Uiso   1.00
C250   C     0.33664   0.50861   0.68851   0.00000  Uiso   1.00
C251   C     0.23096   0.69190   0.63033   0.00000  Uiso   1.00
C252   C     0.13553   0.70462   0.60968   0.00000  Uiso   1.00
C253   C     0.06906   0.74724   0.62965   0.00000  Uiso   1.00
H254   H     0.38884   0.72235   0.71695   0.00000  Uiso   1.00
H255   H     0.56195   0.76759   0.68168   0.00000  Uiso   1.00
H256   H     0.39799   0.62189   0.76028   0.00000  Uiso   1.00
H257   H     0.21442   0.78561   0.71989   0.00000  Uiso   1.00
H258   H     0.74151   0.80501   0.62528   0.00000  Uiso   1.00
H259   H     0.39576   0.49780   0.79101   0.00000  Uiso   1.00
H260   H     0.00866   0.84304   0.70586   0.00000  Uiso   1.00
H261   H     0.29349   0.62442   0.58371   0.00000  Uiso   1.00
H262   H     0.46136   0.66429   0.54112   0.00000  Uiso   1.00
H263   H     0.29741   0.51859   0.61972   0.00000  Uiso   1.00
H264   H     0.11384   0.68231   0.57934   0.00000  Uiso   1.00
H265   H     0.65988   0.72116   0.51120   0.00000  Uiso   1.00
H266   H     0.31412   0.41396   0.67694   0.00000  Uiso   1.00
H267   H     0.92703   0.75919   0.59178   0.00000  Uiso   1.00
O268   O     0.81287   0.79106   0.54263   0.00000  Uiso   1.00
O269   O     0.35923   0.38802   0.76007   0.00000  Uiso   1.00
O270   O     0.85138   0.84096   0.64835   0.00000  Uiso   1.00
N271   N     0.69925   0.77982   0.60427   0.00000  Uiso   1.00
N272   N     0.37601   0.49260   0.75922   0.00000  Uiso   1.00
N273   N     0.01409   0.81535   0.67962   0.00000  Uiso   1.00
N274   N     0.65532   0.73470   0.54289   0.00000  Uiso   1.00
N275   N     0.33208   0.44748   0.69784   0.00000  Uiso   1.00
N276   N     0.97017   0.77023   0.61823   0.00000  Uiso   1.00
C277   C     0.13300   0.19992   0.81357   0.00000  Uiso   1.00
C278   C     0.05218   0.21092   0.85122   0.00000  Uiso   1.00
C279   C     0.95974   0.24530   0.84867   0.00000  Uiso   1.00
C280   C     0.89628   0.24984   0.88677   0.00000  Uiso   1.00
C281   C     0.76648   0.27128   0.93925   0.00000  Uiso   1.00
C282   C     0.14125   0.13176   0.80851   0.00000  Uiso   1.00
C283   C     0.12372   0.09958   0.77006   0.00000  Uiso   1.00
C284   C     0.13524   0.03748   0.77221   0.00000  Uiso   1.00
C285   C     0.14381   0.93602   0.75839   0.00000  Uiso   1.00
C286   C     0.24098   0.22072   0.83046   0.00000  Uiso   1.00
C287   C     0.30732   0.26332   0.81045   0.00000  Uiso   1.00
C288   C     0.40283   0.27611   0.83107   0.00000  Uiso   1.00
C289   C     0.56624   0.31277   0.85131   0.00000  Uiso   1.00
C290   C     0.18467   0.14686   0.88576   0.00000  Uiso   1.00
C291   C     0.08024   0.18210   0.89042   0.00000  Uiso   1.00
C292   C     0.01690   0.18659   0.92854   0.00000  Uiso   1.00
C293   C     0.92439   0.22097   0.92605   0.00000  Uiso   1.00
C294   C     0.16931   0.10294   0.84772   0.00000  Uiso   1.00
C295   C     0.18087   0.04087   0.84993   0.00000  Uiso   1.00
C296   C     0.16336   0.00861   0.81149   0.00000  Uiso   1.00
C297   C     0.26904   0.19190   0.86967   0.00000  Uiso   1.00
C298   C     0.36447   0.20462   0.89032   0.00000  Uiso   1.00
C299   C     0.43094   0.24724   0.87035   0.00000  Uiso   1.00
H300   H     0.11116   0.22235   0.78305   0.00000  Uiso   1.00
H301   H     0.93805   0.26759   0.81832   0.00000  Uiso   1.00
H302   H     0.10201   0.12189   0.73972   0.00000  Uiso   1.00
H303   H     0.28558   0.28561   0.78011   0.00000  Uiso   1.00
H304   H     0.75849   0.30501   0.87472   0.00000  Uiso   1.00
H305   H     0.10424   0.99780   0.70899   0.00000  Uiso   1.00
H306   H     0.49134   0.34304   0.79414   0.00000  Uiso   1.00
H307   H     0.20651   0.12442   0.91629   0.00000  Uiso   1.00
H308   H     0.03864   0.16429   0.95888   0.00000  Uiso   1.00
H309   H     0.20259   0.01859   0.88028   0.00000  Uiso   1.00
H310   H     0.38616   0.18231   0.92066   0.00000  Uiso   1.00
H311   H     0.84012   0.22116   0.98880   0.00000  Uiso   1.00
H312   H     0.18588   0.91396   0.82306   0.00000  Uiso   1.00
H313   H     0.57297   0.25919   0.90822   0.00000  Uiso   1.00
O314   O     0.68713   0.29106   0.95737   0.00000  Uiso   1.00
O315   O     0.14077   0.88802   0.73993   0.00000  Uiso   1.00
O316   O     0.64862   0.34096   0.85165   0.00000  Uiso   1.00
N317   N     0.80075   0.27982   0.89573   0.00000  Uiso   1.00
N318   N     0.12399   0.99260   0.74078   0.00000  Uiso   1.00
N319   N     0.48591   0.31535   0.82038   0.00000  Uiso   1.00
N320   N     0.84468   0.23470   0.95711   0.00000  Uiso   1.00
N321   N     0.16792   0.94748   0.80216   0.00000  Uiso   1.00
N322   N     0.52983   0.27023   0.88177   0.00000  Uiso   1.00
C323   C     0.63300   0.69992   0.81357   0.00000  Uiso   1.00
C324   C     0.55218   0.71092   0.85122   0.00000  Uiso   1.00
C325   C     0.45974   0.74530   0.84867   0.00000  Uiso   1.00
C326   C     0.39628   0.74984   0.88677   0.00000  Uiso   1.00
C327   C     0.26648   0.77128   0.93925   0.00000  Uiso   1.00
C328   C     0.64125   0.63176   0.80851   0.00000  Uiso   1.00
C329   C     0.62372   0.59958   0.77006   0.00000  Uiso   1.00
C330   C     0.63524   0.53748   0.77221   0.00000  Uiso   1.00
C331   C     0.64381   0.43602   0.75839   0.00000  Uiso   1.00
C332   C     0.74098   0.72072   0.83046   0.00000  Uiso   1.00
C333   C     0.80732   0.76332   0.81045   0.00000  Uiso   1.00
C334   C     0.90283   0.77611   0.83107   0.00000  Uiso   1.00
C335   C     0.06624   0.81277   0.85131   0.00000  Uiso   1.00
C336   C     0.68467   0.64686   0.88576   0.00000  Uiso   1.00
C337   C     0.58024   0.68210   0.89042   0.00000  Uiso   1.00
C338   C     0.51690   0.68659   0.92854   0.00000  Uiso   1.00
C339   C     0.42439   0.72097   0.92605   0.00000  Uiso   1.00
C340   C     0.66931   0.60294   0.84772   0.00000  Uiso   1.00
C341   C     0.68087   0.54087   0.84993   0.00000  Uiso   1.00
C342   C     0.66336   0.50861   0.81149   0.00000  Uiso   1.00
C343   C     0.76904   0.69190   0.86967   0.00000  Uiso   1.00
C344   C     0.86447   0.70462   0.89032   0.00000  Uiso   1.00
C345   C     0.93094   0.74724   0.87035   0.00000  Uiso   1.00
H346   H     0.61116   0.72235   0.78305   0.00000  Uiso   1.00
H347   H     0.43805   0.76759   0.81832   0.00000  Uiso   1.00
H348   H     0.60201   0.62189   0.73972   0.00000  Uiso   1.00
H349   H     0.78558   0.78561   0.78011   0.00000  Uiso   1.00
H350   H     0.25849   0.80501   0.87472   0.00000  Uiso   1.00
H351   H     0.60424   0.49780   0.70899   0.00000  Uiso   1.00
H352   H     0.99134   0.84304   0.79414   0.00000  Uiso   1.00
H353   H     0.70651   0.62442   0.91629   0.00000  Uiso   1.00
H354   H     0.53864   0.66429   0.95888   0.00000  Uiso   1.00
H355   H     0.70259   0.51859   0.88028   0.00000  Uiso   1.00
H356   H     0.88616   0.68231   0.92066   0.00000  Uiso   1.00
H357   H     0.34012   0.72116   0.98880   0.00000  Uiso   1.00
H358   H     0.68588   0.41396   0.82306   0.00000  Uiso   1.00
H359   H     0.07297   0.75919   0.90822   0.00000  Uiso   1.00
O360   O     0.18713   0.79106   0.95737   0.00000  Uiso   1.00
O361   O     0.64077   0.38802   0.73993   0.00000  Uiso   1.00
O362   O     0.14862   0.84096   0.85165   0.00000  Uiso   1.00
N363   N     0.30075   0.77982   0.89573   0.00000  Uiso   1.00
N364   N     0.62399   0.49260   0.74078   0.00000  Uiso   1.00
N365   N     0.98591   0.81535   0.82038   0.00000  Uiso   1.00
N366   N     0.34468   0.73470   0.95711   0.00000  Uiso   1.00
N367   N     0.66792   0.44748   0.80216   0.00000  Uiso   1.00
N368   N     0.02983   0.77023   0.88177   0.00000  Uiso   1.00
