data_job_04068
_audit_creation_date              2018-12-19
_audit_creation_method            'Materials Studio'
_symmetry_space_group_name_H-M    'P1'
_symmetry_Int_Tables_number       1
_symmetry_cell_setting            triclinic
loop_
_symmetry_equiv_pos_as_xyz
  x,y,z
_cell_length_a                    21.4383
_cell_length_b                    16.4349
_cell_length_c                    9.1898
_cell_angle_alpha                 90.0000
_cell_angle_beta                  79.9276
_cell_angle_gamma                 90.0000
loop_
_atom_site_label
_atom_site_type_symbol
_atom_site_fract_x
_atom_site_fract_y
_atom_site_fract_z
_atom_site_U_iso_or_equiv
_atom_site_adp_type
_atom_site_occupancy
C1     C     0.15314   0.01472   0.75531   0.00000  Uiso   1.00
C2     C     0.14262   0.97794   0.91002   0.00000  Uiso   1.00
C3     C     0.10318   0.91276   0.95788   0.00000  Uiso   1.00
C4     C     0.10005   0.88823   0.10354   0.00000  Uiso   1.00
C5     C     0.07835   0.82517   0.32945   0.00000  Uiso   1.00
C6     C     0.13671   0.10475   0.77579   0.00000  Uiso   1.00
C7     C     0.09230   0.14618   0.71077   0.00000  Uiso   1.00
C8     C     0.08420   0.22840   0.74344   0.00000  Uiso   1.00
C9     C     0.05335   0.36222   0.76086   0.00000  Uiso   1.00
C10    C     0.22435   0.01106   0.69908   0.00000  Uiso   1.00
C11    C     0.25364   0.97373   0.56955   0.00000  Uiso   1.00
C12    C     0.31933   0.97709   0.53761   0.00000  Uiso   1.00
C13    C     0.42457   0.96543   0.43593   0.00000  Uiso   1.00
C14    C     0.21773   0.08706   0.92890   0.00000  Uiso   1.00
C15    C     0.17770   0.01724   0.00430   0.00000  Uiso   1.00
C16    C     0.17463   0.99280   0.14994   0.00000  Uiso   1.00
C17    C     0.13519   0.92759   0.19800   0.00000  Uiso   1.00
C18    C     0.17178   0.14404   0.87007   0.00000  Uiso   1.00
C19    C     0.16375   0.22621   0.90283   0.00000  Uiso   1.00
C20    C     0.11934   0.26776   0.83789   0.00000  Uiso   1.00
C21    C     0.25943   0.05035   0.79337   0.00000  Uiso   1.00
C22    C     0.32509   0.05376   0.76162   0.00000  Uiso   1.00
C23    C     0.35447   0.01645   0.63207   0.00000  Uiso   1.00
H24    H     0.12583   0.98414   0.68190   0.00000  Uiso   1.00
H25    H     0.07604   0.88238   0.88488   0.00000  Uiso   1.00
H26    H     0.06516   0.11576   0.63780   0.00000  Uiso   1.00
H27    H     0.22648   0.94334   0.49661   0.00000  Uiso   1.00
H28    H     0.03628   0.78690   0.15151   0.00000  Uiso   1.00
H29    H     0.01337   0.27901   0.63050   0.00000  Uiso   1.00
H30    H     0.35353   0.91542   0.33276   0.00000  Uiso   1.00
H31    H     0.24504   0.11765   0.00231   0.00000  Uiso   1.00
H32    H     0.20178   0.02321   0.22287   0.00000  Uiso   1.00
H33    H     0.19091   0.25660   0.97580   0.00000  Uiso   1.00
H34    H     0.35222   0.08417   0.83460   0.00000  Uiso   1.00
H35    H     0.13834   0.90121   0.42585   0.00000  Uiso   1.00
H36    H     0.11543   0.39332   0.90482   0.00000  Uiso   1.00
H37    H     0.45559   0.02973   0.60709   0.00000  Uiso   1.00
O38    O     0.05669   0.77954   0.42801   0.00000  Uiso   1.00
O39    O     0.02664   0.42517   0.74443   0.00000  Uiso   1.00
O40    O     0.47292   0.94814   0.35382   0.00000  Uiso   1.00
N41    N     0.06624   0.82676   0.18580   0.00000  Uiso   1.00
N42    N     0.04482   0.28685   0.69870   0.00000  Uiso   1.00
N43    N     0.36284   0.94694   0.42032   0.00000  Uiso   1.00
N44    N     0.12116   0.88827   0.33342   0.00000  Uiso   1.00
N45    N     0.09973   0.34835   0.84632   0.00000  Uiso   1.00
N46    N     0.41776   0.00844   0.56794   0.00000  Uiso   1.00
C47    C     0.84686   0.51472   0.74469   0.00000  Uiso   1.00
C48    C     0.85738   0.47794   0.58998   0.00000  Uiso   1.00
C49    C     0.89682   0.41276   0.54212   0.00000  Uiso   1.00
C50    C     0.89995   0.38823   0.39646   0.00000  Uiso   1.00
C51    C     0.92165   0.32517   0.17055   0.00000  Uiso   1.00
C52    C     0.86329   0.60475   0.72421   0.00000  Uiso   1.00
C53    C     0.90770   0.64618   0.78923   0.00000  Uiso   1.00
C54    C     0.91580   0.72840   0.75656   0.00000  Uiso   1.00
C55    C     0.94665   0.86222   0.73914   0.00000  Uiso   1.00
C56    C     0.77565   0.51106   0.80092   0.00000  Uiso   1.00
C57    C     0.74636   0.47373   0.93045   0.00000  Uiso   1.00
C58    C     0.68067   0.47709   0.96239   0.00000  Uiso   1.00
C59    C     0.57543   0.46543   0.06407   0.00000  Uiso   1.00
C60    C     0.78227   0.58706   0.57110   0.00000  Uiso   1.00
C61    C     0.82230   0.51724   0.49570   0.00000  Uiso   1.00
C62    C     0.82537   0.49280   0.35006   0.00000  Uiso   1.00
C63    C     0.86481   0.42759   0.30200   0.00000  Uiso   1.00
C64    C     0.82822   0.64404   0.62993   0.00000  Uiso   1.00
C65    C     0.83625   0.72621   0.59717   0.00000  Uiso   1.00
C66    C     0.88066   0.76776   0.66211   0.00000  Uiso   1.00
C67    C     0.74057   0.55035   0.70663   0.00000  Uiso   1.00
C68    C     0.67491   0.55376   0.73838   0.00000  Uiso   1.00
C69    C     0.64553   0.51645   0.86793   0.00000  Uiso   1.00
H70    H     0.87417   0.48414   0.81810   0.00000  Uiso   1.00
H71    H     0.92396   0.38238   0.61512   0.00000  Uiso   1.00
H72    H     0.93484   0.61576   0.86220   0.00000  Uiso   1.00
H73    H     0.77352   0.44334   0.00339   0.00000  Uiso   1.00
H74    H     0.96372   0.28690   0.34849   0.00000  Uiso   1.00
H75    H     0.98663   0.77901   0.86950   0.00000  Uiso   1.00
H76    H     0.64647   0.41542   0.16724   0.00000  Uiso   1.00
H77    H     0.75496   0.61765   0.49769   0.00000  Uiso   1.00
H78    H     0.79822   0.52321   0.27713   0.00000  Uiso   1.00
H79    H     0.80909   0.75660   0.52420   0.00000  Uiso   1.00
H80    H     0.64778   0.58417   0.66540   0.00000  Uiso   1.00
H81    H     0.86166   0.40121   0.07415   0.00000  Uiso   1.00
H82    H     0.88457   0.89332   0.59518   0.00000  Uiso   1.00
H83    H     0.54441   0.52973   0.89291   0.00000  Uiso   1.00
O84    O     0.94331   0.27954   0.07199   0.00000  Uiso   1.00
O85    O     0.97336   0.92517   0.75557   0.00000  Uiso   1.00
O86    O     0.52708   0.44814   0.14618   0.00000  Uiso   1.00
N87    N     0.93376   0.32676   0.31420   0.00000  Uiso   1.00
N88    N     0.95518   0.78685   0.80130   0.00000  Uiso   1.00
N89    N     0.63716   0.44694   0.07968   0.00000  Uiso   1.00
N90    N     0.87884   0.38827   0.16658   0.00000  Uiso   1.00
N91    N     0.90027   0.84835   0.65368   0.00000  Uiso   1.00
N92    N     0.58224   0.50844   0.93206   0.00000  Uiso   1.00
C93    C     0.84686   0.98528   0.24469   0.00000  Uiso   1.00
C94    C     0.85738   0.02206   0.08998   0.00000  Uiso   1.00
C95    C     0.89682   0.08724   0.04212   0.00000  Uiso   1.00
C96    C     0.89995   0.11177   0.89646   0.00000  Uiso   1.00
C97    C     0.92165   0.17483   0.67055   0.00000  Uiso   1.00
C98    C     0.86329   0.89525   0.22421   0.00000  Uiso   1.00
C99    C     0.90770   0.85382   0.28923   0.00000  Uiso   1.00
C100   C     0.91580   0.77160   0.25656   0.00000  Uiso   1.00
C101   C     0.94665   0.63778   0.23914   0.00000  Uiso   1.00
C102   C     0.77565   0.98894   0.30092   0.00000  Uiso   1.00
C103   C     0.74636   0.02627   0.43045   0.00000  Uiso   1.00
C104   C     0.68067   0.02291   0.46239   0.00000  Uiso   1.00
C105   C     0.57543   0.03457   0.56407   0.00000  Uiso   1.00
C106   C     0.78227   0.91294   0.07110   0.00000  Uiso   1.00
C107   C     0.82230   0.98276   0.99570   0.00000  Uiso   1.00
C108   C     0.82537   0.00720   0.85006   0.00000  Uiso   1.00
C109   C     0.86481   0.07241   0.80200   0.00000  Uiso   1.00
C110   C     0.82822   0.85596   0.12993   0.00000  Uiso   1.00
C111   C     0.83625   0.77379   0.09717   0.00000  Uiso   1.00
C112   C     0.88066   0.73224   0.16211   0.00000  Uiso   1.00
C113   C     0.74057   0.94965   0.20663   0.00000  Uiso   1.00
C114   C     0.67491   0.94624   0.23838   0.00000  Uiso   1.00
C115   C     0.64553   0.98355   0.36793   0.00000  Uiso   1.00
H116   H     0.87417   0.01586   0.31810   0.00000  Uiso   1.00
H117   H     0.92396   0.11762   0.11512   0.00000  Uiso   1.00
H118   H     0.93484   0.88424   0.36220   0.00000  Uiso   1.00
H119   H     0.77352   0.05666   0.50339   0.00000  Uiso   1.00
H120   H     0.96372   0.21310   0.84849   0.00000  Uiso   1.00
H121   H     0.98663   0.72099   0.36950   0.00000  Uiso   1.00
H122   H     0.64647   0.08458   0.66724   0.00000  Uiso   1.00
H123   H     0.75496   0.88235   0.99769   0.00000  Uiso   1.00
H124   H     0.79822   0.97679   0.77713   0.00000  Uiso   1.00
H125   H     0.80909   0.74340   0.02420   0.00000  Uiso   1.00
H126   H     0.64778   0.91583   0.16540   0.00000  Uiso   1.00
H127   H     0.86166   0.09879   0.57415   0.00000  Uiso   1.00
H128   H     0.88457   0.60668   0.09518   0.00000  Uiso   1.00
H129   H     0.54441   0.97027   0.39291   0.00000  Uiso   1.00
O130   O     0.94331   0.22046   0.57199   0.00000  Uiso   1.00
O131   O     0.97336   0.57483   0.25557   0.00000  Uiso   1.00
O132   O     0.52708   0.05186   0.64618   0.00000  Uiso   1.00
N133   N     0.93376   0.17324   0.81420   0.00000  Uiso   1.00
N134   N     0.95518   0.71315   0.30130   0.00000  Uiso   1.00
N135   N     0.63716   0.05306   0.57968   0.00000  Uiso   1.00
N136   N     0.87884   0.11173   0.66658   0.00000  Uiso   1.00
N137   N     0.90027   0.65165   0.15368   0.00000  Uiso   1.00
N138   N     0.58224   0.99156   0.43206   0.00000  Uiso   1.00
C139   C     0.15314   0.48528   0.25531   0.00000  Uiso   1.00
C140   C     0.14262   0.52206   0.41002   0.00000  Uiso   1.00
C141   C     0.10318   0.58724   0.45788   0.00000  Uiso   1.00
C142   C     0.10005   0.61177   0.60354   0.00000  Uiso   1.00
C143   C     0.07835   0.67483   0.82945   0.00000  Uiso   1.00
C144   C     0.13671   0.39525   0.27579   0.00000  Uiso   1.00
C145   C     0.09230   0.35382   0.21077   0.00000  Uiso   1.00
C146   C     0.08420   0.27160   0.24344   0.00000  Uiso   1.00
C147   C     0.05335   0.13778   0.26086   0.00000  Uiso   1.00
C148   C     0.22435   0.48894   0.19908   0.00000  Uiso   1.00
C149   C     0.25364   0.52627   0.06955   0.00000  Uiso   1.00
C150   C     0.31933   0.52291   0.03761   0.00000  Uiso   1.00
C151   C     0.42457   0.53457   0.93593   0.00000  Uiso   1.00
C152   C     0.21773   0.41294   0.42890   0.00000  Uiso   1.00
C153   C     0.17770   0.48276   0.50430   0.00000  Uiso   1.00
C154   C     0.17463   0.50720   0.64994   0.00000  Uiso   1.00
C155   C     0.13519   0.57241   0.69800   0.00000  Uiso   1.00
C156   C     0.17178   0.35596   0.37007   0.00000  Uiso   1.00
C157   C     0.16375   0.27379   0.40283   0.00000  Uiso   1.00
C158   C     0.11934   0.23224   0.33789   0.00000  Uiso   1.00
C159   C     0.25943   0.44965   0.29337   0.00000  Uiso   1.00
C160   C     0.32509   0.44624   0.26162   0.00000  Uiso   1.00
C161   C     0.35447   0.48355   0.13207   0.00000  Uiso   1.00
H162   H     0.12583   0.51586   0.18190   0.00000  Uiso   1.00
H163   H     0.07604   0.61762   0.38488   0.00000  Uiso   1.00
H164   H     0.06516   0.38424   0.13780   0.00000  Uiso   1.00
H165   H     0.22648   0.55666   0.99661   0.00000  Uiso   1.00
H166   H     0.03628   0.71310   0.65151   0.00000  Uiso   1.00
H167   H     0.01337   0.22099   0.13050   0.00000  Uiso   1.00
H168   H     0.35353   0.58458   0.83276   0.00000  Uiso   1.00
H169   H     0.24504   0.38235   0.50231   0.00000  Uiso   1.00
H170   H     0.20178   0.47679   0.72287   0.00000  Uiso   1.00
H171   H     0.19091   0.24340   0.47580   0.00000  Uiso   1.00
H172   H     0.35222   0.41583   0.33460   0.00000  Uiso   1.00
H173   H     0.13834   0.59879   0.92585   0.00000  Uiso   1.00
H174   H     0.11543   0.10668   0.40482   0.00000  Uiso   1.00
H175   H     0.45559   0.47027   0.10709   0.00000  Uiso   1.00
O176   O     0.05669   0.72046   0.92801   0.00000  Uiso   1.00
O177   O     0.02664   0.07483   0.24443   0.00000  Uiso   1.00
O178   O     0.47292   0.55186   0.85382   0.00000  Uiso   1.00
N179   N     0.06624   0.67324   0.68580   0.00000  Uiso   1.00
N180   N     0.04482   0.21315   0.19870   0.00000  Uiso   1.00
N181   N     0.36284   0.55306   0.92032   0.00000  Uiso   1.00
N182   N     0.12116   0.61173   0.83342   0.00000  Uiso   1.00
N183   N     0.09973   0.15165   0.34632   0.00000  Uiso   1.00
N184   N     0.41776   0.49156   0.06794   0.00000  Uiso   1.00
