data_job_05786
_audit_creation_date              2018-12-19
_audit_creation_method            'Materials Studio'
_symmetry_space_group_name_H-M    'P1'
_symmetry_Int_Tables_number       1
_symmetry_cell_setting            triclinic
loop_
_symmetry_equiv_pos_as_xyz
  x,y,z
_cell_length_a                    13.6724
_cell_length_b                    13.6724
_cell_length_c                    9.8200
_cell_angle_alpha                 90.0000
_cell_angle_beta                  90.0000
_cell_angle_gamma                 120.0000
loop_
_atom_site_label
_atom_site_type_symbol
_atom_site_fract_x
_atom_site_fract_y
_atom_site_fract_z
_atom_site_U_iso_or_equiv
_atom_site_adp_type
_atom_site_occupancy
C1     C     0.47026   0.28952   0.02256   0.00000  Uiso   1.00
C2     C     0.47325   0.38694   0.10170   0.00000  Uiso   1.00
C3     C     0.56536   0.49531   0.11217   0.00000  Uiso   1.00
C4     C     0.55108   0.57236   0.18933   0.00000  Uiso   1.00
C5     C     0.57137   0.72824   0.30248   0.00000  Uiso   1.00
C6     C     0.43556   0.19370   0.12468   0.00000  Uiso   1.00
C7     C     0.49597   0.13958   0.15445   0.00000  Uiso   1.00
C8     C     0.44995   0.05396   0.25094   0.00000  Uiso   1.00
C9     C     0.41168   0.90976   0.39970   0.00000  Uiso   1.00
C10    C     0.37236   0.24962   0.92246   0.00000  Uiso   1.00
C11    C     0.37963   0.24250   0.78220   0.00000  Uiso   1.00
C12    C     0.28040   0.20393   0.70844   0.00000  Uiso   1.00
C13    C     0.14401   0.14657   0.54322   0.00000  Uiso   1.00
C14    C     0.28112   0.23365   0.14097   0.00000  Uiso   1.00
C15    C     0.37051   0.35659   0.16602   0.00000  Uiso   1.00
C16    C     0.35610   0.43350   0.24318   0.00000  Uiso   1.00
C17    C     0.44817   0.54197   0.25376   0.00000  Uiso   1.00
C18    C     0.33283   0.16335   0.18900   0.00000  Uiso   1.00
C19    C     0.28671   0.07778   0.28546   0.00000  Uiso   1.00
C20    C     0.34703   0.02355   0.31538   0.00000  Uiso   1.00
C21    C     0.26963   0.21928   0.98677   0.00000  Uiso   1.00
C22    C     0.17037   0.18070   0.91322   0.00000  Uiso   1.00
C23    C     0.17748   0.17353   0.77287   0.00000  Uiso   1.00
H24    H     0.55024   0.31313   0.97249   0.00000  Uiso   1.00
H25    H     0.64485   0.51876   0.06239   0.00000  Uiso   1.00
H26    H     0.57546   0.16308   0.10465   0.00000  Uiso   1.00
H27    H     0.45914   0.26599   0.73246   0.00000  Uiso   1.00
H28    H     0.70445   0.73333   0.19046   0.00000  Uiso   1.00
H29    H     0.55812   0.98334   0.27954   0.00000  Uiso   1.00
H30    H     0.31284   0.20034   0.49471   0.00000  Uiso   1.00
H31    H     0.20113   0.21002   0.19105   0.00000  Uiso   1.00
H32    H     0.27659   0.40999   0.29294   0.00000  Uiso   1.00
H33    H     0.20720   0.05431   0.33521   0.00000  Uiso   1.00
H34    H     0.09088   0.15722   0.96302   0.00000  Uiso   1.00
H35    H     0.40555   0.64506   0.37759   0.00000  Uiso   1.00
H36    H     0.25923   0.89506   0.46667   0.00000  Uiso   1.00
H37    H     0.01394   0.11206   0.68184   0.00000  Uiso   1.00
O38    O     0.61095   0.82259   0.34715   0.00000  Uiso   1.00
O39    O     0.41896   0.83862   0.46400   0.00000  Uiso   1.00
O40    O     0.09716   0.12332   0.43432   0.00000  Uiso   1.00
N41    N     0.62374   0.68512   0.22050   0.00000  Uiso   1.00
N42    N     0.48694   0.98394   0.30380   0.00000  Uiso   1.00
N43    N     0.25762   0.18678   0.57005   0.00000  Uiso   1.00
N44    N     0.46291   0.63762   0.32119   0.00000  Uiso   1.00
N45    N     0.32611   0.93644   0.40449   0.00000  Uiso   1.00
N46    N     0.09679   0.13928   0.67074   0.00000  Uiso   1.00
C47    C     0.71048   0.18074   0.68923   0.00000  Uiso   1.00
C48    C     0.61306   0.08631   0.76837   0.00000  Uiso   1.00
C49    C     0.50469   0.07005   0.77883   0.00000  Uiso   1.00
C50    C     0.42764   0.97872   0.85599   0.00000  Uiso   1.00
C51    C     0.27176   0.84314   0.96915   0.00000  Uiso   1.00
C52    C     0.80630   0.24186   0.79135   0.00000  Uiso   1.00
C53    C     0.86042   0.35638   0.82112   0.00000  Uiso   1.00
C54    C     0.94604   0.39600   0.91761   0.00000  Uiso   1.00
C55    C     0.09024   0.50192   0.06637   0.00000  Uiso   1.00
C56    C     0.75038   0.12274   0.58913   0.00000  Uiso   1.00
C57    C     0.75750   0.13713   0.44887   0.00000  Uiso   1.00
C58    C     0.79607   0.07647   0.37511   0.00000  Uiso   1.00
C59    C     0.85343   0.99744   0.20989   0.00000  Uiso   1.00
C60    C     0.76635   0.04747   0.80764   0.00000  Uiso   1.00
C61    C     0.64341   0.01392   0.83269   0.00000  Uiso   1.00
C62    C     0.56650   0.92259   0.90984   0.00000  Uiso   1.00
C63    C     0.45803   0.90620   0.92042   0.00000  Uiso   1.00
C64    C     0.83665   0.16947   0.85566   0.00000  Uiso   1.00
C65    C     0.92222   0.20893   0.95213   0.00000  Uiso   1.00
C66    C     0.97645   0.32348   0.98204   0.00000  Uiso   1.00
C67    C     0.78072   0.05035   0.65344   0.00000  Uiso   1.00
C68    C     0.81930   0.98967   0.57988   0.00000  Uiso   1.00
C69    C     0.82647   0.00395   0.43954   0.00000  Uiso   1.00
H70    H     0.68687   0.23711   0.63916   0.00000  Uiso   1.00
H71    H     0.48124   0.12609   0.72905   0.00000  Uiso   1.00
H72    H     0.83692   0.41238   0.77132   0.00000  Uiso   1.00
H73    H     0.73401   0.19315   0.39913   0.00000  Uiso   1.00
H74    H     0.26667   0.97112   0.85713   0.00000  Uiso   1.00
H75    H     0.01666   0.57478   0.94621   0.00000  Uiso   1.00
H76    H     0.79966   0.11250   0.16138   0.00000  Uiso   1.00
H77    H     0.78998   0.99111   0.85772   0.00000  Uiso   1.00
H78    H     0.59001   0.86659   0.95961   0.00000  Uiso   1.00
H79    H     0.94569   0.15289   0.00187   0.00000  Uiso   1.00
H80    H     0.84278   0.93366   0.62969   0.00000  Uiso   1.00
H81    H     0.35494   0.76050   0.04426   0.00000  Uiso   1.00
H82    H     0.10494   0.36417   0.13334   0.00000  Uiso   1.00
H83    H     0.88794   0.90188   0.34851   0.00000  Uiso   1.00
O84    O     0.17741   0.78836   0.01381   0.00000  Uiso   1.00
O85    O     0.16138   0.58034   0.13066   0.00000  Uiso   1.00
O86    O     0.87668   0.97383   0.10099   0.00000  Uiso   1.00
N87    N     0.31488   0.93862   0.88716   0.00000  Uiso   1.00
N88    N     0.01606   0.50301   0.97047   0.00000  Uiso   1.00
N89    N     0.81322   0.07084   0.23672   0.00000  Uiso   1.00
N90    N     0.36238   0.82529   0.98785   0.00000  Uiso   1.00
N91    N     0.06356   0.38967   0.07116   0.00000  Uiso   1.00
N92    N     0.86072   0.95750   0.33741   0.00000  Uiso   1.00
C93    C     0.81926   0.52974   0.35589   0.00000  Uiso   1.00
C94    C     0.91369   0.52675   0.43503   0.00000  Uiso   1.00
C95    C     0.92995   0.43464   0.44550   0.00000  Uiso   1.00
C96    C     0.02128   0.44892   0.52266   0.00000  Uiso   1.00
C97    C     0.15686   0.42863   0.63582   0.00000  Uiso   1.00
C98    C     0.75814   0.56444   0.45801   0.00000  Uiso   1.00
C99    C     0.64362   0.50403   0.48778   0.00000  Uiso   1.00
C100   C     0.60400   0.55005   0.58428   0.00000  Uiso   1.00
C101   C     0.49808   0.58832   0.73303   0.00000  Uiso   1.00
C102   C     0.87726   0.62764   0.25579   0.00000  Uiso   1.00
C103   C     0.86287   0.62037   0.11553   0.00000  Uiso   1.00
C104   C     0.92353   0.71960   0.04177   0.00000  Uiso   1.00
C105   C     0.00256   0.85599   0.87655   0.00000  Uiso   1.00
C106   C     0.95253   0.71888   0.47431   0.00000  Uiso   1.00
C107   C     0.98608   0.62949   0.49935   0.00000  Uiso   1.00
C108   C     0.07741   0.64390   0.57651   0.00000  Uiso   1.00
C109   C     0.09380   0.55183   0.58709   0.00000  Uiso   1.00
C110   C     0.83053   0.66717   0.52233   0.00000  Uiso   1.00
C111   C     0.79107   0.71329   0.61879   0.00000  Uiso   1.00
C112   C     0.67652   0.65297   0.64871   0.00000  Uiso   1.00
C113   C     0.94965   0.73037   0.32011   0.00000  Uiso   1.00
C114   C     0.01033   0.82963   0.24655   0.00000  Uiso   1.00
C115   C     0.99605   0.82252   0.10621   0.00000  Uiso   1.00
H116   H     0.76289   0.44976   0.30582   0.00000  Uiso   1.00
H117   H     0.87391   0.35515   0.39572   0.00000  Uiso   1.00
H118   H     0.58762   0.42454   0.43798   0.00000  Uiso   1.00
H119   H     0.80685   0.54086   0.06580   0.00000  Uiso   1.00
H120   H     0.02888   0.29555   0.52379   0.00000  Uiso   1.00
H121   H     0.42522   0.44188   0.61288   0.00000  Uiso   1.00
H122   H     0.88750   0.68716   0.82804   0.00000  Uiso   1.00
H123   H     0.00889   0.79887   0.52438   0.00000  Uiso   1.00
H124   H     0.13341   0.72341   0.62627   0.00000  Uiso   1.00
H125   H     0.84711   0.79280   0.66854   0.00000  Uiso   1.00
H126   H     0.06634   0.90912   0.29636   0.00000  Uiso   1.00
H127   H     0.23950   0.59445   0.71093   0.00000  Uiso   1.00
H128   H     0.63583   0.74077   0.80000   0.00000  Uiso   1.00
H129   H     0.09812   0.98606   0.01518   0.00000  Uiso   1.00
O130   O     0.21164   0.38905   0.68048   0.00000  Uiso   1.00
O131   O     0.41966   0.58104   0.79733   0.00000  Uiso   1.00
O132   O     0.02617   0.90284   0.76766   0.00000  Uiso   1.00
N133   N     0.06138   0.37626   0.55383   0.00000  Uiso   1.00
N134   N     0.49699   0.51306   0.63713   0.00000  Uiso   1.00
N135   N     0.92916   0.74238   0.90338   0.00000  Uiso   1.00
N136   N     0.17471   0.53709   0.65452   0.00000  Uiso   1.00
N137   N     0.61033   0.67389   0.73782   0.00000  Uiso   1.00
N138   N     0.04250   0.90321   0.00408   0.00000  Uiso   1.00
