data_job_06066
_audit_creation_date              2018-12-19
_audit_creation_method            'Materials Studio'
_symmetry_space_group_name_H-M    'P1'
_symmetry_Int_Tables_number       1
_symmetry_cell_setting            triclinic
loop_
_symmetry_equiv_pos_as_xyz
  x,y,z
_cell_length_a                    15.7557
_cell_length_b                    15.7339
_cell_length_c                    15.7116
_cell_angle_alpha                 106.9230
_cell_angle_beta                  106.9250
_cell_angle_gamma                 106.9260
loop_
_atom_site_label
_atom_site_type_symbol
_atom_site_fract_x
_atom_site_fract_y
_atom_site_fract_z
_atom_site_U_iso_or_equiv
_atom_site_adp_type
_atom_site_occupancy
C1     C     0.75215   0.05447   0.55227   0.00000  Uiso   1.00
C2     C     0.85300   0.10288   0.55589   0.00000  Uiso   1.00
C3     C     0.89102   0.06158   0.49396   0.00000  Uiso   1.00
C4     C     0.98470   0.11770   0.50920   0.00000  Uiso   1.00
C5     C     0.13314   0.17854   0.50352   0.00000  Uiso   1.00
C6     C     0.76847   0.05597   0.65334   0.00000  Uiso   1.00
C7     C     0.73541   0.97523   0.67334   0.00000  Uiso   1.00
C8     C     0.75792   0.99187   0.77062   0.00000  Uiso   1.00
C9     C     0.77508   0.97990   0.91622   0.00000  Uiso   1.00
C10    C     0.70266   0.12319   0.54160   0.00000  Uiso   1.00
C11    C     0.61425   0.09896   0.46766   0.00000  Uiso   1.00
C12    C     0.58135   0.17219   0.47088   0.00000  Uiso   1.00
C13    C     0.49633   0.26458   0.44300   0.00000  Uiso   1.00
C14    C     0.85091   0.22758   0.68947   0.00000  Uiso   1.00
C15    C     0.90664   0.19691   0.63042   0.00000  Uiso   1.00
C16    C     0.00028   0.25310   0.64576   0.00000  Uiso   1.00
C17    C     0.03843   0.21189   0.58386   0.00000  Uiso   1.00
C18    C     0.82211   0.14999   0.72787   0.00000  Uiso   1.00
C19    C     0.84467   0.16676   0.82514   0.00000  Uiso   1.00
C20    C     0.81166   0.08606   0.84528   0.00000  Uiso   1.00
C21    C     0.75630   0.21722   0.61613   0.00000  Uiso   1.00
C22    C     0.72352   0.29049   0.61946   0.00000  Uiso   1.00
C23    C     0.63508   0.26638   0.54554   0.00000  Uiso   1.00
H24    H     0.71039   0.98127   0.49425   0.00000  Uiso   1.00
H25    H     0.84949   0.98881   0.43630   0.00000  Uiso   1.00
H26    H     0.69389   0.90248   0.61565   0.00000  Uiso   1.00
H27    H     0.57276   0.02620   0.41001   0.00000  Uiso   1.00
H28    H     0.02737   0.03862   0.40493   0.00000  Uiso   1.00
H29    H     0.69926   0.85660   0.78310   0.00000  Uiso   1.00
H30    H     0.44383   0.11747   0.34946   0.00000  Uiso   1.00
H31    H     0.89267   0.30079   0.74750   0.00000  Uiso   1.00
H32    H     0.04177   0.32586   0.70344   0.00000  Uiso   1.00
H33    H     0.88618   0.23953   0.88279   0.00000  Uiso   1.00
H34    H     0.76505   0.36324   0.67715   0.00000  Uiso   1.00
H35    H     0.18344   0.31218   0.62175   0.00000  Uiso   1.00
H36    H     0.85533   0.13016   0.99993   0.00000  Uiso   1.00
H37    H     0.59990   0.39103   0.56628   0.00000  Uiso   1.00
O38    O     0.20021   0.18612   0.47981   0.00000  Uiso   1.00
O39    O     0.76973   0.94731   0.97595   0.00000  Uiso   1.00
O40    O     0.43462   0.28957   0.40702   0.00000  Uiso   1.00
N41    N     0.04363   0.09957   0.46199   0.00000  Uiso   1.00
N42    N     0.73688   0.92938   0.81556   0.00000  Uiso   1.00
N43    N     0.49807   0.17327   0.41016   0.00000  Uiso   1.00
N44    N     0.12761   0.24677   0.57866   0.00000  Uiso   1.00
N45    N     0.82086   0.07659   0.93223   0.00000  Uiso   1.00
N46    N     0.58205   0.32047   0.52683   0.00000  Uiso   1.00
C47    C     0.55228   0.75224   0.05455   0.00000  Uiso   1.00
C48    C     0.55595   0.85324   0.10305   0.00000  Uiso   1.00
C49    C     0.49420   0.89135   0.06172   0.00000  Uiso   1.00
C50    C     0.50945   0.98516   0.11793   0.00000  Uiso   1.00
C51    C     0.50387   0.13385   0.17889   0.00000  Uiso   1.00
C52    C     0.65305   0.76853   0.05601   0.00000  Uiso   1.00
C53    C     0.67294   0.73540   0.97513   0.00000  Uiso   1.00
C54    C     0.76993   0.75790   0.99175   0.00000  Uiso   1.00
C55    C     0.91509   0.77501   0.97969   0.00000  Uiso   1.00
C56    C     0.54166   0.70269   0.12338   0.00000  Uiso   1.00
C57    C     0.46790   0.61418   0.09914   0.00000  Uiso   1.00
C58    C     0.47113   0.58123   0.17247   0.00000  Uiso   1.00
C59    C     0.44333   0.49610   0.26501   0.00000  Uiso   1.00
C60    C     0.68916   0.85110   0.22788   0.00000  Uiso   1.00
C61    C     0.63030   0.90694   0.19719   0.00000  Uiso   1.00
C62    C     0.64565   0.00072   0.25348   0.00000  Uiso   1.00
C63    C     0.58393   0.03896   0.21224   0.00000  Uiso   1.00
C64    C     0.72740   0.82223   0.15015   0.00000  Uiso   1.00
C65    C     0.82439   0.84478   0.16689   0.00000  Uiso   1.00
C66    C     0.84442   0.81169   0.08606   0.00000  Uiso   1.00
C67    C     0.61600   0.75639   0.21752   0.00000  Uiso   1.00
C68    C     0.61935   0.72356   0.29090   0.00000  Uiso   1.00
C69    C     0.54561   0.63502   0.26678   0.00000  Uiso   1.00
H70    H     0.49440   0.71043   0.98126   0.00000  Uiso   1.00
H71    H     0.43668   0.84977   0.98885   0.00000  Uiso   1.00
H72    H     0.61539   0.69384   0.90229   0.00000  Uiso   1.00
H73    H     0.41038   0.57264   0.02628   0.00000  Uiso   1.00
H74    H     0.40549   0.02795   0.03878   0.00000  Uiso   1.00
H75    H     0.78231   0.69913   0.85625   0.00000  Uiso   1.00
H76    H     0.35001   0.44356   0.11771   0.00000  Uiso   1.00
H77    H     0.74705   0.89290   0.30117   0.00000  Uiso   1.00
H78    H     0.70319   0.04226   0.32633   0.00000  Uiso   1.00
H79    H     0.88190   0.88633   0.23975   0.00000  Uiso   1.00
H80    H     0.67690   0.76513   0.36375   0.00000  Uiso   1.00
H81    H     0.62181   0.18418   0.31269   0.00000  Uiso   1.00
H82    H     0.99862   0.85536   0.13015   0.00000  Uiso   1.00
H83    H     0.56633   0.59979   0.39161   0.00000  Uiso   1.00
O84    O     0.48026   0.20103   0.18650   0.00000  Uiso   1.00
O85    O     0.97462   0.76962   0.94702   0.00000  Uiso   1.00
O86    O     0.40746   0.43433   0.29005   0.00000  Uiso   1.00
N87    N     0.46241   0.04421   0.09980   0.00000  Uiso   1.00
N88    N     0.81471   0.73680   0.92914   0.00000  Uiso   1.00
N89    N     0.41056   0.49785   0.17358   0.00000  Uiso   1.00
N90    N     0.57880   0.12828   0.24719   0.00000  Uiso   1.00
N91    N     0.93111   0.82087   0.07653   0.00000  Uiso   1.00
N92    N     0.52696   0.58192   0.32096   0.00000  Uiso   1.00
C93    C     0.05444   0.55227   0.75228   0.00000  Uiso   1.00
C94    C     0.10283   0.55593   0.85342   0.00000  Uiso   1.00
C95    C     0.06162   0.49412   0.89159   0.00000  Uiso   1.00
C96    C     0.11769   0.50938   0.98553   0.00000  Uiso   1.00
C97    C     0.17852   0.50377   0.13442   0.00000  Uiso   1.00
C98    C     0.05594   0.65320   0.76861   0.00000  Uiso   1.00
C99    C     0.97530   0.67315   0.73546   0.00000  Uiso   1.00
C100   C     0.99191   0.77029   0.75800   0.00000  Uiso   1.00
C101   C     0.97994   0.91568   0.77516   0.00000  Uiso   1.00
C102   C     0.12303   0.54159   0.70261   0.00000  Uiso   1.00
C103   C     0.09881   0.46773   0.61397   0.00000  Uiso   1.00
C104   C     0.17190   0.47091   0.58093   0.00000  Uiso   1.00
C105   C     0.26411   0.44302   0.49563   0.00000  Uiso   1.00
C106   C     0.22732   0.68929   0.85122   0.00000  Uiso   1.00
C107   C     0.19672   0.63036   0.90716   0.00000  Uiso   1.00
C108   C     0.25288   0.64571   0.00106   0.00000  Uiso   1.00
C109   C     0.21176   0.58393   0.03937   0.00000  Uiso   1.00
C110   C     0.14983   0.72762   0.82235   0.00000  Uiso   1.00
C111   C     0.16657   0.82475   0.84494   0.00000  Uiso   1.00
C112   C     0.08598   0.84485   0.81184   0.00000  Uiso   1.00
C113   C     0.21693   0.61601   0.75636   0.00000  Uiso   1.00
C114   C     0.29008   0.61932   0.72345   0.00000  Uiso   1.00
C115   C     0.26597   0.54547   0.63477   0.00000  Uiso   1.00
H116   H     0.98134   0.49434   0.71043   0.00000  Uiso   1.00
H117   H     0.98894   0.43654   0.84998   0.00000  Uiso   1.00
H118   H     0.90265   0.61554   0.69387   0.00000  Uiso   1.00
H119   H     0.02614   0.41015   0.57240   0.00000  Uiso   1.00
H120   H     0.03877   0.40530   0.02841   0.00000  Uiso   1.00
H121   H     0.85681   0.78274   0.69921   0.00000  Uiso   1.00
H122   H     0.11721   0.34963   0.44306   0.00000  Uiso   1.00
H123   H     0.30043   0.74724   0.89306   0.00000  Uiso   1.00
H124   H     0.32554   0.70331   0.04264   0.00000  Uiso   1.00
H125   H     0.23924   0.88232   0.88652   0.00000  Uiso   1.00
H126   H     0.36273   0.67693   0.76506   0.00000  Uiso   1.00
H127   H     0.31197   0.62183   0.18478   0.00000  Uiso   1.00
H128   H     0.13000   0.99927   0.85557   0.00000  Uiso   1.00
H129   H     0.39041   0.56615   0.59943   0.00000  Uiso   1.00
O130   O     0.18612   0.48013   0.20170   0.00000  Uiso   1.00
O131   O     0.94740   0.97531   0.76979   0.00000  Uiso   1.00
O132   O     0.28904   0.40707   0.43373   0.00000  Uiso   1.00
N133   N     0.09963   0.46228   0.04468   0.00000  Uiso   1.00
N134   N     0.92950   0.81516   0.73691   0.00000  Uiso   1.00
N135   N     0.17295   0.41025   0.49742   0.00000  Uiso   1.00
N136   N     0.24663   0.57879   0.12882   0.00000  Uiso   1.00
N137   N     0.07651   0.93167   0.82105   0.00000  Uiso   1.00
N138   N     0.31995   0.52676   0.58156   0.00000  Uiso   1.00
C139   C     0.24785   0.94553   0.44773   0.00000  Uiso   1.00
C140   C     0.14700   0.89712   0.44411   0.00000  Uiso   1.00
C141   C     0.10898   0.93842   0.50604   0.00000  Uiso   1.00
C142   C     0.01530   0.88230   0.49080   0.00000  Uiso   1.00
C143   C     0.86686   0.82146   0.49648   0.00000  Uiso   1.00
C144   C     0.23153   0.94403   0.34666   0.00000  Uiso   1.00
C145   C     0.26459   0.02477   0.32666   0.00000  Uiso   1.00
C146   C     0.24208   0.00813   0.22938   0.00000  Uiso   1.00
C147   C     0.22492   0.02010   0.08378   0.00000  Uiso   1.00
C148   C     0.29734   0.87681   0.45840   0.00000  Uiso   1.00
C149   C     0.38575   0.90104   0.53234   0.00000  Uiso   1.00
C150   C     0.41865   0.82781   0.52912   0.00000  Uiso   1.00
C151   C     0.50367   0.73542   0.55700   0.00000  Uiso   1.00
C152   C     0.14909   0.77242   0.31053   0.00000  Uiso   1.00
C153   C     0.09336   0.80309   0.36958   0.00000  Uiso   1.00
C154   C     0.99972   0.74690   0.35424   0.00000  Uiso   1.00
C155   C     0.96157   0.78811   0.41614   0.00000  Uiso   1.00
C156   C     0.17789   0.85001   0.27213   0.00000  Uiso   1.00
C157   C     0.15533   0.83324   0.17486   0.00000  Uiso   1.00
C158   C     0.18834   0.91394   0.15472   0.00000  Uiso   1.00
C159   C     0.24370   0.78278   0.38387   0.00000  Uiso   1.00
C160   C     0.27648   0.70951   0.38054   0.00000  Uiso   1.00
C161   C     0.36492   0.73362   0.45446   0.00000  Uiso   1.00
H162   H     0.28961   0.01873   0.50575   0.00000  Uiso   1.00
H163   H     0.15051   0.01119   0.56370   0.00000  Uiso   1.00
H164   H     0.30611   0.09752   0.38435   0.00000  Uiso   1.00
H165   H     0.42724   0.97380   0.58999   0.00000  Uiso   1.00
H166   H     0.97263   0.96138   0.59507   0.00000  Uiso   1.00
H167   H     0.30074   0.14340   0.21690   0.00000  Uiso   1.00
H168   H     0.55616   0.88253   0.65054   0.00000  Uiso   1.00
H169   H     0.10733   0.69921   0.25250   0.00000  Uiso   1.00
H170   H     0.95823   0.67414   0.29656   0.00000  Uiso   1.00
H171   H     0.11382   0.76047   0.11721   0.00000  Uiso   1.00
H172   H     0.23495   0.63676   0.32285   0.00000  Uiso   1.00
H173   H     0.81656   0.68782   0.37825   0.00000  Uiso   1.00
H174   H     0.14467   0.86984   0.00007   0.00000  Uiso   1.00
H175   H     0.40009   0.60897   0.43372   0.00000  Uiso   1.00
O176   O     0.79979   0.81388   0.52019   0.00000  Uiso   1.00
O177   O     0.23027   0.05269   0.02405   0.00000  Uiso   1.00
O178   O     0.56538   0.71043   0.59298   0.00000  Uiso   1.00
N179   N     0.95637   0.90043   0.53801   0.00000  Uiso   1.00
N180   N     0.26312   0.07062   0.18444   0.00000  Uiso   1.00
N181   N     0.50193   0.82673   0.58984   0.00000  Uiso   1.00
N182   N     0.87239   0.75323   0.42134   0.00000  Uiso   1.00
N183   N     0.17914   0.92341   0.06777   0.00000  Uiso   1.00
N184   N     0.41795   0.67953   0.47317   0.00000  Uiso   1.00
C185   C     0.44772   0.24776   0.94545   0.00000  Uiso   1.00
C186   C     0.44405   0.14676   0.89695   0.00000  Uiso   1.00
C187   C     0.50580   0.10865   0.93828   0.00000  Uiso   1.00
C188   C     0.49055   0.01484   0.88207   0.00000  Uiso   1.00
C189   C     0.49613   0.86615   0.82111   0.00000  Uiso   1.00
C190   C     0.34695   0.23147   0.94399   0.00000  Uiso   1.00
C191   C     0.32706   0.26460   0.02487   0.00000  Uiso   1.00
C192   C     0.23007   0.24210   0.00825   0.00000  Uiso   1.00
C193   C     0.08491   0.22499   0.02031   0.00000  Uiso   1.00
C194   C     0.45834   0.29731   0.87662   0.00000  Uiso   1.00
C195   C     0.53210   0.38582   0.90086   0.00000  Uiso   1.00
C196   C     0.52887   0.41877   0.82753   0.00000  Uiso   1.00
C197   C     0.55667   0.50389   0.73499   0.00000  Uiso   1.00
C198   C     0.31084   0.14890   0.77212   0.00000  Uiso   1.00
C199   C     0.36970   0.09306   0.80281   0.00000  Uiso   1.00
C200   C     0.35435   0.99928   0.74652   0.00000  Uiso   1.00
C201   C     0.41607   0.96104   0.78776   0.00000  Uiso   1.00
C202   C     0.27260   0.17777   0.84985   0.00000  Uiso   1.00
C203   C     0.17561   0.15522   0.83311   0.00000  Uiso   1.00
C204   C     0.15558   0.18831   0.91394   0.00000  Uiso   1.00
C205   C     0.38399   0.24361   0.78248   0.00000  Uiso   1.00
C206   C     0.38065   0.27644   0.70910   0.00000  Uiso   1.00
C207   C     0.45439   0.36498   0.73322   0.00000  Uiso   1.00
H208   H     0.50560   0.28957   0.01874   0.00000  Uiso   1.00
H209   H     0.56332   0.15023   0.01115   0.00000  Uiso   1.00
H210   H     0.38461   0.30616   0.09771   0.00000  Uiso   1.00
H211   H     0.58962   0.42736   0.97372   0.00000  Uiso   1.00
H212   H     0.59451   0.97205   0.96122   0.00000  Uiso   1.00
H213   H     0.21769   0.30087   0.14375   0.00000  Uiso   1.00
H214   H     0.64999   0.55644   0.88229   0.00000  Uiso   1.00
H215   H     0.25295   0.10710   0.69883   0.00000  Uiso   1.00
H216   H     0.29681   0.95774   0.67367   0.00000  Uiso   1.00
H217   H     0.11810   0.11367   0.76024   0.00000  Uiso   1.00
H218   H     0.32310   0.23487   0.63625   0.00000  Uiso   1.00
H219   H     0.37819   0.81582   0.68731   0.00000  Uiso   1.00
H220   H     0.00138   0.14464   0.86985   0.00000  Uiso   1.00
H221   H     0.43367   0.40021   0.60839   0.00000  Uiso   1.00
O222   O     0.51974   0.79897   0.81350   0.00000  Uiso   1.00
O223   O     0.02538   0.23038   0.05298   0.00000  Uiso   1.00
O224   O     0.59254   0.56567   0.70995   0.00000  Uiso   1.00
N225   N     0.53759   0.95579   0.90020   0.00000  Uiso   1.00
N226   N     0.18529   0.26320   0.07086   0.00000  Uiso   1.00
N227   N     0.58944   0.50215   0.82642   0.00000  Uiso   1.00
N228   N     0.42120   0.87172   0.75281   0.00000  Uiso   1.00
N229   N     0.06889   0.17913   0.92347   0.00000  Uiso   1.00
N230   N     0.47304   0.41808   0.67904   0.00000  Uiso   1.00
C231   C     0.94556   0.44773   0.24772   0.00000  Uiso   1.00
C232   C     0.89717   0.44407   0.14658   0.00000  Uiso   1.00
C233   C     0.93838   0.50588   0.10841   0.00000  Uiso   1.00
C234   C     0.88231   0.49062   0.01447   0.00000  Uiso   1.00
C235   C     0.82148   0.49623   0.86558   0.00000  Uiso   1.00
C236   C     0.94406   0.34680   0.23139   0.00000  Uiso   1.00
C237   C     0.02470   0.32685   0.26454   0.00000  Uiso   1.00
C238   C     0.00809   0.22971   0.24200   0.00000  Uiso   1.00
C239   C     0.02006   0.08432   0.22484   0.00000  Uiso   1.00
C240   C     0.87697   0.45841   0.29739   0.00000  Uiso   1.00
C241   C     0.90119   0.53227   0.38603   0.00000  Uiso   1.00
C242   C     0.82810   0.52909   0.41907   0.00000  Uiso   1.00
C243   C     0.73589   0.55698   0.50437   0.00000  Uiso   1.00
C244   C     0.77268   0.31071   0.14878   0.00000  Uiso   1.00
C245   C     0.80328   0.36964   0.09284   0.00000  Uiso   1.00
C246   C     0.74712   0.35429   0.99894   0.00000  Uiso   1.00
C247   C     0.78824   0.41607   0.96063   0.00000  Uiso   1.00
C248   C     0.85017   0.27238   0.17765   0.00000  Uiso   1.00
C249   C     0.83343   0.17525   0.15506   0.00000  Uiso   1.00
C250   C     0.91402   0.15515   0.18816   0.00000  Uiso   1.00
C251   C     0.78307   0.38399   0.24364   0.00000  Uiso   1.00
C252   C     0.70992   0.38068   0.27655   0.00000  Uiso   1.00
C253   C     0.73403   0.45453   0.36523   0.00000  Uiso   1.00
H254   H     0.01866   0.50566   0.28957   0.00000  Uiso   1.00
H255   H     0.01106   0.56346   0.15002   0.00000  Uiso   1.00
H256   H     0.09735   0.38446   0.30613   0.00000  Uiso   1.00
H257   H     0.97386   0.58985   0.42760   0.00000  Uiso   1.00
H258   H     0.96123   0.59470   0.97159   0.00000  Uiso   1.00
H259   H     0.14319   0.21726   0.30079   0.00000  Uiso   1.00
H260   H     0.88279   0.65037   0.55694   0.00000  Uiso   1.00
H261   H     0.69957   0.25276   0.10694   0.00000  Uiso   1.00
H262   H     0.67446   0.29669   0.95736   0.00000  Uiso   1.00
H263   H     0.76076   0.11768   0.11348   0.00000  Uiso   1.00
H264   H     0.63727   0.32307   0.23494   0.00000  Uiso   1.00
H265   H     0.68803   0.37817   0.81522   0.00000  Uiso   1.00
H266   H     0.87000   0.00073   0.14443   0.00000  Uiso   1.00
H267   H     0.60959   0.43385   0.40057   0.00000  Uiso   1.00
O268   O     0.81388   0.51987   0.79830   0.00000  Uiso   1.00
O269   O     0.05260   0.02469   0.23021   0.00000  Uiso   1.00
O270   O     0.71096   0.59293   0.56627   0.00000  Uiso   1.00
N271   N     0.90037   0.53772   0.95532   0.00000  Uiso   1.00
N272   N     0.07050   0.18484   0.26309   0.00000  Uiso   1.00
N273   N     0.82705   0.58975   0.50258   0.00000  Uiso   1.00
N274   N     0.75337   0.42121   0.87118   0.00000  Uiso   1.00
N275   N     0.92349   0.06833   0.17895   0.00000  Uiso   1.00
N276   N     0.68004   0.47324   0.41844   0.00000  Uiso   1.00
