data_job_00784
_audit_creation_date              2018-12-19
_audit_creation_method            'Materials Studio'
_symmetry_space_group_name_H-M    'P1'
_symmetry_Int_Tables_number       1
_symmetry_cell_setting            triclinic
loop_
_symmetry_equiv_pos_as_xyz
  x,y,z
_cell_length_a                    12.6001
_cell_length_b                    25.1786
_cell_length_c                    14.0129
_cell_angle_alpha                 90.0000
_cell_angle_beta                  89.0937
_cell_angle_gamma                 90.0000
loop_
_atom_site_label
_atom_site_type_symbol
_atom_site_fract_x
_atom_site_fract_y
_atom_site_fract_z
_atom_site_U_iso_or_equiv
_atom_site_adp_type
_atom_site_occupancy
C1     C     0.08588   0.65187   0.23510   0.00000  Uiso   1.00
C2     C     0.09166   0.62195   0.32949   0.00000  Uiso   1.00
C3     C     0.06956   0.64305   0.41911   0.00000  Uiso   1.00
C4     C     0.07950   0.60919   0.49665   0.00000  Uiso   1.00
C5     C     0.08382   0.57081   0.64501   0.00000  Uiso   1.00
C6     C     0.19517   0.64632   0.18784   0.00000  Uiso   1.00
C7     C     0.26008   0.68791   0.15835   0.00000  Uiso   1.00
C8     C     0.35715   0.67456   0.11664   0.00000  Uiso   1.00
C9     C     0.52213   0.67401   0.04502   0.00000  Uiso   1.00
C10    C     0.00985   0.62041   0.17314   0.00000  Uiso   1.00
C11    C     0.91897   0.64023   0.13126   0.00000  Uiso   1.00
C12    C     0.86002   0.60508   0.07715   0.00000  Uiso   1.00
C13    C     0.73727   0.56431   0.98270   0.00000  Uiso   1.00
C14    C     0.14282   0.55420   0.21346   0.00000  Uiso   1.00
C15    C     0.12259   0.56890   0.31773   0.00000  Uiso   1.00
C16    C     0.13256   0.53499   0.39516   0.00000  Uiso   1.00
C17    C     0.11048   0.55605   0.48488   0.00000  Uiso   1.00
C18    C     0.22610   0.59327   0.17608   0.00000  Uiso   1.00
C19    C     0.32308   0.57985   0.13440   0.00000  Uiso   1.00
C20    C     0.38814   0.62142   0.10486   0.00000  Uiso   1.00
C21    C     0.04078   0.56736   0.16138   0.00000  Uiso   1.00
C22    C     0.98197   0.53217   0.10732   0.00000  Uiso   1.00
C23    C     0.89101   0.55193   0.06537   0.00000  Uiso   1.00
H24    H     0.06181   0.69317   0.24425   0.00000  Uiso   1.00
H25    H     0.04564   0.68411   0.42818   0.00000  Uiso   1.00
H26    H     0.23612   0.72896   0.16745   0.00000  Uiso   1.00
H27    H     0.89506   0.68129   0.14037   0.00000  Uiso   1.00
H28    H     0.04139   0.65068   0.62691   0.00000  Uiso   1.00
H29    H     0.44302   0.74525   0.07713   0.00000  Uiso   1.00
H30    H     0.72382   0.64472   0.02002   0.00000  Uiso   1.00
H31    H     0.16691   0.51289   0.20430   0.00000  Uiso   1.00
H32    H     0.15650   0.49394   0.38604   0.00000  Uiso   1.00
H33    H     0.34699   0.53879   0.12531   0.00000  Uiso   1.00
H34    H     0.00592   0.49112   0.09823   0.00000  Uiso   1.00
H35    H     0.13137   0.49633   0.59271   0.00000  Uiso   1.00
H36    H     0.53301   0.59090   0.04292   0.00000  Uiso   1.00
H37    H     0.81381   0.49037   0.98582   0.00000  Uiso   1.00
O38    O     0.07767   0.56429   0.73009   0.00000  Uiso   1.00
O39    O     0.60459   0.68836   0.00877   0.00000  Uiso   1.00
O40    O     0.66102   0.55648   0.93386   0.00000  Uiso   1.00
N41    N     0.06397   0.61695   0.59392   0.00000  Uiso   1.00
N42    N     0.43949   0.70537   0.07992   0.00000  Uiso   1.00
N43    N     0.76711   0.61139   0.02651   0.00000  Uiso   1.00
N44    N     0.11239   0.53390   0.57552   0.00000  Uiso   1.00
N45    N     0.48790   0.62231   0.06151   0.00000  Uiso   1.00
N46    N     0.81553   0.52833   0.00810   0.00000  Uiso   1.00
C47    C     0.40406   0.32899   0.35170   0.00000  Uiso   1.00
C48    C     0.39015   0.36353   0.44041   0.00000  Uiso   1.00
C49    C     0.40466   0.34711   0.53384   0.00000  Uiso   1.00
C50    C     0.38801   0.38470   0.60500   0.00000  Uiso   1.00
C51    C     0.37092   0.43039   0.74604   0.00000  Uiso   1.00
C52    C     0.29897   0.33173   0.29943   0.00000  Uiso   1.00
C53    C     0.23683   0.28858   0.27431   0.00000  Uiso   1.00
C54    C     0.14343   0.29940   0.22678   0.00000  Uiso   1.00
C55    C     0.98483   0.29572   0.14889   0.00000  Uiso   1.00
C56    C     0.48511   0.35748   0.28800   0.00000  Uiso   1.00
C57    C     0.57948   0.33597   0.25324   0.00000  Uiso   1.00
C58    C     0.64279   0.36848   0.19605   0.00000  Uiso   1.00
C59    C     0.77320   0.40477   0.10040   0.00000  Uiso   1.00
C60    C     0.34867   0.42495   0.31193   0.00000  Uiso   1.00
C61    C     0.36005   0.41565   0.41881   0.00000  Uiso   1.00
C62    C     0.34338   0.45328   0.48985   0.00000  Uiso   1.00
C63    C     0.35787   0.43692   0.58336   0.00000  Uiso   1.00
C64    C     0.26888   0.38385   0.27783   0.00000  Uiso   1.00
C65    C     0.17555   0.39474   0.23032   0.00000  Uiso   1.00
C66    C     0.11329   0.35162   0.20514   0.00000  Uiso   1.00
C67    C     0.45503   0.40960   0.26640   0.00000  Uiso   1.00
C68    C     0.51819   0.44214   0.20925   0.00000  Uiso   1.00
C69    C     0.61264   0.42069   0.17442   0.00000  Uiso   1.00
H70    H     0.42748   0.28841   0.36851   0.00000  Uiso   1.00
H71    H     0.42794   0.30677   0.55053   0.00000  Uiso   1.00
H72    H     0.26014   0.24825   0.29103   0.00000  Uiso   1.00
H73    H     0.60273   0.29564   0.26996   0.00000  Uiso   1.00
H74    H     0.41514   0.35010   0.74280   0.00000  Uiso   1.00
H75    H     0.06135   0.22670   0.19562   0.00000  Uiso   1.00
H76    H     0.78377   0.32663   0.15119   0.00000  Uiso   1.00
H77    H     0.32524   0.46553   0.29511   0.00000  Uiso   1.00
H78    H     0.32010   0.49361   0.47311   0.00000  Uiso   1.00
H79    H     0.15230   0.43508   0.21362   0.00000  Uiso   1.00
H80    H     0.49489   0.48248   0.19255   0.00000  Uiso   1.00
H81    H     0.32760   0.50175   0.67997   0.00000  Uiso   1.00
H82    H     0.97382   0.37834   0.13278   0.00000  Uiso   1.00
H83    H     0.69624   0.47828   0.08836   0.00000  Uiso   1.00
O84    O     0.36979   0.44119   0.82980   0.00000  Uiso   1.00
O85    O     0.90565   0.27929   0.11190   0.00000  Uiso   1.00
O86    O     0.85345   0.41040   0.05362   0.00000  Uiso   1.00
N87    N     0.39527   0.38194   0.70359   0.00000  Uiso   1.00
N88    N     0.06449   0.26657   0.19201   0.00000  Uiso   1.00
N89    N     0.73987   0.35999   0.15046   0.00000  Uiso   1.00
N90    N     0.34816   0.46354   0.66978   0.00000  Uiso   1.00
N91    N     0.01738   0.34817   0.15820   0.00000  Uiso   1.00
N92    N     0.69277   0.44159   0.11665   0.00000  Uiso   1.00
C93    C     0.91412   0.15187   0.26490   0.00000  Uiso   1.00
C94    C     0.90834   0.12195   0.17051   0.00000  Uiso   1.00
C95    C     0.93044   0.14305   0.08089   0.00000  Uiso   1.00
C96    C     0.92050   0.10919   0.00335   0.00000  Uiso   1.00
C97    C     0.91618   0.07081   0.85499   0.00000  Uiso   1.00
C98    C     0.80483   0.14632   0.31216   0.00000  Uiso   1.00
C99    C     0.73992   0.18791   0.34165   0.00000  Uiso   1.00
C100   C     0.64285   0.17456   0.38336   0.00000  Uiso   1.00
C101   C     0.47787   0.17401   0.45498   0.00000  Uiso   1.00
C102   C     0.99015   0.12041   0.32686   0.00000  Uiso   1.00
C103   C     0.08103   0.14023   0.36874   0.00000  Uiso   1.00
C104   C     0.13998   0.10508   0.42285   0.00000  Uiso   1.00
C105   C     0.26273   0.06431   0.51730   0.00000  Uiso   1.00
C106   C     0.85718   0.05420   0.28654   0.00000  Uiso   1.00
C107   C     0.87741   0.06890   0.18227   0.00000  Uiso   1.00
C108   C     0.86744   0.03499   0.10484   0.00000  Uiso   1.00
C109   C     0.88952   0.05605   0.01512   0.00000  Uiso   1.00
C110   C     0.77390   0.09327   0.32392   0.00000  Uiso   1.00
C111   C     0.67692   0.07985   0.36560   0.00000  Uiso   1.00
C112   C     0.61186   0.12142   0.39514   0.00000  Uiso   1.00
C113   C     0.95922   0.06736   0.33862   0.00000  Uiso   1.00
C114   C     0.01803   0.03217   0.39268   0.00000  Uiso   1.00
C115   C     0.10899   0.05193   0.43463   0.00000  Uiso   1.00
H116   H     0.93819   0.19317   0.25575   0.00000  Uiso   1.00
H117   H     0.95436   0.18411   0.07182   0.00000  Uiso   1.00
H118   H     0.76388   0.22896   0.33255   0.00000  Uiso   1.00
H119   H     0.10494   0.18129   0.35963   0.00000  Uiso   1.00
H120   H     0.95861   0.15068   0.87309   0.00000  Uiso   1.00
H121   H     0.55698   0.24525   0.42287   0.00000  Uiso   1.00
H122   H     0.27618   0.14472   0.47998   0.00000  Uiso   1.00
H123   H     0.83309   0.01289   0.29570   0.00000  Uiso   1.00
H124   H     0.84350   0.99394   0.11396   0.00000  Uiso   1.00
H125   H     0.65301   0.03879   0.37469   0.00000  Uiso   1.00
H126   H     0.99408   0.99112   0.40177   0.00000  Uiso   1.00
H127   H     0.86863   0.99633   0.90729   0.00000  Uiso   1.00
H128   H     0.46699   0.09090   0.45708   0.00000  Uiso   1.00
H129   H     0.18619   0.99037   0.51418   0.00000  Uiso   1.00
O130   O     0.92233   0.06429   0.76991   0.00000  Uiso   1.00
O131   O     0.39541   0.18836   0.49123   0.00000  Uiso   1.00
O132   O     0.33898   0.05648   0.56614   0.00000  Uiso   1.00
N133   N     0.93603   0.11695   0.90608   0.00000  Uiso   1.00
N134   N     0.56051   0.20537   0.42008   0.00000  Uiso   1.00
N135   N     0.23289   0.11139   0.47349   0.00000  Uiso   1.00
N136   N     0.88761   0.03390   0.92448   0.00000  Uiso   1.00
N137   N     0.51210   0.12231   0.43849   0.00000  Uiso   1.00
N138   N     0.18447   0.02833   0.49190   0.00000  Uiso   1.00
C139   C     0.59594   0.82899   0.14830   0.00000  Uiso   1.00
C140   C     0.60985   0.86353   0.05959   0.00000  Uiso   1.00
C141   C     0.59534   0.84711   0.96616   0.00000  Uiso   1.00
C142   C     0.61199   0.88470   0.89500   0.00000  Uiso   1.00
C143   C     0.62908   0.93039   0.75396   0.00000  Uiso   1.00
C144   C     0.70103   0.83173   0.20057   0.00000  Uiso   1.00
C145   C     0.76317   0.78858   0.22569   0.00000  Uiso   1.00
C146   C     0.85657   0.79940   0.27322   0.00000  Uiso   1.00
C147   C     0.01517   0.79572   0.35111   0.00000  Uiso   1.00
C148   C     0.51489   0.85748   0.21200   0.00000  Uiso   1.00
C149   C     0.42052   0.83597   0.24676   0.00000  Uiso   1.00
C150   C     0.35721   0.86848   0.30395   0.00000  Uiso   1.00
C151   C     0.22680   0.90477   0.39960   0.00000  Uiso   1.00
C152   C     0.65133   0.92495   0.18807   0.00000  Uiso   1.00
C153   C     0.63995   0.91565   0.08119   0.00000  Uiso   1.00
C154   C     0.65662   0.95328   0.01015   0.00000  Uiso   1.00
C155   C     0.64213   0.93692   0.91664   0.00000  Uiso   1.00
C156   C     0.73112   0.88385   0.22217   0.00000  Uiso   1.00
C157   C     0.82445   0.89474   0.26968   0.00000  Uiso   1.00
C158   C     0.88671   0.85162   0.29486   0.00000  Uiso   1.00
C159   C     0.54497   0.90960   0.23360   0.00000  Uiso   1.00
C160   C     0.48181   0.94214   0.29075   0.00000  Uiso   1.00
C161   C     0.38736   0.92069   0.32558   0.00000  Uiso   1.00
H162   H     0.57252   0.78841   0.13149   0.00000  Uiso   1.00
H163   H     0.57206   0.80677   0.94947   0.00000  Uiso   1.00
H164   H     0.73986   0.74825   0.20897   0.00000  Uiso   1.00
H165   H     0.39727   0.79564   0.23004   0.00000  Uiso   1.00
H166   H     0.58486   0.85010   0.75720   0.00000  Uiso   1.00
H167   H     0.93865   0.72670   0.30438   0.00000  Uiso   1.00
H168   H     0.21623   0.82663   0.34881   0.00000  Uiso   1.00
H169   H     0.67476   0.96553   0.20489   0.00000  Uiso   1.00
H170   H     0.67990   0.99361   0.02689   0.00000  Uiso   1.00
H171   H     0.84770   0.93508   0.28638   0.00000  Uiso   1.00
H172   H     0.50511   0.98248   0.30745   0.00000  Uiso   1.00
H173   H     0.67240   0.00175   0.82003   0.00000  Uiso   1.00
H174   H     0.02618   0.87834   0.36722   0.00000  Uiso   1.00
H175   H     0.30376   0.97828   0.41164   0.00000  Uiso   1.00
O176   O     0.63021   0.94119   0.67020   0.00000  Uiso   1.00
O177   O     0.09435   0.77929   0.38810   0.00000  Uiso   1.00
O178   O     0.14655   0.91040   0.44638   0.00000  Uiso   1.00
N179   N     0.60473   0.88194   0.79641   0.00000  Uiso   1.00
N180   N     0.93551   0.76657   0.30799   0.00000  Uiso   1.00
N181   N     0.26013   0.85999   0.34954   0.00000  Uiso   1.00
N182   N     0.65184   0.96354   0.83022   0.00000  Uiso   1.00
N183   N     0.98262   0.84817   0.34180   0.00000  Uiso   1.00
N184   N     0.30723   0.94159   0.38335   0.00000  Uiso   1.00
C185   C     0.91412   0.34813   0.76490   0.00000  Uiso   1.00
C186   C     0.90834   0.37805   0.67051   0.00000  Uiso   1.00
C187   C     0.93044   0.35695   0.58089   0.00000  Uiso   1.00
C188   C     0.92050   0.39081   0.50335   0.00000  Uiso   1.00
C189   C     0.91618   0.42919   0.35499   0.00000  Uiso   1.00
C190   C     0.80483   0.35368   0.81216   0.00000  Uiso   1.00
C191   C     0.73992   0.31209   0.84165   0.00000  Uiso   1.00
C192   C     0.64285   0.32544   0.88336   0.00000  Uiso   1.00
C193   C     0.47787   0.32599   0.95498   0.00000  Uiso   1.00
C194   C     0.99015   0.37959   0.82686   0.00000  Uiso   1.00
C195   C     0.08103   0.35977   0.86874   0.00000  Uiso   1.00
C196   C     0.13998   0.39492   0.92285   0.00000  Uiso   1.00
C197   C     0.26273   0.43569   0.01730   0.00000  Uiso   1.00
C198   C     0.85718   0.44580   0.78654   0.00000  Uiso   1.00
C199   C     0.87741   0.43110   0.68227   0.00000  Uiso   1.00
C200   C     0.86744   0.46501   0.60484   0.00000  Uiso   1.00
C201   C     0.88952   0.44395   0.51512   0.00000  Uiso   1.00
C202   C     0.77390   0.40673   0.82392   0.00000  Uiso   1.00
C203   C     0.67692   0.42015   0.86560   0.00000  Uiso   1.00
C204   C     0.61186   0.37858   0.89514   0.00000  Uiso   1.00
C205   C     0.95922   0.43264   0.83862   0.00000  Uiso   1.00
C206   C     0.01803   0.46783   0.89268   0.00000  Uiso   1.00
C207   C     0.10899   0.44807   0.93463   0.00000  Uiso   1.00
H208   H     0.93819   0.30683   0.75575   0.00000  Uiso   1.00
H209   H     0.95436   0.31589   0.57182   0.00000  Uiso   1.00
H210   H     0.76388   0.27104   0.83255   0.00000  Uiso   1.00
H211   H     0.10494   0.31871   0.85963   0.00000  Uiso   1.00
H212   H     0.95861   0.34932   0.37309   0.00000  Uiso   1.00
H213   H     0.55698   0.25475   0.92287   0.00000  Uiso   1.00
H214   H     0.27618   0.35528   0.97998   0.00000  Uiso   1.00
H215   H     0.83309   0.48711   0.79570   0.00000  Uiso   1.00
H216   H     0.84350   0.50606   0.61396   0.00000  Uiso   1.00
H217   H     0.65301   0.46121   0.87469   0.00000  Uiso   1.00
H218   H     0.99408   0.50888   0.90177   0.00000  Uiso   1.00
H219   H     0.86863   0.50367   0.40729   0.00000  Uiso   1.00
H220   H     0.46699   0.40910   0.95708   0.00000  Uiso   1.00
H221   H     0.18619   0.50963   0.01418   0.00000  Uiso   1.00
O222   O     0.92233   0.43571   0.26991   0.00000  Uiso   1.00
O223   O     0.39541   0.31164   0.99123   0.00000  Uiso   1.00
O224   O     0.33898   0.44352   0.06614   0.00000  Uiso   1.00
N225   N     0.93603   0.38305   0.40608   0.00000  Uiso   1.00
N226   N     0.56051   0.29463   0.92008   0.00000  Uiso   1.00
N227   N     0.23289   0.38861   0.97349   0.00000  Uiso   1.00
N228   N     0.88761   0.46610   0.42448   0.00000  Uiso   1.00
N229   N     0.51210   0.37769   0.93849   0.00000  Uiso   1.00
N230   N     0.18447   0.47167   0.99190   0.00000  Uiso   1.00
C231   C     0.59594   0.67101   0.64830   0.00000  Uiso   1.00
C232   C     0.60985   0.63647   0.55959   0.00000  Uiso   1.00
C233   C     0.59534   0.65289   0.46616   0.00000  Uiso   1.00
C234   C     0.61199   0.61530   0.39500   0.00000  Uiso   1.00
C235   C     0.62908   0.56961   0.25396   0.00000  Uiso   1.00
C236   C     0.70103   0.66827   0.70057   0.00000  Uiso   1.00
C237   C     0.76317   0.71142   0.72569   0.00000  Uiso   1.00
C238   C     0.85657   0.70060   0.77322   0.00000  Uiso   1.00
C239   C     0.01517   0.70428   0.85111   0.00000  Uiso   1.00
C240   C     0.51489   0.64252   0.71200   0.00000  Uiso   1.00
C241   C     0.42052   0.66403   0.74676   0.00000  Uiso   1.00
C242   C     0.35721   0.63152   0.80395   0.00000  Uiso   1.00
C243   C     0.22680   0.59523   0.89960   0.00000  Uiso   1.00
C244   C     0.65133   0.57505   0.68807   0.00000  Uiso   1.00
C245   C     0.63995   0.58435   0.58119   0.00000  Uiso   1.00
C246   C     0.65662   0.54672   0.51015   0.00000  Uiso   1.00
C247   C     0.64213   0.56308   0.41664   0.00000  Uiso   1.00
C248   C     0.73112   0.61615   0.72217   0.00000  Uiso   1.00
C249   C     0.82445   0.60526   0.76968   0.00000  Uiso   1.00
C250   C     0.88671   0.64838   0.79486   0.00000  Uiso   1.00
C251   C     0.54497   0.59040   0.73360   0.00000  Uiso   1.00
C252   C     0.48181   0.55786   0.79075   0.00000  Uiso   1.00
C253   C     0.38736   0.57931   0.82558   0.00000  Uiso   1.00
H254   H     0.57252   0.71159   0.63149   0.00000  Uiso   1.00
H255   H     0.57206   0.69323   0.44947   0.00000  Uiso   1.00
H256   H     0.73986   0.75175   0.70897   0.00000  Uiso   1.00
H257   H     0.39727   0.70436   0.73004   0.00000  Uiso   1.00
H258   H     0.58486   0.64990   0.25720   0.00000  Uiso   1.00
H259   H     0.93865   0.77330   0.80438   0.00000  Uiso   1.00
H260   H     0.21623   0.67337   0.84881   0.00000  Uiso   1.00
H261   H     0.67476   0.53447   0.70489   0.00000  Uiso   1.00
H262   H     0.67990   0.50639   0.52689   0.00000  Uiso   1.00
H263   H     0.84770   0.56492   0.78638   0.00000  Uiso   1.00
H264   H     0.50511   0.51752   0.80745   0.00000  Uiso   1.00
H265   H     0.67240   0.49825   0.32003   0.00000  Uiso   1.00
H266   H     0.02618   0.62166   0.86722   0.00000  Uiso   1.00
H267   H     0.30376   0.52172   0.91164   0.00000  Uiso   1.00
O268   O     0.63021   0.55881   0.17020   0.00000  Uiso   1.00
O269   O     0.09435   0.72071   0.88810   0.00000  Uiso   1.00
O270   O     0.14655   0.58960   0.94638   0.00000  Uiso   1.00
N271   N     0.60473   0.61806   0.29641   0.00000  Uiso   1.00
N272   N     0.93551   0.73343   0.80799   0.00000  Uiso   1.00
N273   N     0.26013   0.64001   0.84954   0.00000  Uiso   1.00
N274   N     0.65184   0.53646   0.33022   0.00000  Uiso   1.00
N275   N     0.98262   0.65183   0.84180   0.00000  Uiso   1.00
N276   N     0.30723   0.55841   0.88335   0.00000  Uiso   1.00
C277   C     0.08588   0.84813   0.73510   0.00000  Uiso   1.00
C278   C     0.09166   0.87805   0.82949   0.00000  Uiso   1.00
C279   C     0.06956   0.85695   0.91911   0.00000  Uiso   1.00
C280   C     0.07950   0.89081   0.99665   0.00000  Uiso   1.00
C281   C     0.08382   0.92919   0.14501   0.00000  Uiso   1.00
C282   C     0.19517   0.85368   0.68784   0.00000  Uiso   1.00
C283   C     0.26008   0.81209   0.65835   0.00000  Uiso   1.00
C284   C     0.35715   0.82544   0.61664   0.00000  Uiso   1.00
C285   C     0.52213   0.82599   0.54502   0.00000  Uiso   1.00
C286   C     0.00985   0.87959   0.67314   0.00000  Uiso   1.00
C287   C     0.91897   0.85977   0.63126   0.00000  Uiso   1.00
C288   C     0.86002   0.89492   0.57715   0.00000  Uiso   1.00
C289   C     0.73727   0.93569   0.48270   0.00000  Uiso   1.00
C290   C     0.14282   0.94580   0.71346   0.00000  Uiso   1.00
C291   C     0.12259   0.93110   0.81773   0.00000  Uiso   1.00
C292   C     0.13256   0.96501   0.89516   0.00000  Uiso   1.00
C293   C     0.11048   0.94395   0.98488   0.00000  Uiso   1.00
C294   C     0.22610   0.90673   0.67608   0.00000  Uiso   1.00
C295   C     0.32308   0.92015   0.63440   0.00000  Uiso   1.00
C296   C     0.38814   0.87858   0.60486   0.00000  Uiso   1.00
C297   C     0.04078   0.93264   0.66138   0.00000  Uiso   1.00
C298   C     0.98197   0.96783   0.60732   0.00000  Uiso   1.00
C299   C     0.89101   0.94807   0.56537   0.00000  Uiso   1.00
H300   H     0.06181   0.80683   0.74425   0.00000  Uiso   1.00
H301   H     0.04564   0.81589   0.92818   0.00000  Uiso   1.00
H302   H     0.23612   0.77104   0.66745   0.00000  Uiso   1.00
H303   H     0.89506   0.81871   0.64037   0.00000  Uiso   1.00
H304   H     0.04139   0.84932   0.12691   0.00000  Uiso   1.00
H305   H     0.44302   0.75475   0.57713   0.00000  Uiso   1.00
H306   H     0.72382   0.85528   0.52002   0.00000  Uiso   1.00
H307   H     0.16691   0.98711   0.70430   0.00000  Uiso   1.00
H308   H     0.15650   0.00606   0.88604   0.00000  Uiso   1.00
H309   H     0.34699   0.96121   0.62531   0.00000  Uiso   1.00
H310   H     0.00592   0.00888   0.59823   0.00000  Uiso   1.00
H311   H     0.13137   0.00367   0.09271   0.00000  Uiso   1.00
H312   H     0.53301   0.90910   0.54292   0.00000  Uiso   1.00
H313   H     0.81381   0.00963   0.48582   0.00000  Uiso   1.00
O314   O     0.07767   0.93571   0.23009   0.00000  Uiso   1.00
O315   O     0.60459   0.81164   0.50877   0.00000  Uiso   1.00
O316   O     0.66102   0.94352   0.43386   0.00000  Uiso   1.00
N317   N     0.06397   0.88305   0.09392   0.00000  Uiso   1.00
N318   N     0.43949   0.79463   0.57992   0.00000  Uiso   1.00
N319   N     0.76711   0.88861   0.52651   0.00000  Uiso   1.00
N320   N     0.11239   0.96610   0.07552   0.00000  Uiso   1.00
N321   N     0.48790   0.87769   0.56151   0.00000  Uiso   1.00
N322   N     0.81553   0.97167   0.50810   0.00000  Uiso   1.00
C323   C     0.40406   0.17101   0.85170   0.00000  Uiso   1.00
C324   C     0.39015   0.13647   0.94041   0.00000  Uiso   1.00
C325   C     0.40466   0.15289   0.03384   0.00000  Uiso   1.00
C326   C     0.38801   0.11530   0.10500   0.00000  Uiso   1.00
C327   C     0.37092   0.06961   0.24604   0.00000  Uiso   1.00
C328   C     0.29897   0.16827   0.79943   0.00000  Uiso   1.00
C329   C     0.23683   0.21142   0.77431   0.00000  Uiso   1.00
C330   C     0.14343   0.20060   0.72678   0.00000  Uiso   1.00
C331   C     0.98483   0.20428   0.64889   0.00000  Uiso   1.00
C332   C     0.48511   0.14252   0.78800   0.00000  Uiso   1.00
C333   C     0.57948   0.16403   0.75324   0.00000  Uiso   1.00
C334   C     0.64279   0.13152   0.69605   0.00000  Uiso   1.00
C335   C     0.77320   0.09523   0.60040   0.00000  Uiso   1.00
C336   C     0.34867   0.07505   0.81193   0.00000  Uiso   1.00
C337   C     0.36005   0.08435   0.91881   0.00000  Uiso   1.00
C338   C     0.34338   0.04672   0.98985   0.00000  Uiso   1.00
C339   C     0.35787   0.06308   0.08336   0.00000  Uiso   1.00
C340   C     0.26888   0.11615   0.77783   0.00000  Uiso   1.00
C341   C     0.17555   0.10526   0.73032   0.00000  Uiso   1.00
C342   C     0.11329   0.14838   0.70514   0.00000  Uiso   1.00
C343   C     0.45503   0.09040   0.76640   0.00000  Uiso   1.00
C344   C     0.51819   0.05786   0.70925   0.00000  Uiso   1.00
C345   C     0.61264   0.07931   0.67442   0.00000  Uiso   1.00
H346   H     0.42748   0.21159   0.86851   0.00000  Uiso   1.00
H347   H     0.42794   0.19323   0.05053   0.00000  Uiso   1.00
H348   H     0.26014   0.25175   0.79103   0.00000  Uiso   1.00
H349   H     0.60273   0.20436   0.76996   0.00000  Uiso   1.00
H350   H     0.41514   0.14990   0.24280   0.00000  Uiso   1.00
H351   H     0.06135   0.27330   0.69562   0.00000  Uiso   1.00
H352   H     0.78377   0.17337   0.65119   0.00000  Uiso   1.00
H353   H     0.32524   0.03447   0.79511   0.00000  Uiso   1.00
H354   H     0.32010   0.00639   0.97311   0.00000  Uiso   1.00
H355   H     0.15230   0.06492   0.71362   0.00000  Uiso   1.00
H356   H     0.49489   0.01752   0.69255   0.00000  Uiso   1.00
H357   H     0.32760   0.99825   0.17997   0.00000  Uiso   1.00
H358   H     0.97382   0.12166   0.63278   0.00000  Uiso   1.00
H359   H     0.69624   0.02172   0.58836   0.00000  Uiso   1.00
O360   O     0.36979   0.05881   0.32980   0.00000  Uiso   1.00
O361   O     0.90565   0.22071   0.61190   0.00000  Uiso   1.00
O362   O     0.85345   0.08960   0.55362   0.00000  Uiso   1.00
N363   N     0.39527   0.11806   0.20359   0.00000  Uiso   1.00
N364   N     0.06449   0.23343   0.69201   0.00000  Uiso   1.00
N365   N     0.73987   0.14001   0.65046   0.00000  Uiso   1.00
N366   N     0.34816   0.03646   0.16978   0.00000  Uiso   1.00
N367   N     0.01738   0.15183   0.65820   0.00000  Uiso   1.00
N368   N     0.69277   0.05841   0.61665   0.00000  Uiso   1.00
