data_job_06561
_audit_creation_date              2018-12-19
_audit_creation_method            'Materials Studio'
_symmetry_space_group_name_H-M    'P1'
_symmetry_Int_Tables_number       1
_symmetry_cell_setting            triclinic
loop_
_symmetry_equiv_pos_as_xyz
  x,y,z
_cell_length_a                    19.4256
_cell_length_b                    22.4886
_cell_length_c                    24.8149
_cell_angle_alpha                 90.2083
_cell_angle_beta                  67.9874
_cell_angle_gamma                 64.6179
loop_
_atom_site_label
_atom_site_type_symbol
_atom_site_fract_x
_atom_site_fract_y
_atom_site_fract_z
_atom_site_U_iso_or_equiv
_atom_site_adp_type
_atom_site_occupancy
C1     C     0.41742   0.98918   0.86271   0.00000  Uiso   1.00
C2     C     0.35434   0.03355   0.92346   0.00000  Uiso   1.00
C3     C     0.36446   0.02613   0.97591   0.00000  Uiso   1.00
C4     C     0.29951   0.07186   0.02679   0.00000  Uiso   1.00
C5     C     0.21257   0.13293   0.12136   0.00000  Uiso   1.00
C6     C     0.37066   0.96247   0.84060   0.00000  Uiso   1.00
C7     C     0.39451   0.89530   0.82339   0.00000  Uiso   1.00
C8     C     0.34330   0.88120   0.80452   0.00000  Uiso   1.00
C9     C     0.28173   0.83193   0.77041   0.00000  Uiso   1.00
C10    C     0.43587   0.03621   0.82208   0.00000  Uiso   1.00
C11    C     0.51455   0.03102   0.78928   0.00000  Uiso   1.00
C12    C     0.51825   0.07899   0.75480   0.00000  Uiso   1.00
C13    C     0.55793   0.14419   0.69194   0.00000  Uiso   1.00
C14    C     0.28408   0.08358   0.85980   0.00000  Uiso   1.00
C15    C     0.28192   0.08482   0.92187   0.00000  Uiso   1.00
C16    C     0.21694   0.13057   0.97269   0.00000  Uiso   1.00
C17    C     0.22696   0.12323   0.02521   0.00000  Uiso   1.00
C18    C     0.29824   0.01374   0.83902   0.00000  Uiso   1.00
C19    C     0.24699   0.99974   0.82017   0.00000  Uiso   1.00
C20    C     0.27075   0.93256   0.80293   0.00000  Uiso   1.00
C21    C     0.36345   0.08748   0.82050   0.00000  Uiso   1.00
C22    C     0.36703   0.13546   0.78606   0.00000  Uiso   1.00
C23    C     0.44570   0.13035   0.75322   0.00000  Uiso   1.00
H24    H     0.47380   0.94926   0.86394   0.00000  Uiso   1.00
H25    H     0.42051   0.98644   0.97712   0.00000  Uiso   1.00
H26    H     0.45056   0.85564   0.82461   0.00000  Uiso   1.00
H27    H     0.57058   0.99134   0.79051   0.00000  Uiso   1.00
H28    H     0.32948   0.05026   0.10190   0.00000  Uiso   1.00
H29    H     0.39285   0.77445   0.78032   0.00000  Uiso   1.00
H30    H     0.64594   0.06059   0.70841   0.00000  Uiso   1.00
H31    H     0.22770   0.12350   0.85857   0.00000  Uiso   1.00
H32    H     0.16091   0.17024   0.97145   0.00000  Uiso   1.00
H33    H     0.19096   0.03943   0.81895   0.00000  Uiso   1.00
H34    H     0.31098   0.17513   0.78485   0.00000  Uiso   1.00
H35    H     0.11878   0.19944   0.09730   0.00000  Uiso   1.00
H36    H     0.18215   0.92362   0.77572   0.00000  Uiso   1.00
H37    H     0.43524   0.20977   0.70381   0.00000  Uiso   1.00
O38    O     0.18462   0.15244   0.17396   0.00000  Uiso   1.00
O39    O     0.26777   0.79058   0.75204   0.00000  Uiso   1.00
O40    O     0.59982   0.16600   0.65771   0.00000  Uiso   1.00
N41    N     0.28907   0.07896   0.08532   0.00000  Uiso   1.00
N42    N     0.34831   0.82109   0.78467   0.00000  Uiso   1.00
N43    N     0.58493   0.08861   0.71743   0.00000  Uiso   1.00
N44    N     0.17569   0.15923   0.08285   0.00000  Uiso   1.00
N45    N     0.23493   0.90136   0.78220   0.00000  Uiso   1.00
N46    N     0.47155   0.16888   0.71496   0.00000  Uiso   1.00
C47    C     0.77637   0.26502   0.86133   0.00000  Uiso   1.00
C48    C     0.73762   0.25990   0.92600   0.00000  Uiso   1.00
C49    C     0.72627   0.29990   0.97444   0.00000  Uiso   1.00
C50    C     0.68969   0.28728   0.03000   0.00000  Uiso   1.00
C51    C     0.63328   0.28704   0.12939   0.00000  Uiso   1.00
C52    C     0.84947   0.19568   0.82937   0.00000  Uiso   1.00
C53    C     0.93216   0.18168   0.79656   0.00000  Uiso   1.00
C54    C     0.98973   0.11500   0.77078   0.00000  Uiso   1.00
C55    C     0.10694   0.01506   0.72011   0.00000  Uiso   1.00
C56    C     0.71132   0.27537   0.83719   0.00000  Uiso   1.00
C57    C     0.67787   0.32836   0.81094   0.00000  Uiso   1.00
C58    C     0.61914   0.32877   0.79173   0.00000  Uiso   1.00
C59    C     0.52186   0.35256   0.75320   0.00000  Uiso   1.00
C60    C     0.73159   0.17149   0.87386   0.00000  Uiso   1.00
C61    C     0.71331   0.20910   0.93281   0.00000  Uiso   1.00
C62    C     0.67673   0.19642   0.98831   0.00000  Uiso   1.00
C63    C     0.66532   0.23639   0.03682   0.00000  Uiso   1.00
C64    C     0.82515   0.14488   0.83618   0.00000  Uiso   1.00
C65    C     0.88261   0.07820   0.81043   0.00000  Uiso   1.00
C66    C     0.96536   0.06410   0.77759   0.00000  Uiso   1.00
C67    C     0.68700   0.22457   0.84400   0.00000  Uiso   1.00
C68    C     0.62832   0.22489   0.82481   0.00000  Uiso   1.00
C69    C     0.59478   0.27787   0.79854   0.00000  Uiso   1.00
H70    H     0.79531   0.30456   0.85602   0.00000  Uiso   1.00
H71    H     0.74511   0.33920   0.96915   0.00000  Uiso   1.00
H72    H     0.95096   0.22100   0.79130   0.00000  Uiso   1.00
H73    H     0.69670   0.36767   0.80568   0.00000  Uiso   1.00
H74    H     0.67876   0.35519   0.09758   0.00000  Uiso   1.00
H75    H     0.11279   0.10596   0.72255   0.00000  Uiso   1.00
H76    H     0.57665   0.41523   0.75287   0.00000  Uiso   1.00
H77    H     0.71265   0.13193   0.87916   0.00000  Uiso   1.00
H78    H     0.65792   0.15710   0.99356   0.00000  Uiso   1.00
H79    H     0.86377   0.03890   0.81571   0.00000  Uiso   1.00
H80    H     0.60951   0.18557   0.83009   0.00000  Uiso   1.00
H81    H     0.60800   0.20739   0.11739   0.00000  Uiso   1.00
H82    H     0.04203   0.95816   0.74235   0.00000  Uiso   1.00
H83    H     0.50589   0.26743   0.77268   0.00000  Uiso   1.00
O84    O     0.60889   0.30094   0.18233   0.00000  Uiso   1.00
O85    O     0.17832   0.97397   0.69028   0.00000  Uiso   1.00
O86    O     0.47491   0.37973   0.73008   0.00000  Uiso   1.00
N87    N     0.66960   0.31696   0.08654   0.00000  Uiso   1.00
N88    N     0.07540   0.08394   0.73592   0.00000  Uiso   1.00
N89    N     0.57417   0.37307   0.76426   0.00000  Uiso   1.00
N90    N     0.63152   0.23743   0.09720   0.00000  Uiso   1.00
N91    N     0.03732   0.00441   0.74658   0.00000  Uiso   1.00
N92    N     0.53609   0.29355   0.77491   0.00000  Uiso   1.00
C93    C     0.03461   0.60634   0.88499   0.00000  Uiso   1.00
C94    C     0.03395   0.61432   0.94626   0.00000  Uiso   1.00
C95    C     0.96885   0.62275   0.99961   0.00000  Uiso   1.00
C96    C     0.98038   0.62916   0.05085   0.00000  Uiso   1.00
C97    C     0.96808   0.64188   0.14631   0.00000  Uiso   1.00
C98    C     0.05120   0.66175   0.85688   0.00000  Uiso   1.00
C99    C     0.00060   0.71006   0.83509   0.00000  Uiso   1.00
C100   C     0.02667   0.75639   0.81108   0.00000  Uiso   1.00
C101   C     0.04118   0.84273   0.76775   0.00000  Uiso   1.00
C102   C     0.11207   0.54048   0.84916   0.00000  Uiso   1.00
C103   C     0.11265   0.48681   0.82085   0.00000  Uiso   1.00
C104   C     0.18996   0.43104   0.79033   0.00000  Uiso   1.00
C105   C     0.29897   0.32908   0.73500   0.00000  Uiso   1.00
C106   C     0.17089   0.60273   0.88110   0.00000  Uiso   1.00
C107   C     0.10797   0.61236   0.94415   0.00000  Uiso   1.00
C108   C     0.11961   0.61875   0.99532   0.00000  Uiso   1.00
C109   C     0.05453   0.62719   0.04874   0.00000  Uiso   1.00
C110   C     0.12522   0.65979   0.85477   0.00000  Uiso   1.00
C111   C     0.15137   0.70606   0.83079   0.00000  Uiso   1.00
C112   C     0.10082   0.75443   0.80897   0.00000  Uiso   1.00
C113   C     0.18608   0.53851   0.84705   0.00000  Uiso   1.00
C114   C     0.26342   0.48282   0.81656   0.00000  Uiso   1.00
C115   C     0.26411   0.42908   0.78822   0.00000  Uiso   1.00
H116   H     0.97699   0.60787   0.88663   0.00000  Uiso   1.00
H117   H     0.91157   0.62427   0.00123   0.00000  Uiso   1.00
H118   H     0.94333   0.71156   0.83672   0.00000  Uiso   1.00
H119   H     0.05536   0.48835   0.82250   0.00000  Uiso   1.00
H120   H     0.87167   0.64162   0.12735   0.00000  Uiso   1.00
H121   H     0.93866   0.82566   0.78047   0.00000  Uiso   1.00
H122   H     0.17488   0.35497   0.75046   0.00000  Uiso   1.00
H123   H     0.22851   0.60120   0.87946   0.00000  Uiso   1.00
H124   H     0.17690   0.61723   0.99367   0.00000  Uiso   1.00
H125   H     0.20866   0.70453   0.82916   0.00000  Uiso   1.00
H126   H     0.32068   0.48131   0.81494   0.00000  Uiso   1.00
H127   H     0.08702   0.63591   0.12122   0.00000  Uiso   1.00
H128   H     0.15401   0.81995   0.77433   0.00000  Uiso   1.00
H129   H     0.39023   0.34926   0.74433   0.00000  Uiso   1.00
O130   O     0.94084   0.64945   0.19955   0.00000  Uiso   1.00
O131   O     0.02873   0.89090   0.74444   0.00000  Uiso   1.00
O132   O     0.33865   0.27337   0.70508   0.00000  Uiso   1.00
N133   N     0.92945   0.63806   0.11024   0.00000  Uiso   1.00
N134   N     0.99206   0.81013   0.78593   0.00000  Uiso   1.00
N135   N     0.21292   0.37009   0.75786   0.00000  Uiso   1.00
N136   N     0.04532   0.63498   0.10693   0.00000  Uiso   1.00
N137   N     0.10794   0.80706   0.78263   0.00000  Uiso   1.00
N138   N     0.32880   0.36701   0.75456   0.00000  Uiso   1.00
C139   C     0.81974   0.34200   0.37477   0.00000  Uiso   1.00
C140   C     0.78033   0.37943   0.43849   0.00000  Uiso   1.00
C141   C     0.76515   0.35150   0.48875   0.00000  Uiso   1.00
C142   C     0.72862   0.39415   0.54302   0.00000  Uiso   1.00
C143   C     0.67059   0.44191   0.64138   0.00000  Uiso   1.00
C144   C     0.89574   0.35324   0.34206   0.00000  Uiso   1.00
C145   C     0.97760   0.30328   0.31124   0.00000  Uiso   1.00
C146   C     0.03821   0.32388   0.28432   0.00000  Uiso   1.00
C147   C     0.15935   0.33097   0.23294   0.00000  Uiso   1.00
C148   C     0.75720   0.37927   0.34856   0.00000  Uiso   1.00
C149   C     0.72258   0.35119   0.32318   0.00000  Uiso   1.00
C150   C     0.66657   0.39370   0.30171   0.00000  Uiso   1.00
C151   C     0.57261   0.44121   0.26041   0.00000  Uiso   1.00
C152   C     0.78185   0.46741   0.38177   0.00000  Uiso   1.00
C153   C     0.75975   0.44755   0.44229   0.00000  Uiso   1.00
C154   C     0.72322   0.49026   0.49650   0.00000  Uiso   1.00
C155   C     0.70799   0.46239   0.54683   0.00000  Uiso   1.00
C156   C     0.87516   0.42136   0.34586   0.00000  Uiso   1.00
C157   C     0.93567   0.44204   0.31898   0.00000  Uiso   1.00
C158   C     0.01760   0.39213   0.28813   0.00000  Uiso   1.00
C159   C     0.73662   0.44739   0.35236   0.00000  Uiso   1.00
C160   C     0.68065   0.48995   0.33092   0.00000  Uiso   1.00
C161   C     0.64595   0.46195   0.30552   0.00000  Uiso   1.00
H162   H     0.83577   0.28896   0.37181   0.00000  Uiso   1.00
H163   H     0.78109   0.29878   0.48579   0.00000  Uiso   1.00
H164   H     0.99350   0.25057   0.30830   0.00000  Uiso   1.00
H165   H     0.73853   0.29847   0.32024   0.00000  Uiso   1.00
H166   H     0.71143   0.33970   0.61384   0.00000  Uiso   1.00
H167   H     0.15930   0.23805   0.23957   0.00000  Uiso   1.00
H168   H     0.62163   0.33906   0.26475   0.00000  Uiso   1.00
H169   H     0.76583   0.52045   0.38473   0.00000  Uiso   1.00
H170   H     0.70730   0.54297   0.49942   0.00000  Uiso   1.00
H171   H     0.91972   0.49476   0.32193   0.00000  Uiso   1.00
H172   H     0.66474   0.54266   0.33387   0.00000  Uiso   1.00
H173   H     0.65154   0.53789   0.62490   0.00000  Uiso   1.00
H174   H     0.09941   0.43624   0.25063   0.00000  Uiso   1.00
H175   H     0.56174   0.53726   0.27581   0.00000  Uiso   1.00
O176   O     0.64427   0.44943   0.69459   0.00000  Uiso   1.00
O177   O     0.23186   0.31606   0.20355   0.00000  Uiso   1.00
O178   O     0.52645   0.44859   0.23659   0.00000  Uiso   1.00
N179   N     0.70535   0.38325   0.60070   0.00000  Uiso   1.00
N180   N     0.12408   0.28822   0.25079   0.00000  Uiso   1.00
N181   N     0.62143   0.38265   0.27432   0.00000  Uiso   1.00
N182   N     0.67312   0.48990   0.60666   0.00000  Uiso   1.00
N183   N     0.09186   0.39486   0.25675   0.00000  Uiso   1.00
N184   N     0.58920   0.48930   0.28027   0.00000  Uiso   1.00
C185   C     0.96714   0.82831   0.39994   0.00000  Uiso   1.00
C186   C     0.93221   0.82996   0.46647   0.00000  Uiso   1.00
C187   C     0.84938   0.86824   0.50655   0.00000  Uiso   1.00
C188   C     0.82999   0.86271   0.56553   0.00000  Uiso   1.00
C189   C     0.76641   0.87169   0.66606   0.00000  Uiso   1.00
C190   C     0.00839   0.75496   0.37006   0.00000  Uiso   1.00
C191   C     0.98962   0.73018   0.32907   0.00000  Uiso   1.00
C192   C     0.03437   0.66151   0.30689   0.00000  Uiso   1.00
C193   C     0.08911   0.55405   0.25771   0.00000  Uiso   1.00
C194   C     0.03817   0.84662   0.38623   0.00000  Uiso   1.00
C195   C     0.04445   0.89890   0.35882   0.00000  Uiso   1.00
C196   C     0.11428   0.90740   0.35024   0.00000  Uiso   1.00
C197   C     0.21525   0.94226   0.32617   0.00000  Uiso   1.00
C198   C     0.08000   0.75042   0.43341   0.00000  Uiso   1.00
C199   C     0.99351   0.78766   0.48464   0.00000  Uiso   1.00
C200   C     0.97424   0.78207   0.54358   0.00000  Uiso   1.00
C201   C     0.89140   0.82033   0.58374   0.00000  Uiso   1.00
C202   C     0.06969   0.71265   0.38823   0.00000  Uiso   1.00
C203   C     0.11448   0.64401   0.36610   0.00000  Uiso   1.00
C204   C     0.09578   0.61913   0.32510   0.00000  Uiso   1.00
C205   C     0.09947   0.80432   0.40441   0.00000  Uiso   1.00
C206   C     0.16931   0.81273   0.39586   0.00000  Uiso   1.00
C207   C     0.17569   0.86501   0.36845   0.00000  Uiso   1.00
H208   H     0.91942   0.86124   0.38578   0.00000  Uiso   1.00
H209   H     0.80196   0.90097   0.49246   0.00000  Uiso   1.00
H210   H     0.94219   0.76293   0.31500   0.00000  Uiso   1.00
H211   H     0.99700   0.93163   0.34476   0.00000  Uiso   1.00
H212   H     0.69875   0.92634   0.61874   0.00000  Uiso   1.00
H213   H     0.99445   0.63528   0.24456   0.00000  Uiso   1.00
H214   H     0.11004   0.99101   0.30730   0.00000  Uiso   1.00
H215   H     0.12773   0.71749   0.44756   0.00000  Uiso   1.00
H216   H     0.02169   0.74933   0.55764   0.00000  Uiso   1.00
H217   H     0.16192   0.61129   0.38018   0.00000  Uiso   1.00
H218   H     0.21673   0.77998   0.40994   0.00000  Uiso   1.00
H219   H     0.87710   0.80326   0.67164   0.00000  Uiso   1.00
H220   H     0.17279   0.51220   0.29746   0.00000  Uiso   1.00
H221   H     0.28838   0.86793   0.36020   0.00000  Uiso   1.00
O222   O     0.71441   0.88832   0.71648   0.00000  Uiso   1.00
O223   O     0.10236   0.50646   0.22556   0.00000  Uiso   1.00
O224   O     0.25400   0.97318   0.30788   0.00000  Uiso   1.00
N225   N     0.75528   0.89301   0.61609   0.00000  Uiso   1.00
N226   N     0.03173   0.62088   0.26626   0.00000  Uiso   1.00
N227   N     0.13981   0.95346   0.32490   0.00000  Uiso   1.00
N228   N     0.85125   0.82679   0.64456   0.00000  Uiso   1.00
N229   N     0.12770   0.55466   0.29472   0.00000  Uiso   1.00
N230   N     0.23577   0.88723   0.35337   0.00000  Uiso   1.00
C231   C     0.46173   0.25629   0.38758   0.00000  Uiso   1.00
C232   C     0.38377   0.27282   0.44423   0.00000  Uiso   1.00
C233   C     0.36373   0.30735   0.49879   0.00000  Uiso   1.00
C234   C     0.28956   0.31740   0.54518   0.00000  Uiso   1.00
C235   C     0.17643   0.34669   0.63434   0.00000  Uiso   1.00
C236   C     0.43016   0.28593   0.34125   0.00000  Uiso   1.00
C237   C     0.44913   0.33147   0.30923   0.00000  Uiso   1.00
C238   C     0.41402   0.35255   0.26893   0.00000  Uiso   1.00
C239   C     0.37296   0.40216   0.19820   0.00000  Uiso   1.00
C240   C     0.50541   0.18029   0.36722   0.00000  Uiso   1.00
C241   C     0.58767   0.13702   0.35701   0.00000  Uiso   1.00
C242   C     0.61592   0.06917   0.33856   0.00000  Uiso   1.00
C243   C     0.69169   0.95476   0.30813   0.00000  Uiso   1.00
C244   C     0.36565   0.21275   0.37293   0.00000  Uiso   1.00
C245   C     0.33158   0.24917   0.43627   0.00000  Uiso   1.00
C246   C     0.25743   0.25917   0.48259   0.00000  Uiso   1.00
C247   C     0.23728   0.29371   0.53721   0.00000  Uiso   1.00
C248   C     0.37797   0.26228   0.33330   0.00000  Uiso   1.00
C249   C     0.34283   0.28329   0.29303   0.00000  Uiso   1.00
C250   C     0.36174   0.32886   0.26096   0.00000  Uiso   1.00
C251   C     0.45322   0.15664   0.35926   0.00000  Uiso   1.00
C252   C     0.48136   0.08884   0.34081   0.00000  Uiso   1.00
C253   C     0.56363   0.04548   0.33058   0.00000  Uiso   1.00
H254   H     0.50236   0.27471   0.39377   0.00000  Uiso   1.00
H255   H     0.40413   0.32565   0.50493   0.00000  Uiso   1.00
H256   H     0.48953   0.34976   0.31540   0.00000  Uiso   1.00
H257   H     0.62803   0.15534   0.36317   0.00000  Uiso   1.00
H258   H     0.27220   0.37172   0.62465   0.00000  Uiso   1.00
H259   H     0.45228   0.42254   0.22501   0.00000  Uiso   1.00
H260   H     0.74435   0.01257   0.32575   0.00000  Uiso   1.00
H261   H     0.32502   0.19433   0.36674   0.00000  Uiso   1.00
H262   H     0.21705   0.24086   0.47642   0.00000  Uiso   1.00
H263   H     0.30245   0.26498   0.28688   0.00000  Uiso   1.00
H264   H     0.44095   0.07056   0.33466   0.00000  Uiso   1.00
H265   H     0.12035   0.30290   0.60151   0.00000  Uiso   1.00
H266   H     0.30044   0.35373   0.20186   0.00000  Uiso   1.00
H267   H     0.59251   0.94376   0.30260   0.00000  Uiso   1.00
O268   O     0.12844   0.36939   0.68572   0.00000  Uiso   1.00
O269   O     0.36472   0.43606   0.16138   0.00000  Uiso   1.00
O270   O     0.74790   0.89819   0.29356   0.00000  Uiso   1.00
N271   N     0.25128   0.34912   0.60416   0.00000  Uiso   1.00
N272   N     0.41964   0.39665   0.23052   0.00000  Uiso   1.00
N273   N     0.69271   0.01337   0.32469   0.00000  Uiso   1.00
N274   N     0.16958   0.31210   0.59171   0.00000  Uiso   1.00
N275   N     0.33794   0.35962   0.21806   0.00000  Uiso   1.00
N276   N     0.61100   0.97634   0.31223   0.00000  Uiso   1.00
C277   C     0.58258   0.01082   0.13729   0.00000  Uiso   1.00
C278   C     0.64566   0.96645   0.07654   0.00000  Uiso   1.00
C279   C     0.63554   0.97387   0.02409   0.00000  Uiso   1.00
C280   C     0.70049   0.92814   0.97321   0.00000  Uiso   1.00
C281   C     0.78743   0.86707   0.87864   0.00000  Uiso   1.00
C282   C     0.62934   0.03753   0.15940   0.00000  Uiso   1.00
C283   C     0.60549   0.10470   0.17661   0.00000  Uiso   1.00
C284   C     0.65670   0.11880   0.19548   0.00000  Uiso   1.00
C285   C     0.71827   0.16807   0.22959   0.00000  Uiso   1.00
C286   C     0.56413   0.96379   0.17792   0.00000  Uiso   1.00
C287   C     0.48545   0.96898   0.21072   0.00000  Uiso   1.00
C288   C     0.48175   0.92101   0.24520   0.00000  Uiso   1.00
C289   C     0.44207   0.85581   0.30806   0.00000  Uiso   1.00
C290   C     0.71592   0.91642   0.14020   0.00000  Uiso   1.00
C291   C     0.71808   0.91518   0.07813   0.00000  Uiso   1.00
C292   C     0.78306   0.86943   0.02731   0.00000  Uiso   1.00
C293   C     0.77304   0.87677   0.97479   0.00000  Uiso   1.00
C294   C     0.70176   0.98626   0.16098   0.00000  Uiso   1.00
C295   C     0.75301   0.00026   0.17983   0.00000  Uiso   1.00
C296   C     0.72925   0.06744   0.19707   0.00000  Uiso   1.00
C297   C     0.63655   0.91252   0.17950   0.00000  Uiso   1.00
C298   C     0.63297   0.86454   0.21394   0.00000  Uiso   1.00
C299   C     0.55430   0.86965   0.24678   0.00000  Uiso   1.00
H300   H     0.52620   0.05074   0.13606   0.00000  Uiso   1.00
H301   H     0.57949   0.01356   0.02288   0.00000  Uiso   1.00
H302   H     0.54944   0.14436   0.17539   0.00000  Uiso   1.00
H303   H     0.42942   0.00866   0.20949   0.00000  Uiso   1.00
H304   H     0.67052   0.94974   0.89810   0.00000  Uiso   1.00
H305   H     0.60715   0.22555   0.21968   0.00000  Uiso   1.00
H306   H     0.35406   0.93941   0.29159   0.00000  Uiso   1.00
H307   H     0.77230   0.87650   0.14143   0.00000  Uiso   1.00
H308   H     0.83909   0.82976   0.02855   0.00000  Uiso   1.00
H309   H     0.80904   0.96057   0.18105   0.00000  Uiso   1.00
H310   H     0.68902   0.82487   0.21515   0.00000  Uiso   1.00
H311   H     0.88122   0.80056   0.90270   0.00000  Uiso   1.00
H312   H     0.81785   0.07638   0.22428   0.00000  Uiso   1.00
H313   H     0.56476   0.79023   0.29619   0.00000  Uiso   1.00
O314   O     0.81538   0.84756   0.82604   0.00000  Uiso   1.00
O315   O     0.73223   0.20942   0.24796   0.00000  Uiso   1.00
O316   O     0.40018   0.83400   0.34229   0.00000  Uiso   1.00
N317   N     0.71093   0.92104   0.91468   0.00000  Uiso   1.00
N318   N     0.65169   0.17891   0.21533   0.00000  Uiso   1.00
N319   N     0.41507   0.91139   0.28257   0.00000  Uiso   1.00
N320   N     0.82431   0.84077   0.91715   0.00000  Uiso   1.00
N321   N     0.76507   0.09864   0.21780   0.00000  Uiso   1.00
N322   N     0.52845   0.83112   0.28504   0.00000  Uiso   1.00
C323   C     0.22363   0.73498   0.13867   0.00000  Uiso   1.00
C324   C     0.26238   0.74010   0.07400   0.00000  Uiso   1.00
C325   C     0.27373   0.70010   0.02556   0.00000  Uiso   1.00
C326   C     0.31031   0.71272   0.97000   0.00000  Uiso   1.00
C327   C     0.36672   0.71296   0.87061   0.00000  Uiso   1.00
C328   C     0.15053   0.80432   0.17063   0.00000  Uiso   1.00
C329   C     0.06784   0.81832   0.20344   0.00000  Uiso   1.00
C330   C     0.01027   0.88500   0.22922   0.00000  Uiso   1.00
C331   C     0.89306   0.98494   0.27989   0.00000  Uiso   1.00
C332   C     0.28868   0.72463   0.16281   0.00000  Uiso   1.00
C333   C     0.32213   0.67164   0.18906   0.00000  Uiso   1.00
C334   C     0.38086   0.67123   0.20827   0.00000  Uiso   1.00
C335   C     0.47814   0.64744   0.24680   0.00000  Uiso   1.00
C336   C     0.26841   0.82851   0.12614   0.00000  Uiso   1.00
C337   C     0.28669   0.79090   0.06719   0.00000  Uiso   1.00
C338   C     0.32327   0.80358   0.01169   0.00000  Uiso   1.00
C339   C     0.33468   0.76361   0.96318   0.00000  Uiso   1.00
C340   C     0.17485   0.85512   0.16382   0.00000  Uiso   1.00
C341   C     0.11739   0.92180   0.18957   0.00000  Uiso   1.00
C342   C     0.03464   0.93590   0.22241   0.00000  Uiso   1.00
C343   C     0.31300   0.77543   0.15600   0.00000  Uiso   1.00
C344   C     0.37168   0.77511   0.17519   0.00000  Uiso   1.00
C345   C     0.40522   0.72213   0.20146   0.00000  Uiso   1.00
H346   H     0.20469   0.69544   0.14398   0.00000  Uiso   1.00
H347   H     0.25489   0.66080   0.03085   0.00000  Uiso   1.00
H348   H     0.04904   0.77900   0.20870   0.00000  Uiso   1.00
H349   H     0.30330   0.63233   0.19432   0.00000  Uiso   1.00
H350   H     0.32124   0.64481   0.90242   0.00000  Uiso   1.00
H351   H     0.88721   0.89404   0.27745   0.00000  Uiso   1.00
H352   H     0.42335   0.58477   0.24713   0.00000  Uiso   1.00
H353   H     0.28735   0.86807   0.12084   0.00000  Uiso   1.00
H354   H     0.34208   0.84290   0.00644   0.00000  Uiso   1.00
H355   H     0.13623   0.96110   0.18429   0.00000  Uiso   1.00
H356   H     0.39049   0.81443   0.16991   0.00000  Uiso   1.00
H357   H     0.39200   0.79261   0.88261   0.00000  Uiso   1.00
H358   H     0.95797   0.04184   0.25765   0.00000  Uiso   1.00
H359   H     0.49411   0.73257   0.22732   0.00000  Uiso   1.00
O360   O     0.39111   0.69906   0.81767   0.00000  Uiso   1.00
O361   O     0.82168   0.02603   0.30972   0.00000  Uiso   1.00
O362   O     0.52509   0.62027   0.26992   0.00000  Uiso   1.00
N363   N     0.33040   0.68304   0.91346   0.00000  Uiso   1.00
N364   N     0.92460   0.91606   0.26408   0.00000  Uiso   1.00
N365   N     0.42583   0.62693   0.23574   0.00000  Uiso   1.00
N366   N     0.36848   0.76257   0.90280   0.00000  Uiso   1.00
N367   N     0.96268   0.99559   0.25342   0.00000  Uiso   1.00
N368   N     0.46391   0.70645   0.22509   0.00000  Uiso   1.00
C369   C     0.96539   0.39366   0.11501   0.00000  Uiso   1.00
C370   C     0.96605   0.38568   0.05374   0.00000  Uiso   1.00
C371   C     0.03115   0.37725   0.00039   0.00000  Uiso   1.00
C372   C     0.01962   0.37084   0.94915   0.00000  Uiso   1.00
C373   C     0.03192   0.35812   0.85369   0.00000  Uiso   1.00
C374   C     0.94880   0.33825   0.14312   0.00000  Uiso   1.00
C375   C     0.99940   0.28994   0.16491   0.00000  Uiso   1.00
C376   C     0.97333   0.24361   0.18892   0.00000  Uiso   1.00
C377   C     0.95882   0.15727   0.23225   0.00000  Uiso   1.00
C378   C     0.88793   0.45952   0.15084   0.00000  Uiso   1.00
C379   C     0.88735   0.51319   0.17915   0.00000  Uiso   1.00
C380   C     0.81004   0.56896   0.20967   0.00000  Uiso   1.00
C381   C     0.70103   0.67092   0.26500   0.00000  Uiso   1.00
C382   C     0.82911   0.39727   0.11890   0.00000  Uiso   1.00
C383   C     0.89203   0.38764   0.05585   0.00000  Uiso   1.00
C384   C     0.88039   0.38125   0.00468   0.00000  Uiso   1.00
C385   C     0.94547   0.37281   0.95126   0.00000  Uiso   1.00
C386   C     0.87478   0.34021   0.14523   0.00000  Uiso   1.00
C387   C     0.84863   0.29394   0.16921   0.00000  Uiso   1.00
C388   C     0.89918   0.24557   0.19103   0.00000  Uiso   1.00
C389   C     0.81392   0.46149   0.15295   0.00000  Uiso   1.00
C390   C     0.73658   0.51718   0.18344   0.00000  Uiso   1.00
C391   C     0.73589   0.57092   0.21178   0.00000  Uiso   1.00
H392   H     0.02301   0.39213   0.11337   0.00000  Uiso   1.00
H393   H     0.08843   0.37573   0.99877   0.00000  Uiso   1.00
H394   H     0.05667   0.28844   0.16328   0.00000  Uiso   1.00
H395   H     0.94464   0.51165   0.17750   0.00000  Uiso   1.00
H396   H     0.12833   0.35838   0.87265   0.00000  Uiso   1.00
H397   H     0.06134   0.17434   0.21953   0.00000  Uiso   1.00
H398   H     0.82512   0.64503   0.24954   0.00000  Uiso   1.00
H399   H     0.77149   0.39880   0.12054   0.00000  Uiso   1.00
H400   H     0.82310   0.38277   0.00633   0.00000  Uiso   1.00
H401   H     0.79134   0.29547   0.17084   0.00000  Uiso   1.00
H402   H     0.67932   0.51869   0.18506   0.00000  Uiso   1.00
H403   H     0.91298   0.36409   0.87878   0.00000  Uiso   1.00
H404   H     0.84599   0.18005   0.22567   0.00000  Uiso   1.00
H405   H     0.60977   0.65074   0.25567   0.00000  Uiso   1.00
O406   O     0.05916   0.35055   0.80045   0.00000  Uiso   1.00
O407   O     0.97127   0.10910   0.25556   0.00000  Uiso   1.00
O408   O     0.66135   0.72663   0.29492   0.00000  Uiso   1.00
N409   N     0.07055   0.36194   0.88976   0.00000  Uiso   1.00
N410   N     0.00794   0.18987   0.21407   0.00000  Uiso   1.00
N411   N     0.78708   0.62991   0.24214   0.00000  Uiso   1.00
N412   N     0.95468   0.36502   0.89307   0.00000  Uiso   1.00
N413   N     0.89206   0.19294   0.21737   0.00000  Uiso   1.00
N414   N     0.67120   0.63299   0.24544   0.00000  Uiso   1.00
C415   C     0.18026   0.65800   0.62523   0.00000  Uiso   1.00
C416   C     0.21967   0.62057   0.56151   0.00000  Uiso   1.00
C417   C     0.23485   0.64850   0.51125   0.00000  Uiso   1.00
C418   C     0.27138   0.60585   0.45698   0.00000  Uiso   1.00
C419   C     0.32941   0.55809   0.35862   0.00000  Uiso   1.00
C420   C     0.10426   0.64676   0.65794   0.00000  Uiso   1.00
C421   C     0.02240   0.69672   0.68876   0.00000  Uiso   1.00
C422   C     0.96179   0.67612   0.71568   0.00000  Uiso   1.00
C423   C     0.84065   0.66903   0.76706   0.00000  Uiso   1.00
C424   C     0.24280   0.62073   0.65144   0.00000  Uiso   1.00
C425   C     0.27742   0.64881   0.67682   0.00000  Uiso   1.00
C426   C     0.33343   0.60630   0.69829   0.00000  Uiso   1.00
C427   C     0.42739   0.55879   0.73959   0.00000  Uiso   1.00
C428   C     0.21815   0.53259   0.61823   0.00000  Uiso   1.00
C429   C     0.24025   0.55245   0.55771   0.00000  Uiso   1.00
C430   C     0.27678   0.50974   0.50350   0.00000  Uiso   1.00
C431   C     0.29201   0.53761   0.45317   0.00000  Uiso   1.00
C432   C     0.12484   0.57864   0.65414   0.00000  Uiso   1.00
C433   C     0.06433   0.55796   0.68102   0.00000  Uiso   1.00
C434   C     0.98240   0.60787   0.71187   0.00000  Uiso   1.00
C435   C     0.26338   0.55261   0.64764   0.00000  Uiso   1.00
C436   C     0.31935   0.51005   0.66908   0.00000  Uiso   1.00
C437   C     0.35405   0.53805   0.69448   0.00000  Uiso   1.00
H438   H     0.16423   0.71104   0.62819   0.00000  Uiso   1.00
H439   H     0.21891   0.70122   0.51421   0.00000  Uiso   1.00
H440   H     0.00650   0.74943   0.69170   0.00000  Uiso   1.00
H441   H     0.26147   0.70153   0.67976   0.00000  Uiso   1.00
H442   H     0.28857   0.66030   0.38616   0.00000  Uiso   1.00
H443   H     0.84070   0.76195   0.76043   0.00000  Uiso   1.00
H444   H     0.37837   0.66094   0.73525   0.00000  Uiso   1.00
H445   H     0.23417   0.47955   0.61527   0.00000  Uiso   1.00
H446   H     0.29270   0.45703   0.50058   0.00000  Uiso   1.00
H447   H     0.08028   0.50524   0.67807   0.00000  Uiso   1.00
H448   H     0.33526   0.45734   0.66613   0.00000  Uiso   1.00
H449   H     0.34846   0.46211   0.37510   0.00000  Uiso   1.00
H450   H     0.90059   0.56376   0.74937   0.00000  Uiso   1.00
H451   H     0.43826   0.46274   0.72419   0.00000  Uiso   1.00
O452   O     0.35573   0.55057   0.30541   0.00000  Uiso   1.00
O453   O     0.76814   0.68394   0.79645   0.00000  Uiso   1.00
O454   O     0.47355   0.55141   0.76341   0.00000  Uiso   1.00
N455   N     0.29465   0.61675   0.39930   0.00000  Uiso   1.00
N456   N     0.87592   0.71178   0.74921   0.00000  Uiso   1.00
N457   N     0.37857   0.61735   0.72568   0.00000  Uiso   1.00
N458   N     0.32688   0.51010   0.39334   0.00000  Uiso   1.00
N459   N     0.90814   0.60514   0.74325   0.00000  Uiso   1.00
N460   N     0.41080   0.51070   0.71973   0.00000  Uiso   1.00
C461   C     0.03286   0.17169   0.60006   0.00000  Uiso   1.00
C462   C     0.06779   0.17004   0.53353   0.00000  Uiso   1.00
C463   C     0.15062   0.13176   0.49345   0.00000  Uiso   1.00
C464   C     0.17001   0.13729   0.43447   0.00000  Uiso   1.00
C465   C     0.23359   0.12831   0.33394   0.00000  Uiso   1.00
C466   C     0.99161   0.24504   0.62994   0.00000  Uiso   1.00
C467   C     0.01038   0.26982   0.67093   0.00000  Uiso   1.00
C468   C     0.96563   0.33849   0.69311   0.00000  Uiso   1.00
C469   C     0.91089   0.44595   0.74229   0.00000  Uiso   1.00
C470   C     0.96183   0.15338   0.61377   0.00000  Uiso   1.00
C471   C     0.95555   0.10110   0.64118   0.00000  Uiso   1.00
C472   C     0.88572   0.09260   0.64976   0.00000  Uiso   1.00
C473   C     0.78475   0.05774   0.67383   0.00000  Uiso   1.00
C474   C     0.92000   0.24958   0.56659   0.00000  Uiso   1.00
C475   C     0.00649   0.21234   0.51536   0.00000  Uiso   1.00
C476   C     0.02576   0.21793   0.45642   0.00000  Uiso   1.00
C477   C     0.10860   0.17967   0.41626   0.00000  Uiso   1.00
C478   C     0.93031   0.28735   0.61177   0.00000  Uiso   1.00
C479   C     0.88552   0.35599   0.63390   0.00000  Uiso   1.00
C480   C     0.90422   0.38087   0.67490   0.00000  Uiso   1.00
C481   C     0.90053   0.19568   0.59559   0.00000  Uiso   1.00
C482   C     0.83069   0.18727   0.60414   0.00000  Uiso   1.00
C483   C     0.82431   0.13499   0.63155   0.00000  Uiso   1.00
H484   H     0.08058   0.13876   0.61422   0.00000  Uiso   1.00
H485   H     0.19804   0.09903   0.50754   0.00000  Uiso   1.00
H486   H     0.05781   0.23707   0.68500   0.00000  Uiso   1.00
H487   H     0.00300   0.06837   0.65524   0.00000  Uiso   1.00
H488   H     0.30125   0.07366   0.38126   0.00000  Uiso   1.00
H489   H     0.00555   0.36472   0.75544   0.00000  Uiso   1.00
H490   H     0.88996   0.00899   0.69270   0.00000  Uiso   1.00
H491   H     0.87227   0.28251   0.55244   0.00000  Uiso   1.00
H492   H     0.97831   0.25067   0.44236   0.00000  Uiso   1.00
H493   H     0.83808   0.38871   0.61982   0.00000  Uiso   1.00
H494   H     0.78327   0.22002   0.59006   0.00000  Uiso   1.00
H495   H     0.12290   0.19674   0.32836   0.00000  Uiso   1.00
H496   H     0.82721   0.48780   0.70254   0.00000  Uiso   1.00
H497   H     0.71162   0.13207   0.63980   0.00000  Uiso   1.00
O498   O     0.28559   0.11168   0.28352   0.00000  Uiso   1.00
O499   O     0.89764   0.49354   0.77444   0.00000  Uiso   1.00
O500   O     0.74600   0.02682   0.69212   0.00000  Uiso   1.00
N501   N     0.24472   0.10699   0.38391   0.00000  Uiso   1.00
N502   N     0.96827   0.37912   0.73374   0.00000  Uiso   1.00
N503   N     0.86019   0.04654   0.67510   0.00000  Uiso   1.00
N504   N     0.14875   0.17321   0.35544   0.00000  Uiso   1.00
N505   N     0.87230   0.44534   0.70528   0.00000  Uiso   1.00
N506   N     0.76423   0.11277   0.64663   0.00000  Uiso   1.00
C507   C     0.53827   0.74371   0.61242   0.00000  Uiso   1.00
C508   C     0.61623   0.72718   0.55577   0.00000  Uiso   1.00
C509   C     0.63627   0.69265   0.50121   0.00000  Uiso   1.00
C510   C     0.71044   0.68260   0.45482   0.00000  Uiso   1.00
C511   C     0.82357   0.65331   0.36566   0.00000  Uiso   1.00
C512   C     0.56984   0.71407   0.65875   0.00000  Uiso   1.00
C513   C     0.55087   0.66853   0.69077   0.00000  Uiso   1.00
C514   C     0.58598   0.64745   0.73107   0.00000  Uiso   1.00
C515   C     0.62704   0.59784   0.80180   0.00000  Uiso   1.00
C516   C     0.49459   0.81971   0.63278   0.00000  Uiso   1.00
C517   C     0.41233   0.86298   0.64299   0.00000  Uiso   1.00
C518   C     0.38408   0.93083   0.66144   0.00000  Uiso   1.00
C519   C     0.30831   0.04524   0.69187   0.00000  Uiso   1.00
C520   C     0.63435   0.78725   0.62707   0.00000  Uiso   1.00
C521   C     0.66842   0.75083   0.56373   0.00000  Uiso   1.00
C522   C     0.74257   0.74083   0.51741   0.00000  Uiso   1.00
C523   C     0.76272   0.70629   0.46279   0.00000  Uiso   1.00
C524   C     0.62203   0.73772   0.66670   0.00000  Uiso   1.00
C525   C     0.65717   0.71671   0.70697   0.00000  Uiso   1.00
C526   C     0.63826   0.67114   0.73904   0.00000  Uiso   1.00
C527   C     0.54678   0.84336   0.64074   0.00000  Uiso   1.00
C528   C     0.51864   0.91116   0.65919   0.00000  Uiso   1.00
C529   C     0.43637   0.95452   0.66942   0.00000  Uiso   1.00
H530   H     0.49764   0.72529   0.60623   0.00000  Uiso   1.00
H531   H     0.59587   0.67435   0.49507   0.00000  Uiso   1.00
H532   H     0.51047   0.65024   0.68460   0.00000  Uiso   1.00
H533   H     0.37197   0.84466   0.63683   0.00000  Uiso   1.00
H534   H     0.72780   0.62828   0.37535   0.00000  Uiso   1.00
H535   H     0.54772   0.57746   0.77499   0.00000  Uiso   1.00
H536   H     0.25565   0.98743   0.67425   0.00000  Uiso   1.00
H537   H     0.67498   0.80567   0.63326   0.00000  Uiso   1.00
H538   H     0.78295   0.75914   0.52358   0.00000  Uiso   1.00
H539   H     0.69755   0.73502   0.71312   0.00000  Uiso   1.00
H540   H     0.55905   0.92944   0.66534   0.00000  Uiso   1.00
H541   H     0.87965   0.69710   0.39849   0.00000  Uiso   1.00
H542   H     0.69956   0.64627   0.79814   0.00000  Uiso   1.00
H543   H     0.40749   0.05624   0.69740   0.00000  Uiso   1.00
O544   O     0.87156   0.63061   0.31428   0.00000  Uiso   1.00
O545   O     0.63528   0.56394   0.83862   0.00000  Uiso   1.00
O546   O     0.25210   0.10181   0.70644   0.00000  Uiso   1.00
N547   N     0.74872   0.65088   0.39584   0.00000  Uiso   1.00
N548   N     0.58036   0.60335   0.76948   0.00000  Uiso   1.00
N549   N     0.30729   0.98663   0.67531   0.00000  Uiso   1.00
N550   N     0.83042   0.68790   0.40829   0.00000  Uiso   1.00
N551   N     0.66206   0.64038   0.78194   0.00000  Uiso   1.00
N552   N     0.38900   0.02366   0.68777   0.00000  Uiso   1.00
