data_job_06567
_audit_creation_date              2018-12-19
_audit_creation_method            'Materials Studio'
_symmetry_space_group_name_H-M    'P1'
_symmetry_Int_Tables_number       1
_symmetry_cell_setting            triclinic
loop_
_symmetry_equiv_pos_as_xyz
  x,y,z
_cell_length_a                    13.2540
_cell_length_b                    24.0799
_cell_length_c                    24.2079
_cell_angle_alpha                 112.0130
_cell_angle_beta                  81.8135
_cell_angle_gamma                 79.2870
loop_
_atom_site_label
_atom_site_type_symbol
_atom_site_fract_x
_atom_site_fract_y
_atom_site_fract_z
_atom_site_U_iso_or_equiv
_atom_site_adp_type
_atom_site_occupancy
C1     C     0.44394   0.93583   0.58695   0.00000  Uiso   1.00
C2     C     0.37252   0.89281   0.56671   0.00000  Uiso   1.00
C3     C     0.40134   0.83583   0.51659   0.00000  Uiso   1.00
C4     C     0.32455   0.80352   0.50576   0.00000  Uiso   1.00
C5     C     0.22914   0.73311   0.46855   0.00000  Uiso   1.00
C6     C     0.38742   0.99794   0.58873   0.00000  Uiso   1.00
C7     C     0.42878   0.02934   0.55712   0.00000  Uiso   1.00
C8     C     0.36453   0.08553   0.56483   0.00000  Uiso   1.00
C9     C     0.29229   0.17834   0.56183   0.00000  Uiso   1.00
C10    C     0.44330   0.94687   0.65329   0.00000  Uiso   1.00
C11    C     0.53164   0.93535   0.67597   0.00000  Uiso   1.00
C12    C     0.51444   0.94855   0.73804   0.00000  Uiso   1.00
C13    C     0.52896   0.96207   0.83528   0.00000  Uiso   1.00
C14    C     0.25632   0.97978   0.65683   0.00000  Uiso   1.00
C15    C     0.27061   0.91669   0.60467   0.00000  Uiso   1.00
C16    C     0.19376   0.88445   0.59391   0.00000  Uiso   1.00
C17    C     0.22246   0.82743   0.54379   0.00000  Uiso   1.00
C18    C     0.28552   0.02181   0.62668   0.00000  Uiso   1.00
C19    C     0.22120   0.07796   0.63444   0.00000  Uiso   1.00
C20    C     0.26244   0.10944   0.60286   0.00000  Uiso   1.00
C21    C     0.34139   0.97074   0.69125   0.00000  Uiso   1.00
C22    C     0.32406   0.98397   0.75329   0.00000  Uiso   1.00
C23    C     0.41235   0.97247   0.77606   0.00000  Uiso   1.00
H24    H     0.52328   0.91725   0.55739   0.00000  Uiso   1.00
H25    H     0.48021   0.81738   0.48722   0.00000  Uiso   1.00
H26    H     0.50765   0.01086   0.52775   0.00000  Uiso   1.00
H27    H     0.61049   0.91688   0.64658   0.00000  Uiso   1.00
H28    H     0.38751   0.71718   0.42616   0.00000  Uiso   1.00
H29    H     0.44538   0.12516   0.51163   0.00000  Uiso   1.00
H30    H     0.66224   0.92699   0.76220   0.00000  Uiso   1.00
H31    H     0.17698   0.99836   0.68639   0.00000  Uiso   1.00
H32    H     0.11490   0.90294   0.62330   0.00000  Uiso   1.00
H33    H     0.14234   0.09642   0.66383   0.00000  Uiso   1.00
H34    H     0.24518   0.00244   0.78265   0.00000  Uiso   1.00
H35    H     0.09100   0.78663   0.53660   0.00000  Uiso   1.00
H36    H     0.14888   0.19461   0.62207   0.00000  Uiso   1.00
H37    H     0.36574   0.99643   0.87265   0.00000  Uiso   1.00
O38    O     0.20466   0.68768   0.43753   0.00000  Uiso   1.00
O39    O     0.28059   0.22294   0.54968   0.00000  Uiso   1.00
O40    O     0.56511   0.96293   0.87843   0.00000  Uiso   1.00
N41    N     0.32625   0.74662   0.46081   0.00000  Uiso   1.00
N42    N     0.38035   0.12805   0.54072   0.00000  Uiso   1.00
N43    N     0.58310   0.94279   0.77499   0.00000  Uiso   1.00
N44    N     0.16671   0.78398   0.52024   0.00000  Uiso   1.00
N45    N     0.22080   0.16542   0.60015   0.00000  Uiso   1.00
N46    N     0.42356   0.98016   0.83442   0.00000  Uiso   1.00
C47    C     0.98179   0.48302   0.48875   0.00000  Uiso   1.00
C48    C     0.87535   0.51176   0.48064   0.00000  Uiso   1.00
C49    C     0.85242   0.56323   0.46717   0.00000  Uiso   1.00
C50    C     0.75032   0.58231   0.46161   0.00000  Uiso   1.00
C51    C     0.59664   0.63171   0.44789   0.00000  Uiso   1.00
C52    C     0.96045   0.48262   0.55216   0.00000  Uiso   1.00
C53    C     0.00910   0.50957   0.59882   0.00000  Uiso   1.00
C54    C     0.97865   0.50411   0.65346   0.00000  Uiso   1.00
C55    C     0.95717   0.50823   0.75076   0.00000  Uiso   1.00
C56    C     0.01325   0.41520   0.44309   0.00000  Uiso   1.00
C57    C     0.10629   0.38546   0.39804   0.00000  Uiso   1.00
C58    C     0.12031   0.32324   0.36086   0.00000  Uiso   1.00
C59    C     0.18079   0.22268   0.28881   0.00000  Uiso   1.00
C60    C     0.84125   0.42538   0.50282   0.00000  Uiso   1.00
C61    C     0.79901   0.48045   0.48829   0.00000  Uiso   1.00
C62    C     0.69692   0.49946   0.48274   0.00000  Uiso   1.00
C63    C     0.67385   0.55094   0.46926   0.00000  Uiso   1.00
C64    C     0.88412   0.45131   0.55981   0.00000  Uiso   1.00
C65    C     0.85360   0.44580   0.61439   0.00000  Uiso   1.00
C66    C     0.90218   0.47275   0.66112   0.00000  Uiso   1.00
C67    C     0.93691   0.38389   0.45073   0.00000  Uiso   1.00
C68    C     0.95079   0.32170   0.41362   0.00000  Uiso   1.00
C69    C     0.04383   0.29187   0.36852   0.00000  Uiso   1.00
H70    H     0.04122   0.50740   0.48280   0.00000  Uiso   1.00
H71    H     0.91152   0.58745   0.46126   0.00000  Uiso   1.00
H72    H     0.06818   0.53379   0.59289   0.00000  Uiso   1.00
H73    H     0.16535   0.40971   0.39214   0.00000  Uiso   1.00
H74    H     0.73404   0.66240   0.44078   0.00000  Uiso   1.00
H75    H     0.06439   0.54925   0.71831   0.00000  Uiso   1.00
H76    H     0.26930   0.28759   0.29500   0.00000  Uiso   1.00
H77    H     0.78181   0.40101   0.50878   0.00000  Uiso   1.00
H78    H     0.63787   0.47522   0.48866   0.00000  Uiso   1.00
H79    H     0.79453   0.42157   0.62029   0.00000  Uiso   1.00
H80    H     0.89170   0.29748   0.41954   0.00000  Uiso   1.00
H81    H     0.51193   0.57132   0.46302   0.00000  Uiso   1.00
H82    H     0.84229   0.45817   0.74055   0.00000  Uiso   1.00
H83    H     0.04720   0.19651   0.31724   0.00000  Uiso   1.00
O84    O     0.53296   0.66761   0.43822   0.00000  Uiso   1.00
O85    O     0.96639   0.51915   0.80232   0.00000  Uiso   1.00
O86    O     0.23522   0.17586   0.24695   0.00000  Uiso   1.00
N87    N     0.70152   0.63077   0.44876   0.00000  Uiso   1.00
N88    N     0.01038   0.52500   0.70824   0.00000  Uiso   1.00
N89    N     0.20196   0.28036   0.31249   0.00000  Uiso   1.00
N90    N     0.58201   0.58176   0.46073   0.00000  Uiso   1.00
N91    N     0.89086   0.47598   0.72021   0.00000  Uiso   1.00
N92    N     0.08245   0.23135   0.32446   0.00000  Uiso   1.00
C93    C     0.35386   0.63560   0.14826   0.00000  Uiso   1.00
C94    C     0.25400   0.63850   0.19040   0.00000  Uiso   1.00
C95    C     0.24403   0.64538   0.25062   0.00000  Uiso   1.00
C96    C     0.14609   0.64697   0.28145   0.00000  Uiso   1.00
C97    C     0.00395   0.65221   0.35121   0.00000  Uiso   1.00
C98    C     0.37701   0.57476   0.09169   0.00000  Uiso   1.00
C99    C     0.47047   0.52805   0.06890   0.00000  Uiso   1.00
C100   C     0.47609   0.47599   0.01662   0.00000  Uiso   1.00
C101   C     0.52495   0.38229   0.93309   0.00000  Uiso   1.00
C102   C     0.32354   0.68711   0.12683   0.00000  Uiso   1.00
C103   C     0.37206   0.73485   0.13357   0.00000  Uiso   1.00
C104   C     0.33267   0.77737   0.11087   0.00000  Uiso   1.00
C105   C     0.29852   0.85812   0.08190   0.00000  Uiso   1.00
C106   C     0.19767   0.62621   0.09593   0.00000  Uiso   1.00
C107   C     0.16917   0.63339   0.16198   0.00000  Uiso   1.00
C108   C     0.07122   0.63498   0.19273   0.00000  Uiso   1.00
C109   C     0.06110   0.64186   0.25298   0.00000  Uiso   1.00
C110   C     0.29218   0.56965   0.06326   0.00000  Uiso   1.00
C111   C     0.29766   0.51765   0.01101   0.00000  Uiso   1.00
C112   C     0.39110   0.47087   0.98815   0.00000  Uiso   1.00
C113   C     0.23871   0.68201   0.09841   0.00000  Uiso   1.00
C114   C     0.19925   0.72446   0.07568   0.00000  Uiso   1.00
C115   C     0.24769   0.77226   0.08239   0.00000  Uiso   1.00
H116   H     0.41991   0.63957   0.17038   0.00000  Uiso   1.00
H117   H     0.30970   0.64932   0.27260   0.00000  Uiso   1.00
H118   H     0.53611   0.53201   0.09090   0.00000  Uiso   1.00
H119   H     0.43770   0.73879   0.15556   0.00000  Uiso   1.00
H120   H     0.15011   0.65785   0.37338   0.00000  Uiso   1.00
H121   H     0.62752   0.41051   0.99025   0.00000  Uiso   1.00
H122   H     0.42002   0.84653   0.12661   0.00000  Uiso   1.00
H123   H     0.13163   0.62223   0.07380   0.00000  Uiso   1.00
H124   H     0.00558   0.63103   0.17073   0.00000  Uiso   1.00
H125   H     0.23200   0.51372   0.98902   0.00000  Uiso   1.00
H126   H     0.13360   0.72050   0.05369   0.00000  Uiso   1.00
H127   H     0.90328   0.64300   0.29070   0.00000  Uiso   1.00
H128   H     0.38069   0.39567   0.90756   0.00000  Uiso   1.00
H129   H     0.17319   0.83169   0.04392   0.00000  Uiso   1.00
O130   O     0.94899   0.65650   0.39753   0.00000  Uiso   1.00
O131   O     0.57534   0.33201   0.89487   0.00000  Uiso   1.00
O132   O     0.30311   0.90407   0.07377   0.00000  Uiso   1.00
N133   N     0.10931   0.65316   0.34063   0.00000  Uiso   1.00
N134   N     0.55565   0.42191   0.98242   0.00000  Uiso   1.00
N135   N     0.36168   0.82955   0.10989   0.00000  Uiso   1.00
N136   N     0.97649   0.64517   0.29613   0.00000  Uiso   1.00
N137   N     0.42283   0.41392   0.93793   0.00000  Uiso   1.00
N138   N     0.22886   0.82156   0.06540   0.00000  Uiso   1.00
C139   C     0.44368   0.43361   0.56495   0.00000  Uiso   1.00
C140   C     0.35972   0.40860   0.59078   0.00000  Uiso   1.00
C141   C     0.36138   0.39045   0.63877   0.00000  Uiso   1.00
C142   C     0.27713   0.36887   0.65561   0.00000  Uiso   1.00
C143   C     0.15933   0.33057   0.70033   0.00000  Uiso   1.00
C144   C     0.38600   0.49665   0.56932   0.00000  Uiso   1.00
C145   C     0.40977   0.55252   0.59926   0.00000  Uiso   1.00
C146   C     0.34765   0.60506   0.59802   0.00000  Uiso   1.00
C147   C     0.27071   0.70346   0.60938   0.00000  Uiso   1.00
C148   C     0.48078   0.39144   0.49674   0.00000  Uiso   1.00
C149   C     0.58425   0.35886   0.46565   0.00000  Uiso   1.00
C150   C     0.60194   0.32283   0.40330   0.00000  Uiso   1.00
C151   C     0.67216   0.25786   0.30197   0.00000  Uiso   1.00
C152   C     0.29113   0.42758   0.50950   0.00000  Uiso   1.00
C153   C     0.27686   0.40533   0.56066   0.00000  Uiso   1.00
C154   C     0.19259   0.38377   0.57743   0.00000  Uiso   1.00
C155   C     0.19412   0.36558   0.62544   0.00000  Uiso   1.00
C156   C     0.30314   0.49338   0.53920   0.00000  Uiso   1.00
C157   C     0.24098   0.54585   0.53791   0.00000  Uiso   1.00
C158   C     0.26464   0.60178   0.56785   0.00000  Uiso   1.00
C159   C     0.39792   0.38816   0.46662   0.00000  Uiso   1.00
C160   C     0.41546   0.35218   0.40431   0.00000  Uiso   1.00
C161   C     0.51893   0.31955   0.37313   0.00000  Uiso   1.00
H162   H     0.50819   0.43616   0.58839   0.00000  Uiso   1.00
H163   H     0.42551   0.39299   0.66207   0.00000  Uiso   1.00
H164   H     0.47390   0.55504   0.62256   0.00000  Uiso   1.00
H165   H     0.64835   0.36140   0.48897   0.00000  Uiso   1.00
H166   H     0.29728   0.34371   0.73049   0.00000  Uiso   1.00
H167   H     0.39933   0.68540   0.64715   0.00000  Uiso   1.00
H168   H     0.76720   0.27707   0.36547   0.00000  Uiso   1.00
H169   H     0.22662   0.42503   0.48605   0.00000  Uiso   1.00
H170   H     0.12848   0.38124   0.55411   0.00000  Uiso   1.00
H171   H     0.17687   0.54330   0.51460   0.00000  Uiso   1.00
H172   H     0.35132   0.34966   0.38102   0.00000  Uiso   1.00
H173   H     0.05619   0.33418   0.64287   0.00000  Uiso   1.00
H174   H     0.15825   0.67586   0.55953   0.00000  Uiso   1.00
H175   H     0.52612   0.26754   0.27784   0.00000  Uiso   1.00
O176   O     0.11724   0.31036   0.73332   0.00000  Uiso   1.00
O177   O     0.25115   0.75864   0.62397   0.00000  Uiso   1.00
O178   O     0.73378   0.22292   0.25440   0.00000  Uiso   1.00
N179   N     0.25402   0.34746   0.70052   0.00000  Uiso   1.00
N180   N     0.34942   0.66692   0.62261   0.00000  Uiso   1.00
N181   N     0.69335   0.28518   0.35926   0.00000  Uiso   1.00
N182   N     0.12429   0.34233   0.65337   0.00000  Uiso   1.00
N183   N     0.21970   0.66179   0.57547   0.00000  Uiso   1.00
N184   N     0.56363   0.28005   0.31211   0.00000  Uiso   1.00
C185   C     0.90247   0.08247   0.69943   0.00000  Uiso   1.00
C186   C     0.78840   0.12141   0.71904   0.00000  Uiso   1.00
C187   C     0.75526   0.18082   0.72197   0.00000  Uiso   1.00
C188   C     0.64745   0.20859   0.74101   0.00000  Uiso   1.00
C189   C     0.48126   0.27369   0.76907   0.00000  Uiso   1.00
C190   C     0.90619   0.02193   0.64647   0.00000  Uiso   1.00
C191   C     0.97211   0.99770   0.58839   0.00000  Uiso   1.00
C192   C     0.96347   0.94173   0.54635   0.00000  Uiso   1.00
C193   C     0.98022   0.85237   0.46175   0.00000  Uiso   1.00
C194   C     0.92200   0.06548   0.75237   0.00000  Uiso   1.00
C195   C     0.00123   0.07785   0.78332   0.00000  Uiso   1.00
C196   C     0.00592   0.05853   0.83043   0.00000  Uiso   1.00
C197   C     0.04722   0.03678   0.91026   0.00000  Uiso   1.00
C198   C     0.76994   0.02615   0.72803   0.00000  Uiso   1.00
C199   C     0.71641   0.09081   0.73457   0.00000  Uiso   1.00
C200   C     0.60863   0.11850   0.75362   0.00000  Uiso   1.00
C201   C     0.57533   0.17795   0.75658   0.00000  Uiso   1.00
C202   C     0.83421   0.99134   0.66200   0.00000  Uiso   1.00
C203   C     0.82548   0.93539   0.62004   0.00000  Uiso   1.00
C204   C     0.89136   0.91109   0.56191   0.00000  Uiso   1.00
C205   C     0.85002   0.03489   0.76791   0.00000  Uiso   1.00
C206   C     0.85459   0.01554   0.81497   0.00000  Uiso   1.00
C207   C     0.93381   0.02788   0.84599   0.00000  Uiso   1.00
H208   H     0.95852   0.10629   0.68733   0.00000  Uiso   1.00
H209   H     0.81099   0.20447   0.70994   0.00000  Uiso   1.00
H210   H     0.02781   0.02139   0.57638   0.00000  Uiso   1.00
H211   H     0.05692   0.10152   0.77129   0.00000  Uiso   1.00
H212   H     0.61568   0.29983   0.74184   0.00000  Uiso   1.00
H213   H     0.07289   0.91377   0.46023   0.00000  Uiso   1.00
H214   H     0.13428   0.08275   0.87122   0.00000  Uiso   1.00
H215   H     0.71390   0.00233   0.74012   0.00000  Uiso   1.00
H216   H     0.55294   0.09482   0.76563   0.00000  Uiso   1.00
H217   H     0.76977   0.91173   0.63208   0.00000  Uiso   1.00
H218   H     0.79888   0.99187   0.82698   0.00000  Uiso   1.00
H219   H     0.40623   0.21083   0.78704   0.00000  Uiso   1.00
H220   H     0.86345   0.82477   0.50543   0.00000  Uiso   1.00
H221   H     0.92484   0.99375   0.91643   0.00000  Uiso   1.00
O222   O     0.40948   0.31804   0.78024   0.00000  Uiso   1.00
O223   O     0.00934   0.81154   0.41080   0.00000  Uiso   1.00
O224   O     0.08988   0.03324   0.95001   0.00000  Uiso   1.00
N225   N     0.58847   0.26620   0.74898   0.00000  Uiso   1.00
N226   N     0.01593   0.90526   0.48570   0.00000  Uiso   1.00
N227   N     0.07334   0.06323   0.86993   0.00000  Uiso   1.00
N228   N     0.47578   0.21831   0.77331   0.00000  Uiso   1.00
N229   N     0.90323   0.85737   0.51002   0.00000  Uiso   1.00
N230   N     0.96064   0.01534   0.89425   0.00000  Uiso   1.00
C231   C     0.85715   0.61899   0.09731   0.00000  Uiso   1.00
C232   C     0.80568   0.59371   0.04387   0.00000  Uiso   1.00
C233   C     0.85870   0.55542   0.98371   0.00000  Uiso   1.00
C234   C     0.79731   0.53732   0.94157   0.00000  Uiso   1.00
C235   C     0.73418   0.49506   0.85594   0.00000  Uiso   1.00
C236   C     0.81131   0.59850   0.14568   0.00000  Uiso   1.00
C237   C     0.86907   0.56425   0.17112   0.00000  Uiso   1.00
C238   C     0.81242   0.55019   0.21469   0.00000  Uiso   1.00
C239   C     0.75803   0.51542   0.28715   0.00000  Uiso   1.00
C240   C     0.81514   0.68939   0.12442   0.00000  Uiso   1.00
C241   C     0.87613   0.73156   0.13201   0.00000  Uiso   1.00
C242   C     0.82270   0.79402   0.15770   0.00000  Uiso   1.00
C243   C     0.77427   0.90036   0.19716   0.00000  Uiso   1.00
C244   C     0.65384   0.65493   0.12946   0.00000  Uiso   1.00
C245   C     0.69524   0.61323   0.06133   0.00000  Uiso   1.00
C246   C     0.63375   0.59518   0.01927   0.00000  Uiso   1.00
C247   C     0.68668   0.55687   0.95906   0.00000  Uiso   1.00
C248   C     0.70088   0.61802   0.16314   0.00000  Uiso   1.00
C249   C     0.64413   0.60401   0.20669   0.00000  Uiso   1.00
C250   C     0.70178   0.56974   0.23219   0.00000  Uiso   1.00
C251   C     0.70471   0.70891   0.14188   0.00000  Uiso   1.00
C252   C     0.65118   0.77132   0.16757   0.00000  Uiso   1.00
C253   C     0.71207   0.81357   0.17519   0.00000  Uiso   1.00
H254   H     0.94313   0.60379   0.08372   0.00000  Uiso   1.00
H255   H     0.94417   0.54032   0.97022   0.00000  Uiso   1.00
H256   H     0.95453   0.54916   0.15760   0.00000  Uiso   1.00
H257   H     0.96158   0.71644   0.11849   0.00000  Uiso   1.00
H258   H     0.89661   0.47854   0.85208   0.00000  Uiso   1.00
H259   H     0.91847   0.49719   0.24721   0.00000  Uiso   1.00
H260   H     0.93335   0.84993   0.16474   0.00000  Uiso   1.00
H261   H     0.56786   0.67012   0.14305   0.00000  Uiso   1.00
H262   H     0.54830   0.61029   0.03280   0.00000  Uiso   1.00
H263   H     0.55867   0.61912   0.22019   0.00000  Uiso   1.00
H264   H     0.56572   0.78640   0.18108   0.00000  Uiso   1.00
H265   H     0.57531   0.53532   0.90287   0.00000  Uiso   1.00
H266   H     0.59717   0.55398   0.29801   0.00000  Uiso   1.00
H267   H     0.61204   0.90672   0.21554   0.00000  Uiso   1.00
O268   O     0.72987   0.46636   0.80388   0.00000  Uiso   1.00
O269   O     0.75855   0.49084   0.32229   0.00000  Uiso   1.00
O270   O     0.77806   0.95363   0.21409   0.00000  Uiso   1.00
N271   N     0.82368   0.50012   0.87916   0.00000  Uiso   1.00
N272   N     0.84412   0.51755   0.24858   0.00000  Uiso   1.00
N273   N     0.85802   0.84734   0.17149   0.00000  Uiso   1.00
N274   N     0.65079   0.53068   0.90649   0.00000  Uiso   1.00
N275   N     0.67123   0.54811   0.27591   0.00000  Uiso   1.00
N276   N     0.68513   0.87790   0.19883   0.00000  Uiso   1.00
C277   C     0.50660   0.11863   0.39506   0.00000  Uiso   1.00
C278   C     0.57037   0.15873   0.43223   0.00000  Uiso   1.00
C279   C     0.52974   0.21019   0.48767   0.00000  Uiso   1.00
C280   C     0.60110   0.24062   0.51444   0.00000  Uiso   1.00
C281   C     0.68369   0.30597   0.57639   0.00000  Uiso   1.00
C282   C     0.55560   0.05249   0.38627   0.00000  Uiso   1.00
C283   C     0.50255   0.01462   0.40306   0.00000  Uiso   1.00
C284   C     0.56148   0.95561   0.39113   0.00000  Uiso   1.00
C285   C     0.62112   0.85601   0.38169   0.00000  Uiso   1.00
C286   C     0.53017   0.11899   0.33170   0.00000  Uiso   1.00
C287   C     0.45575   0.13701   0.30259   0.00000  Uiso   1.00
C288   C     0.49327   0.13398   0.24470   0.00000  Uiso   1.00
C289   C     0.51343   0.13762   0.15051   0.00000  Uiso   1.00
C290   C     0.70556   0.08118   0.34401   0.00000  Uiso   1.00
C291   C     0.67844   0.13839   0.40450   0.00000  Uiso   1.00
C292   C     0.74988   0.16875   0.43118   0.00000  Uiso   1.00
C293   C     0.70936   0.22024   0.48665   0.00000  Uiso   1.00
C294   C     0.66367   0.03215   0.35854   0.00000  Uiso   1.00
C295   C     0.72269   0.97318   0.34658   0.00000  Uiso   1.00
C296   C     0.66975   0.93523   0.36335   0.00000  Uiso   1.00
C297   C     0.63825   0.09865   0.30396   0.00000  Uiso   1.00
C298   C     0.67589   0.09558   0.24610   0.00000  Uiso   1.00
C299   C     0.60153   0.11360   0.21692   0.00000  Uiso   1.00
H300   H     0.42246   0.13446   0.41665   0.00000  Uiso   1.00
H301   H     0.44610   0.22591   0.50912   0.00000  Uiso   1.00
H302   H     0.41892   0.03037   0.42452   0.00000  Uiso   1.00
H303   H     0.37213   0.15275   0.32406   0.00000  Uiso   1.00
H304   H     0.51998   0.31832   0.59942   0.00000  Uiso   1.00
H305   H     0.46265   0.90601   0.42102   0.00000  Uiso   1.00
H306   H     0.36398   0.16406   0.20918   0.00000  Uiso   1.00
H307   H     0.78971   0.06533   0.32241   0.00000  Uiso   1.00
H308   H     0.83350   0.15300   0.40971   0.00000  Uiso   1.00
H309   H     0.80632   0.95746   0.32511   0.00000  Uiso   1.00
H310   H     0.75952   0.07983   0.22466   0.00000  Uiso   1.00
H311   H     0.83441   0.25913   0.51874   0.00000  Uiso   1.00
H312   H     0.77708   0.84682   0.34033   0.00000  Uiso   1.00
H313   H     0.67841   0.10488   0.12850   0.00000  Uiso   1.00
O314   O     0.69939   0.34763   0.61822   0.00000  Uiso   1.00
O315   O     0.62416   0.80669   0.38415   0.00000  Uiso   1.00
O316   O     0.49471   0.14525   0.10623   0.00000  Uiso   1.00
N317   N     0.58797   0.29237   0.56845   0.00000  Uiso   1.00
N318   N     0.53437   0.90688   0.40166   0.00000  Uiso   1.00
N319   N     0.44212   0.14812   0.20360   0.00000  Uiso   1.00
N320   N     0.75716   0.26052   0.52503   0.00000  Uiso   1.00
N321   N     0.70356   0.87504   0.35824   0.00000  Uiso   1.00
N322   N     0.61131   0.11628   0.16019   0.00000  Uiso   1.00
C323   C     0.95347   0.68130   0.85890   0.00000  Uiso   1.00
C324   C     0.05940   0.66920   0.87583   0.00000  Uiso   1.00
C325   C     0.11692   0.61240   0.87070   0.00000  Uiso   1.00
C326   C     0.21202   0.61095   0.88857   0.00000  Uiso   1.00
C327   C     0.37101   0.58403   0.91146   0.00000  Uiso   1.00
C328   C     0.96904   0.70952   0.81248   0.00000  Uiso   1.00
C329   C     0.95057   0.68661   0.75410   0.00000  Uiso   1.00
C330   C     0.96960   0.71911   0.71865   0.00000  Uiso   1.00
C331   C     0.98824   0.75481   0.64320   0.00000  Uiso   1.00
C332   C     0.87763   0.73265   0.91638   0.00000  Uiso   1.00
C333   C     0.78229   0.72920   0.94534   0.00000  Uiso   1.00
C334   C     0.72434   0.78118   0.99736   0.00000  Uiso   1.00
C335   C     0.60105   0.85278   0.08323   0.00000  Uiso   1.00
C336   C     0.02009   0.77976   0.89975   0.00000  Uiso   1.00
C337   C     0.09558   0.72268   0.89802   0.00000  Uiso   1.00
C338   C     0.19062   0.72132   0.91591   0.00000  Uiso   1.00
C339   C     0.24826   0.66452   0.91081   0.00000  Uiso   1.00
C340   C     0.00522   0.76300   0.83467   0.00000  Uiso   1.00
C341   C     0.02427   0.79554   0.79930   0.00000  Uiso   1.00
C342   C     0.00584   0.77269   0.74088   0.00000  Uiso   1.00
C343   C     0.91381   0.78613   0.93857   0.00000  Uiso   1.00
C344   C     0.85599   0.83812   0.99055   0.00000  Uiso   1.00
C345   C     0.76058   0.83475   0.01959   0.00000  Uiso   1.00
H346   H     0.92530   0.63967   0.84162   0.00000  Uiso   1.00
H347   H     0.08889   0.57102   0.85352   0.00000  Uiso   1.00
H348   H     0.92256   0.64523   0.73694   0.00000  Uiso   1.00
H349   H     0.75431   0.68781   0.92816   0.00000  Uiso   1.00
H350   H     0.28624   0.51849   0.87648   0.00000  Uiso   1.00
H351   H     0.93549   0.67498   0.63067   0.00000  Uiso   1.00
H352   H     0.58069   0.76476   0.03389   0.00000  Uiso   1.00
H353   H     0.04826   0.82139   0.91703   0.00000  Uiso   1.00
H354   H     0.21860   0.76271   0.93308   0.00000  Uiso   1.00
H355   H     0.05227   0.83692   0.81649   0.00000  Uiso   1.00
H356   H     0.88402   0.87950   0.00771   0.00000  Uiso   1.00
H357   H     0.39151   0.67407   0.94105   0.00000  Uiso   1.00
H358   H     0.04076   0.83056   0.69523   0.00000  Uiso   1.00
H359   H     0.68597   0.92034   0.09846   0.00000  Uiso   1.00
O360   O     0.44873   0.55440   0.91794   0.00000  Uiso   1.00
O361   O     0.98854   0.75971   0.59545   0.00000  Uiso   1.00
O362   O     0.52306   0.87750   0.12447   0.00000  Uiso   1.00
N363   N     0.28763   0.56316   0.88949   0.00000  Uiso   1.00
N364   N     0.95971   0.70946   0.65966   0.00000  Uiso   1.00
N365   N     0.62800   0.79341   0.03663   0.00000  Uiso   1.00
N366   N     0.34427   0.64688   0.92423   0.00000  Uiso   1.00
N367   N     0.01636   0.79318   0.69441   0.00000  Uiso   1.00
N368   N     0.68464   0.87713   0.07138   0.00000  Uiso   1.00
C369   C     0.75699   0.22649   0.97718   0.00000  Uiso   1.00
C370   C     0.87283   0.22335   0.95634   0.00000  Uiso   1.00
C371   C     0.91864   0.22515   0.90201   0.00000  Uiso   1.00
C372   C     0.02583   0.22169   0.89137   0.00000  Uiso   1.00
C373   C     0.19670   0.21762   0.85262   0.00000  Uiso   1.00
C374   C     0.71648   0.28119   0.03970   0.00000  Uiso   1.00
C375   C     0.63082   0.33162   0.05545   0.00000  Uiso   1.00
C376   C     0.60640   0.37685   0.11499   0.00000  Uiso   1.00
C377   C     0.53448   0.46256   0.20566   0.00000  Uiso   1.00
C378   C     0.75628   0.16851   0.98877   0.00000  Uiso   1.00
C379   C     0.70407   0.12421   0.96170   0.00000  Uiso   1.00
C380   C     0.71313   0.07457   0.97837   0.00000  Uiso   1.00
C381   C     0.70301   0.98534   0.98996   0.00000  Uiso   1.00
C382   C     0.86590   0.21713   0.05492   0.00000  Uiso   1.00
C383   C     0.93199   0.21827   0.99857   0.00000  Uiso   1.00
C384   C     0.03914   0.21480   0.98802   0.00000  Uiso   1.00
C385   C     0.08510   0.21659   0.93368   0.00000  Uiso   1.00
C386   C     0.77564   0.27611   0.08193   0.00000  Uiso   1.00
C387   C     0.75132   0.32127   0.14146   0.00000  Uiso   1.00
C388   C     0.66566   0.37175   0.15730   0.00000  Uiso   1.00
C389   C     0.81544   0.16343   0.03099   0.00000  Uiso   1.00
C390   C     0.82458   0.11386   0.04771   0.00000  Uiso   1.00
C391   C     0.77239   0.06948   0.02068   0.00000  Uiso   1.00
H392   H     0.71092   0.23045   0.94430   0.00000  Uiso   1.00
H393   H     0.87283   0.22909   0.86934   0.00000  Uiso   1.00
H394   H     0.58505   0.33554   0.02276   0.00000  Uiso   1.00
H395   H     0.65829   0.12816   0.92903   0.00000  Uiso   1.00
H396   H     0.07841   0.22537   0.80486   0.00000  Uiso   1.00
H397   H     0.47160   0.44981   0.12837   0.00000  Uiso   1.00
H398   H     0.62603   0.01251   0.93071   0.00000  Uiso   1.00
H399   H     0.91196   0.21317   0.08780   0.00000  Uiso   1.00
H400   H     0.08490   0.21086   0.02071   0.00000  Uiso   1.00
H401   H     0.79712   0.31732   0.17413   0.00000  Uiso   1.00
H402   H     0.87036   0.10994   0.08039   0.00000  Uiso   1.00
H403   H     0.25053   0.21058   0.92772   0.00000  Uiso   1.00
H404   H     0.64371   0.43502   0.25123   0.00000  Uiso   1.00
H405   H     0.79816   0.99772   0.05356   0.00000  Uiso   1.00
O406   O     0.27460   0.21679   0.81958   0.00000  Uiso   1.00
O407   O     0.47847   0.51124   0.24400   0.00000  Uiso   1.00
O408   O     0.68110   0.93752   0.98468   0.00000  Uiso   1.00
N409   N     0.09519   0.22219   0.84298   0.00000  Uiso   1.00
N410   N     0.52786   0.43204   0.14543   0.00000  Uiso   1.00
N411   N     0.67223   0.02321   0.96065   0.00000  Uiso   1.00
N412   N     0.18781   0.21423   0.90908   0.00000  Uiso   1.00
N413   N     0.62048   0.42408   0.21154   0.00000  Uiso   1.00
N414   N     0.76485   0.01525   0.02676   0.00000  Uiso   1.00
C415   C     0.40953   0.76633   0.76051   0.00000  Uiso   1.00
C416   C     0.50011   0.76899   0.71585   0.00000  Uiso   1.00
C417   C     0.49236   0.77818   0.66317   0.00000  Uiso   1.00
C418   C     0.58435   0.77910   0.62840   0.00000  Uiso   1.00
C419   C     0.71038   0.78442   0.55639   0.00000  Uiso   1.00
C420   C     0.44396   0.70411   0.76440   0.00000  Uiso   1.00
C421   C     0.38900   0.65875   0.75255   0.00000  Uiso   1.00
C422   C     0.43373   0.60507   0.75865   0.00000  Uiso   1.00
C423   C     0.47254   0.50968   0.76207   0.00000  Uiso   1.00
C424   C     0.40590   0.81580   0.82316   0.00000  Uiso   1.00
C425   C     0.31894   0.86436   0.86073   0.00000  Uiso   1.00
C426   C     0.33161   0.90470   0.91631   0.00000  Uiso   1.00
C427   C     0.31134   0.98273   0.01096   0.00000  Uiso   1.00
C428   C     0.58667   0.75163   0.79243   0.00000  Uiso   1.00
C429   C     0.59632   0.76100   0.73318   0.00000  Uiso   1.00
C430   C     0.68835   0.76192   0.69848   0.00000  Uiso   1.00
C431   C     0.68074   0.77111   0.64576   0.00000  Uiso   1.00
C432   C     0.54017   0.69612   0.78173   0.00000  Uiso   1.00
C433   C     0.58499   0.64249   0.78786   0.00000  Uiso   1.00
C434   C     0.53011   0.59707   0.77602   0.00000  Uiso   1.00
C435   C     0.50212   0.80782   0.84049   0.00000  Uiso   1.00
C436   C     0.51493   0.84810   0.89603   0.00000  Uiso   1.00
C437   C     0.42800   0.89670   0.93368   0.00000  Uiso   1.00
H438   H     0.33462   0.77254   0.74701   0.00000  Uiso   1.00
H439   H     0.41789   0.78435   0.64977   0.00000  Uiso   1.00
H440   H     0.31454   0.66495   0.73914   0.00000  Uiso   1.00
H441   H     0.24449   0.87052   0.84730   0.00000  Uiso   1.00
H442   H     0.55265   0.79390   0.54959   0.00000  Uiso   1.00
H443   H     0.33472   0.54215   0.73805   0.00000  Uiso   1.00
H444   H     0.18700   0.97563   0.96612   0.00000  Uiso   1.00
H445   H     0.66158   0.74541   0.80592   0.00000  Uiso   1.00
H446   H     0.76279   0.75574   0.71191   0.00000  Uiso   1.00
H447   H     0.65944   0.63633   0.80128   0.00000  Uiso   1.00
H448   H     0.58939   0.84191   0.90943   0.00000  Uiso   1.00
H449   H     0.83259   0.77068   0.60002   0.00000  Uiso   1.00
H450   H     0.61465   0.51892   0.78849   0.00000  Uiso   1.00
H451   H     0.46694   0.95241   0.01656   0.00000  Uiso   1.00
O452   O     0.75331   0.78955   0.51188   0.00000  Uiso   1.00
O453   O     0.46737   0.45926   0.75915   0.00000  Uiso   1.00
O454   O     0.27358   0.02799   0.05837   0.00000  Uiso   1.00
N455   N     0.60464   0.78703   0.57436   0.00000  Uiso   1.00
N456   N     0.40089   0.55165   0.75056   0.00000  Uiso   1.00
N457   N     0.26278   0.95691   0.96379   0.00000  Uiso   1.00
N458   N     0.75527   0.77453   0.60150   0.00000  Uiso   1.00
N459   N     0.55152   0.53915   0.77770   0.00000  Uiso   1.00
N460   N     0.41341   0.94442   0.99093   0.00000  Uiso   1.00
C461   C     0.05989   0.97117   0.33959   0.00000  Uiso   1.00
C462   C     0.15952   0.92328   0.33256   0.00000  Uiso   1.00
C463   C     0.16255   0.87057   0.34371   0.00000  Uiso   1.00
C464   C     0.26157   0.83259   0.33460   0.00000  Uiso   1.00
C465   C     0.40219   0.75608   0.32669   0.00000  Uiso   1.00
C466   C     0.06973   0.03348   0.38392   0.00000  Uiso   1.00
C467   C     0.99725   0.07344   0.43824   0.00000  Uiso   1.00
C468   C     0.02068   0.12823   0.47236   0.00000  Uiso   1.00
C469   C     0.02185   0.22283   0.54415   0.00000  Uiso   1.00
C470   C     0.06723   0.97475   0.27763   0.00000  Uiso   1.00
C471   C     0.99264   0.96534   0.24260   0.00000  Uiso   1.00
C472   C     0.01395   0.97070   0.18724   0.00000  Uiso   1.00
C473   C     0.01125   0.97411   0.09401   0.00000  Uiso   1.00
C474   C     0.23035   0.99743   0.30358   0.00000  Uiso   1.00
C475   C     0.25211   0.93754   0.31300   0.00000  Uiso   1.00
C476   C     0.35114   0.89963   0.30387   0.00000  Uiso   1.00
C477   C     0.35432   0.84688   0.31501   0.00000  Uiso   1.00
C478   C     0.16231   0.04774   0.36436   0.00000  Uiso   1.00
C479   C     0.18584   0.10249   0.39840   0.00000  Uiso   1.00
C480   C     0.11343   0.14252   0.45277   0.00000  Uiso   1.00
C481   C     0.15982   0.98901   0.25807   0.00000  Uiso   1.00
C482   C     0.18124   0.99439   0.20276   0.00000  Uiso   1.00
C483   C     0.10670   0.98499   0.16764   0.00000  Uiso   1.00
H484   H     0.98781   0.96007   0.35482   0.00000  Uiso   1.00
H485   H     0.09088   0.85956   0.35885   0.00000  Uiso   1.00
H486   H     0.92561   0.06239   0.45336   0.00000  Uiso   1.00
H487   H     0.92101   0.95431   0.25775   0.00000  Uiso   1.00
H488   H     0.24599   0.75442   0.35472   0.00000  Uiso   1.00
H489   H     0.89748   0.18212   0.55399   0.00000  Uiso   1.00
H490   H     0.88777   0.95421   0.14150   0.00000  Uiso   1.00
H491   H     0.30243   0.00854   0.28836   0.00000  Uiso   1.00
H492   H     0.42278   0.91068   0.28874   0.00000  Uiso   1.00
H493   H     0.25750   0.11352   0.38325   0.00000  Uiso   1.00
H494   H     0.25290   0.00543   0.18763   0.00000  Uiso   1.00
H495   H     0.51537   0.79592   0.29781   0.00000  Uiso   1.00
H496   H     0.16685   0.22362   0.49708   0.00000  Uiso   1.00
H497   H     0.15715   0.99570   0.08459   0.00000  Uiso   1.00
O498   O     0.45417   0.70993   0.32773   0.00000  Uiso   1.00
O499   O     0.99693   0.27106   0.58916   0.00000  Uiso   1.00
O500   O     0.98419   0.97204   0.04798   0.00000  Uiso   1.00
N501   N     0.29288   0.77761   0.34126   0.00000  Uiso   1.00
N502   N     0.96705   0.17748   0.52757   0.00000  Uiso   1.00
N503   N     0.95796   0.96441   0.14193   0.00000  Uiso   1.00
N504   N     0.43782   0.79994   0.31064   0.00000  Uiso   1.00
N505   N     0.11199   0.19981   0.49695   0.00000  Uiso   1.00
N506   N     0.10291   0.98674   0.11131   0.00000  Uiso   1.00
C507   C     0.09165   0.37663   0.19071   0.00000  Uiso   1.00
C508   C     0.18240   0.38842   0.22197   0.00000  Uiso   1.00
C509   C     0.17576   0.43778   0.27676   0.00000  Uiso   1.00
C510   C     0.26771   0.44031   0.29774   0.00000  Uiso   1.00
C511   C     0.39416   0.46551   0.35124   0.00000  Uiso   1.00
C512   C     0.12806   0.37277   0.12640   0.00000  Uiso   1.00
C513   C     0.07572   0.40897   0.10084   0.00000  Uiso   1.00
C514   C     0.12192   0.39832   0.04136   0.00000  Uiso   1.00
C515   C     0.16397   0.39919   0.94647   0.00000  Uiso   1.00
C516   C     0.08450   0.31164   0.18250   0.00000  Uiso   1.00
C517   C     0.99552   0.29644   0.20408   0.00000  Uiso   1.00
C518   C     0.00504   0.23432   0.19182   0.00000  Uiso   1.00
C519   C     0.97946   0.14028   0.18403   0.00000  Uiso   1.00
C520   C     0.26675   0.29334   0.13053   0.00000  Uiso   1.00
C521   C     0.27751   0.34318   0.18928   0.00000  Uiso   1.00
C522   C     0.36949   0.34563   0.21018   0.00000  Uiso   1.00
C523   C     0.36299   0.39499   0.26499   0.00000  Uiso   1.00
C524   C     0.22316   0.32753   0.09372   0.00000  Uiso   1.00
C525   C     0.26945   0.31682   0.03426   0.00000  Uiso   1.00
C526   C     0.21720   0.35300   0.00861   0.00000  Uiso   1.00
C527   C     0.17961   0.26640   0.14981   0.00000  Uiso   1.00
C528   C     0.18926   0.20429   0.13751   0.00000  Uiso   1.00
C529   C     0.10033   0.18900   0.15907   0.00000  Uiso   1.00
H530   H     0.01760   0.41185   0.21615   0.00000  Uiso   1.00
H531   H     0.10214   0.47279   0.30204   0.00000  Uiso   1.00
H532   H     0.00211   0.44397   0.12614   0.00000  Uiso   1.00
H533   H     0.92194   0.33146   0.22937   0.00000  Uiso   1.00
H534   H     0.23782   0.52040   0.38284   0.00000  Uiso   1.00
H535   H     0.02688   0.45963   0.01194   0.00000  Uiso   1.00
H536   H     0.85781   0.22238   0.22963   0.00000  Uiso   1.00
H537   H     0.34080   0.25812   0.10508   0.00000  Uiso   1.00
H538   H     0.44308   0.31061   0.18488   0.00000  Uiso   1.00
H539   H     0.34305   0.28180   0.00898   0.00000  Uiso   1.00
H540   H     0.26288   0.16929   0.11221   0.00000  Uiso   1.00
H541   H     0.51454   0.38878   0.28775   0.00000  Uiso   1.00
H542   H     0.30360   0.32801   0.91684   0.00000  Uiso   1.00
H543   H     0.13454   0.09076   0.13453   0.00000  Uiso   1.00
O544   O     0.43764   0.49191   0.38978   0.00000  Uiso   1.00
O545   O     0.16089   0.41218   0.90317   0.00000  Uiso   1.00
O546   O     0.93907   0.10091   0.18877   0.00000  Uiso   1.00
N547   N     0.28890   0.48221   0.34952   0.00000  Uiso   1.00
N548   N     0.09170   0.42541   0.00275   0.00000  Uiso   1.00
N549   N     0.93363   0.20359   0.20625   0.00000  Uiso   1.00
N550   N     0.43781   0.41139   0.29835   0.00000  Uiso   1.00
N551   N     0.24060   0.35458   0.95158   0.00000  Uiso   1.00
N552   N     0.08253   0.13276   0.15508   0.00000  Uiso   1.00
