data_job_00588
_audit_creation_date              2018-12-19
_audit_creation_method            'Materials Studio'
_symmetry_space_group_name_H-M    'P1'
_symmetry_Int_Tables_number       1
_symmetry_cell_setting            triclinic
loop_
_symmetry_equiv_pos_as_xyz
  x,y,z
_cell_length_a                    15.5023
_cell_length_b                    18.4957
_cell_length_c                    15.8092
_cell_angle_alpha                 90.0000
_cell_angle_beta                  97.4031
_cell_angle_gamma                 90.0000
loop_
_atom_site_label
_atom_site_type_symbol
_atom_site_fract_x
_atom_site_fract_y
_atom_site_fract_z
_atom_site_U_iso_or_equiv
_atom_site_adp_type
_atom_site_occupancy
C1     C     0.75993   0.01321   0.22952   0.00000  Uiso   1.00
C2     C     0.78475   0.06976   0.16675   0.00000  Uiso   1.00
C3     C     0.76495   0.06679   0.07867   0.00000  Uiso   1.00
C4     C     0.79348   0.12386   0.03244   0.00000  Uiso   1.00
C5     C     0.82497   0.20284   0.92881   0.00000  Uiso   1.00
C6     C     0.84486   0.98953   0.28167   0.00000  Uiso   1.00
C7     C     0.87559   0.91909   0.29023   0.00000  Uiso   1.00
C8     C     0.95473   0.90862   0.34075   0.00000  Uiso   1.00
C9     C     0.07950   0.86302   0.41559   0.00000  Uiso   1.00
C10    C     0.70904   0.05343   0.29121   0.00000  Uiso   1.00
C11    C     0.62558   0.03671   0.30782   0.00000  Uiso   1.00
C12    C     0.59036   0.08004   0.36639   0.00000  Uiso   1.00
C13    C     0.50425   0.13367   0.45604   0.00000  Uiso   1.00
C14    C     0.84581   0.11987   0.30404   0.00000  Uiso   1.00
C15    C     0.83140   0.12770   0.20722   0.00000  Uiso   1.00
C16    C     0.85997   0.18479   0.16111   0.00000  Uiso   1.00
C17    C     0.84021   0.18190   0.07298   0.00000  Uiso   1.00
C18    C     0.89151   0.04746   0.32214   0.00000  Uiso   1.00
C19    C     0.97061   0.03709   0.37267   0.00000  Uiso   1.00
C20    C     0.00146   0.96666   0.38130   0.00000  Uiso   1.00
C21    C     0.75568   0.11137   0.33169   0.00000  Uiso   1.00
C22    C     0.72059   0.15472   0.39025   0.00000  Uiso   1.00
C23    C     0.63709   0.13808   0.40693   0.00000  Uiso   1.00
H24    H     0.72362   0.96811   0.19802   0.00000  Uiso   1.00
H25    H     0.72886   0.02194   0.04738   0.00000  Uiso   1.00
H26    H     0.83948   0.87426   0.25891   0.00000  Uiso   1.00
H27    H     0.58950   0.99188   0.27648   0.00000  Uiso   1.00
H28    H     0.75526   0.10716   0.89821   0.00000  Uiso   1.00
H29    H     0.98850   0.79578   0.34426   0.00000  Uiso   1.00
H30    H     0.46137   0.04378   0.38132   0.00000  Uiso   1.00
H31    H     0.88213   0.16498   0.33555   0.00000  Uiso   1.00
H32    H     0.89606   0.22962   0.19245   0.00000  Uiso   1.00
H33    H     0.00669   0.08194   0.40398   0.00000  Uiso   1.00
H34    H     0.75671   0.19955   0.42156   0.00000  Uiso   1.00
H35    H     0.89098   0.27572   0.01595   0.00000  Uiso   1.00
H36    H     0.12421   0.96433   0.46201   0.00000  Uiso   1.00
H37    H     0.59709   0.21234   0.49907   0.00000  Uiso   1.00
O38    O     0.82945   0.23040   0.86046   0.00000  Uiso   1.00
O39    O     0.13544   0.82187   0.44568   0.00000  Uiso   1.00
O40    O     0.44386   0.14725   0.49430   0.00000  Uiso   1.00
N41    N     0.78528   0.13797   0.94556   0.00000  Uiso   1.00
N42    N     0.00335   0.84684   0.36258   0.00000  Uiso   1.00
N43    N     0.51054   0.07869   0.39725   0.00000  Uiso   1.00
N44    N     0.85830   0.22867   0.00892   0.00000  Uiso   1.00
N45    N     0.07637   0.93754   0.42594   0.00000  Uiso   1.00
N46    N     0.58356   0.16939   0.46060   0.00000  Uiso   1.00
C47    C     0.25993   0.51321   0.22952   0.00000  Uiso   1.00
C48    C     0.28475   0.56976   0.16675   0.00000  Uiso   1.00
C49    C     0.26495   0.56679   0.07867   0.00000  Uiso   1.00
C50    C     0.29348   0.62386   0.03244   0.00000  Uiso   1.00
C51    C     0.32497   0.70284   0.92881   0.00000  Uiso   1.00
C52    C     0.34486   0.48953   0.28167   0.00000  Uiso   1.00
C53    C     0.37559   0.41909   0.29023   0.00000  Uiso   1.00
C54    C     0.45473   0.40862   0.34075   0.00000  Uiso   1.00
C55    C     0.57950   0.36302   0.41559   0.00000  Uiso   1.00
C56    C     0.20904   0.55343   0.29121   0.00000  Uiso   1.00
C57    C     0.12558   0.53671   0.30782   0.00000  Uiso   1.00
C58    C     0.09036   0.58004   0.36639   0.00000  Uiso   1.00
C59    C     0.00425   0.63367   0.45604   0.00000  Uiso   1.00
C60    C     0.34581   0.61987   0.30404   0.00000  Uiso   1.00
C61    C     0.33140   0.62770   0.20722   0.00000  Uiso   1.00
C62    C     0.35997   0.68479   0.16111   0.00000  Uiso   1.00
C63    C     0.34021   0.68190   0.07298   0.00000  Uiso   1.00
C64    C     0.39151   0.54746   0.32214   0.00000  Uiso   1.00
C65    C     0.47061   0.53709   0.37267   0.00000  Uiso   1.00
C66    C     0.50146   0.46666   0.38130   0.00000  Uiso   1.00
C67    C     0.25568   0.61137   0.33169   0.00000  Uiso   1.00
C68    C     0.22059   0.65472   0.39025   0.00000  Uiso   1.00
C69    C     0.13709   0.63808   0.40693   0.00000  Uiso   1.00
H70    H     0.22362   0.46811   0.19802   0.00000  Uiso   1.00
H71    H     0.22886   0.52194   0.04738   0.00000  Uiso   1.00
H72    H     0.33948   0.37426   0.25891   0.00000  Uiso   1.00
H73    H     0.08950   0.49188   0.27648   0.00000  Uiso   1.00
H74    H     0.25526   0.60716   0.89821   0.00000  Uiso   1.00
H75    H     0.48850   0.29578   0.34426   0.00000  Uiso   1.00
H76    H     0.96137   0.54378   0.38132   0.00000  Uiso   1.00
H77    H     0.38213   0.66498   0.33555   0.00000  Uiso   1.00
H78    H     0.39606   0.72962   0.19245   0.00000  Uiso   1.00
H79    H     0.50669   0.58194   0.40398   0.00000  Uiso   1.00
H80    H     0.25671   0.69955   0.42156   0.00000  Uiso   1.00
H81    H     0.39098   0.77572   0.01595   0.00000  Uiso   1.00
H82    H     0.62421   0.46433   0.46201   0.00000  Uiso   1.00
H83    H     0.09709   0.71234   0.49907   0.00000  Uiso   1.00
O84    O     0.32945   0.73040   0.86046   0.00000  Uiso   1.00
O85    O     0.63544   0.32187   0.44568   0.00000  Uiso   1.00
O86    O     0.94386   0.64725   0.49430   0.00000  Uiso   1.00
N87    N     0.28528   0.63797   0.94556   0.00000  Uiso   1.00
N88    N     0.50335   0.34684   0.36258   0.00000  Uiso   1.00
N89    N     0.01054   0.57869   0.39725   0.00000  Uiso   1.00
N90    N     0.35830   0.72867   0.00892   0.00000  Uiso   1.00
N91    N     0.57637   0.43754   0.42594   0.00000  Uiso   1.00
N92    N     0.08356   0.66939   0.46060   0.00000  Uiso   1.00
C93    C     0.24007   0.01321   0.27048   0.00000  Uiso   1.00
C94    C     0.21525   0.06976   0.33325   0.00000  Uiso   1.00
C95    C     0.23505   0.06679   0.42133   0.00000  Uiso   1.00
C96    C     0.20652   0.12386   0.46756   0.00000  Uiso   1.00
C97    C     0.17503   0.20284   0.57119   0.00000  Uiso   1.00
C98    C     0.15514   0.98953   0.21833   0.00000  Uiso   1.00
C99    C     0.12441   0.91909   0.20977   0.00000  Uiso   1.00
C100   C     0.04527   0.90862   0.15925   0.00000  Uiso   1.00
C101   C     0.92050   0.86302   0.08441   0.00000  Uiso   1.00
C102   C     0.29096   0.05343   0.20879   0.00000  Uiso   1.00
C103   C     0.37442   0.03671   0.19218   0.00000  Uiso   1.00
C104   C     0.40964   0.08004   0.13361   0.00000  Uiso   1.00
C105   C     0.49575   0.13367   0.04396   0.00000  Uiso   1.00
C106   C     0.15419   0.11987   0.19596   0.00000  Uiso   1.00
C107   C     0.16860   0.12770   0.29278   0.00000  Uiso   1.00
C108   C     0.14003   0.18479   0.33889   0.00000  Uiso   1.00
C109   C     0.15979   0.18190   0.42702   0.00000  Uiso   1.00
C110   C     0.10849   0.04746   0.17786   0.00000  Uiso   1.00
C111   C     0.02939   0.03709   0.12733   0.00000  Uiso   1.00
C112   C     0.99854   0.96666   0.11870   0.00000  Uiso   1.00
C113   C     0.24432   0.11137   0.16831   0.00000  Uiso   1.00
C114   C     0.27941   0.15472   0.10975   0.00000  Uiso   1.00
C115   C     0.36291   0.13808   0.09307   0.00000  Uiso   1.00
H116   H     0.27638   0.96811   0.30198   0.00000  Uiso   1.00
H117   H     0.27114   0.02194   0.45262   0.00000  Uiso   1.00
H118   H     0.16052   0.87426   0.24109   0.00000  Uiso   1.00
H119   H     0.41050   0.99188   0.22352   0.00000  Uiso   1.00
H120   H     0.24474   0.10716   0.60179   0.00000  Uiso   1.00
H121   H     0.01150   0.79578   0.15574   0.00000  Uiso   1.00
H122   H     0.53863   0.04378   0.11868   0.00000  Uiso   1.00
H123   H     0.11787   0.16498   0.16445   0.00000  Uiso   1.00
H124   H     0.10394   0.22962   0.30755   0.00000  Uiso   1.00
H125   H     0.99331   0.08194   0.09602   0.00000  Uiso   1.00
H126   H     0.24329   0.19955   0.07844   0.00000  Uiso   1.00
H127   H     0.10902   0.27572   0.48405   0.00000  Uiso   1.00
H128   H     0.87579   0.96433   0.03799   0.00000  Uiso   1.00
H129   H     0.40291   0.21234   0.00093   0.00000  Uiso   1.00
O130   O     0.17055   0.23040   0.63954   0.00000  Uiso   1.00
O131   O     0.86456   0.82187   0.05432   0.00000  Uiso   1.00
O132   O     0.55614   0.14725   0.00570   0.00000  Uiso   1.00
N133   N     0.21472   0.13797   0.55444   0.00000  Uiso   1.00
N134   N     0.99665   0.84684   0.13742   0.00000  Uiso   1.00
N135   N     0.48946   0.07869   0.10275   0.00000  Uiso   1.00
N136   N     0.14170   0.22867   0.49108   0.00000  Uiso   1.00
N137   N     0.92363   0.93754   0.07406   0.00000  Uiso   1.00
N138   N     0.41644   0.16939   0.03940   0.00000  Uiso   1.00
C139   C     0.74007   0.51321   0.27048   0.00000  Uiso   1.00
C140   C     0.71525   0.56976   0.33325   0.00000  Uiso   1.00
C141   C     0.73505   0.56679   0.42133   0.00000  Uiso   1.00
C142   C     0.70652   0.62386   0.46756   0.00000  Uiso   1.00
C143   C     0.67503   0.70284   0.57119   0.00000  Uiso   1.00
C144   C     0.65514   0.48953   0.21833   0.00000  Uiso   1.00
C145   C     0.62441   0.41909   0.20977   0.00000  Uiso   1.00
C146   C     0.54527   0.40862   0.15925   0.00000  Uiso   1.00
C147   C     0.42050   0.36302   0.08441   0.00000  Uiso   1.00
C148   C     0.79096   0.55343   0.20879   0.00000  Uiso   1.00
C149   C     0.87442   0.53671   0.19218   0.00000  Uiso   1.00
C150   C     0.90964   0.58004   0.13361   0.00000  Uiso   1.00
C151   C     0.99575   0.63367   0.04396   0.00000  Uiso   1.00
C152   C     0.65419   0.61987   0.19596   0.00000  Uiso   1.00
C153   C     0.66860   0.62770   0.29278   0.00000  Uiso   1.00
C154   C     0.64003   0.68479   0.33889   0.00000  Uiso   1.00
C155   C     0.65979   0.68190   0.42702   0.00000  Uiso   1.00
C156   C     0.60849   0.54746   0.17786   0.00000  Uiso   1.00
C157   C     0.52939   0.53709   0.12733   0.00000  Uiso   1.00
C158   C     0.49854   0.46666   0.11870   0.00000  Uiso   1.00
C159   C     0.74432   0.61137   0.16831   0.00000  Uiso   1.00
C160   C     0.77941   0.65472   0.10975   0.00000  Uiso   1.00
C161   C     0.86291   0.63808   0.09307   0.00000  Uiso   1.00
H162   H     0.77638   0.46811   0.30198   0.00000  Uiso   1.00
H163   H     0.77114   0.52194   0.45262   0.00000  Uiso   1.00
H164   H     0.66052   0.37426   0.24109   0.00000  Uiso   1.00
H165   H     0.91050   0.49188   0.22352   0.00000  Uiso   1.00
H166   H     0.74474   0.60716   0.60179   0.00000  Uiso   1.00
H167   H     0.51150   0.29578   0.15574   0.00000  Uiso   1.00
H168   H     0.03863   0.54378   0.11868   0.00000  Uiso   1.00
H169   H     0.61787   0.66498   0.16445   0.00000  Uiso   1.00
H170   H     0.60394   0.72962   0.30755   0.00000  Uiso   1.00
H171   H     0.49331   0.58194   0.09602   0.00000  Uiso   1.00
H172   H     0.74329   0.69955   0.07844   0.00000  Uiso   1.00
H173   H     0.60902   0.77572   0.48405   0.00000  Uiso   1.00
H174   H     0.37579   0.46433   0.03799   0.00000  Uiso   1.00
H175   H     0.90291   0.71234   0.00093   0.00000  Uiso   1.00
O176   O     0.67055   0.73040   0.63954   0.00000  Uiso   1.00
O177   O     0.36456   0.32187   0.05432   0.00000  Uiso   1.00
O178   O     0.05614   0.64725   0.00570   0.00000  Uiso   1.00
N179   N     0.71472   0.63797   0.55444   0.00000  Uiso   1.00
N180   N     0.49665   0.34684   0.13742   0.00000  Uiso   1.00
N181   N     0.98946   0.57869   0.10275   0.00000  Uiso   1.00
N182   N     0.64170   0.72867   0.49108   0.00000  Uiso   1.00
N183   N     0.42363   0.43754   0.07406   0.00000  Uiso   1.00
N184   N     0.91644   0.66939   0.03940   0.00000  Uiso   1.00
C185   C     0.24007   0.98679   0.77048   0.00000  Uiso   1.00
C186   C     0.21525   0.93024   0.83325   0.00000  Uiso   1.00
C187   C     0.23505   0.93321   0.92133   0.00000  Uiso   1.00
C188   C     0.20652   0.87614   0.96756   0.00000  Uiso   1.00
C189   C     0.17503   0.79716   0.07119   0.00000  Uiso   1.00
C190   C     0.15514   0.01047   0.71833   0.00000  Uiso   1.00
C191   C     0.12441   0.08091   0.70977   0.00000  Uiso   1.00
C192   C     0.04527   0.09138   0.65925   0.00000  Uiso   1.00
C193   C     0.92050   0.13698   0.58441   0.00000  Uiso   1.00
C194   C     0.29096   0.94657   0.70879   0.00000  Uiso   1.00
C195   C     0.37442   0.96329   0.69218   0.00000  Uiso   1.00
C196   C     0.40964   0.91996   0.63361   0.00000  Uiso   1.00
C197   C     0.49575   0.86633   0.54396   0.00000  Uiso   1.00
C198   C     0.15419   0.88013   0.69596   0.00000  Uiso   1.00
C199   C     0.16860   0.87230   0.79278   0.00000  Uiso   1.00
C200   C     0.14003   0.81521   0.83889   0.00000  Uiso   1.00
C201   C     0.15979   0.81810   0.92702   0.00000  Uiso   1.00
C202   C     0.10849   0.95254   0.67786   0.00000  Uiso   1.00
C203   C     0.02939   0.96291   0.62733   0.00000  Uiso   1.00
C204   C     0.99854   0.03334   0.61870   0.00000  Uiso   1.00
C205   C     0.24432   0.88863   0.66831   0.00000  Uiso   1.00
C206   C     0.27941   0.84528   0.60975   0.00000  Uiso   1.00
C207   C     0.36291   0.86192   0.59307   0.00000  Uiso   1.00
H208   H     0.27638   0.03189   0.80198   0.00000  Uiso   1.00
H209   H     0.27114   0.97806   0.95262   0.00000  Uiso   1.00
H210   H     0.16052   0.12574   0.74109   0.00000  Uiso   1.00
H211   H     0.41050   0.00812   0.72352   0.00000  Uiso   1.00
H212   H     0.24474   0.89284   0.10179   0.00000  Uiso   1.00
H213   H     0.01150   0.20422   0.65574   0.00000  Uiso   1.00
H214   H     0.53863   0.95622   0.61868   0.00000  Uiso   1.00
H215   H     0.11787   0.83502   0.66445   0.00000  Uiso   1.00
H216   H     0.10394   0.77038   0.80755   0.00000  Uiso   1.00
H217   H     0.99331   0.91806   0.59602   0.00000  Uiso   1.00
H218   H     0.24329   0.80045   0.57844   0.00000  Uiso   1.00
H219   H     0.10902   0.72428   0.98405   0.00000  Uiso   1.00
H220   H     0.87579   0.03567   0.53799   0.00000  Uiso   1.00
H221   H     0.40291   0.78766   0.50093   0.00000  Uiso   1.00
O222   O     0.17055   0.76960   0.13954   0.00000  Uiso   1.00
O223   O     0.86456   0.17813   0.55432   0.00000  Uiso   1.00
O224   O     0.55614   0.85275   0.50570   0.00000  Uiso   1.00
N225   N     0.21472   0.86203   0.05444   0.00000  Uiso   1.00
N226   N     0.99665   0.15316   0.63742   0.00000  Uiso   1.00
N227   N     0.48946   0.92131   0.60275   0.00000  Uiso   1.00
N228   N     0.14170   0.77133   0.99108   0.00000  Uiso   1.00
N229   N     0.92363   0.06246   0.57406   0.00000  Uiso   1.00
N230   N     0.41644   0.83061   0.53940   0.00000  Uiso   1.00
C231   C     0.74007   0.48679   0.77048   0.00000  Uiso   1.00
C232   C     0.71525   0.43024   0.83325   0.00000  Uiso   1.00
C233   C     0.73505   0.43321   0.92133   0.00000  Uiso   1.00
C234   C     0.70652   0.37614   0.96756   0.00000  Uiso   1.00
C235   C     0.67503   0.29716   0.07119   0.00000  Uiso   1.00
C236   C     0.65514   0.51047   0.71833   0.00000  Uiso   1.00
C237   C     0.62441   0.58091   0.70977   0.00000  Uiso   1.00
C238   C     0.54527   0.59138   0.65925   0.00000  Uiso   1.00
C239   C     0.42050   0.63698   0.58441   0.00000  Uiso   1.00
C240   C     0.79096   0.44657   0.70879   0.00000  Uiso   1.00
C241   C     0.87442   0.46329   0.69218   0.00000  Uiso   1.00
C242   C     0.90964   0.41996   0.63361   0.00000  Uiso   1.00
C243   C     0.99575   0.36633   0.54396   0.00000  Uiso   1.00
C244   C     0.65419   0.38013   0.69596   0.00000  Uiso   1.00
C245   C     0.66860   0.37230   0.79278   0.00000  Uiso   1.00
C246   C     0.64003   0.31521   0.83889   0.00000  Uiso   1.00
C247   C     0.65979   0.31810   0.92702   0.00000  Uiso   1.00
C248   C     0.60849   0.45254   0.67786   0.00000  Uiso   1.00
C249   C     0.52939   0.46291   0.62733   0.00000  Uiso   1.00
C250   C     0.49854   0.53334   0.61870   0.00000  Uiso   1.00
C251   C     0.74432   0.38863   0.66831   0.00000  Uiso   1.00
C252   C     0.77941   0.34528   0.60975   0.00000  Uiso   1.00
C253   C     0.86291   0.36192   0.59307   0.00000  Uiso   1.00
H254   H     0.77638   0.53189   0.80198   0.00000  Uiso   1.00
H255   H     0.77114   0.47806   0.95262   0.00000  Uiso   1.00
H256   H     0.66052   0.62574   0.74109   0.00000  Uiso   1.00
H257   H     0.91050   0.50812   0.72352   0.00000  Uiso   1.00
H258   H     0.74474   0.39284   0.10179   0.00000  Uiso   1.00
H259   H     0.51150   0.70422   0.65574   0.00000  Uiso   1.00
H260   H     0.03863   0.45622   0.61868   0.00000  Uiso   1.00
H261   H     0.61787   0.33502   0.66445   0.00000  Uiso   1.00
H262   H     0.60394   0.27038   0.80755   0.00000  Uiso   1.00
H263   H     0.49331   0.41806   0.59602   0.00000  Uiso   1.00
H264   H     0.74329   0.30045   0.57844   0.00000  Uiso   1.00
H265   H     0.60902   0.22428   0.98405   0.00000  Uiso   1.00
H266   H     0.37579   0.53567   0.53799   0.00000  Uiso   1.00
H267   H     0.90291   0.28766   0.50093   0.00000  Uiso   1.00
O268   O     0.67055   0.26960   0.13954   0.00000  Uiso   1.00
O269   O     0.36456   0.67813   0.55432   0.00000  Uiso   1.00
O270   O     0.05614   0.35275   0.50570   0.00000  Uiso   1.00
N271   N     0.71472   0.36203   0.05444   0.00000  Uiso   1.00
N272   N     0.49665   0.65316   0.63742   0.00000  Uiso   1.00
N273   N     0.98946   0.42131   0.60275   0.00000  Uiso   1.00
N274   N     0.64170   0.27133   0.99108   0.00000  Uiso   1.00
N275   N     0.42363   0.56246   0.57406   0.00000  Uiso   1.00
N276   N     0.91644   0.33061   0.53940   0.00000  Uiso   1.00
C277   C     0.75993   0.98679   0.72952   0.00000  Uiso   1.00
C278   C     0.78475   0.93024   0.66675   0.00000  Uiso   1.00
C279   C     0.76495   0.93321   0.57867   0.00000  Uiso   1.00
C280   C     0.79348   0.87614   0.53244   0.00000  Uiso   1.00
C281   C     0.82497   0.79716   0.42881   0.00000  Uiso   1.00
C282   C     0.84486   0.01047   0.78167   0.00000  Uiso   1.00
C283   C     0.87559   0.08091   0.79023   0.00000  Uiso   1.00
C284   C     0.95473   0.09138   0.84075   0.00000  Uiso   1.00
C285   C     0.07950   0.13698   0.91559   0.00000  Uiso   1.00
C286   C     0.70904   0.94657   0.79121   0.00000  Uiso   1.00
C287   C     0.62558   0.96329   0.80782   0.00000  Uiso   1.00
C288   C     0.59036   0.91996   0.86639   0.00000  Uiso   1.00
C289   C     0.50425   0.86633   0.95604   0.00000  Uiso   1.00
C290   C     0.84581   0.88013   0.80404   0.00000  Uiso   1.00
C291   C     0.83140   0.87230   0.70722   0.00000  Uiso   1.00
C292   C     0.85997   0.81521   0.66111   0.00000  Uiso   1.00
C293   C     0.84021   0.81810   0.57298   0.00000  Uiso   1.00
C294   C     0.89151   0.95254   0.82214   0.00000  Uiso   1.00
C295   C     0.97061   0.96291   0.87267   0.00000  Uiso   1.00
C296   C     0.00146   0.03334   0.88130   0.00000  Uiso   1.00
C297   C     0.75568   0.88863   0.83169   0.00000  Uiso   1.00
C298   C     0.72059   0.84528   0.89025   0.00000  Uiso   1.00
C299   C     0.63709   0.86192   0.90693   0.00000  Uiso   1.00
H300   H     0.72362   0.03189   0.69802   0.00000  Uiso   1.00
H301   H     0.72886   0.97806   0.54738   0.00000  Uiso   1.00
H302   H     0.83948   0.12574   0.75891   0.00000  Uiso   1.00
H303   H     0.58950   0.00812   0.77648   0.00000  Uiso   1.00
H304   H     0.75526   0.89284   0.39821   0.00000  Uiso   1.00
H305   H     0.98850   0.20422   0.84426   0.00000  Uiso   1.00
H306   H     0.46137   0.95622   0.88132   0.00000  Uiso   1.00
H307   H     0.88213   0.83502   0.83555   0.00000  Uiso   1.00
H308   H     0.89606   0.77038   0.69245   0.00000  Uiso   1.00
H309   H     0.00669   0.91806   0.90398   0.00000  Uiso   1.00
H310   H     0.75671   0.80045   0.92156   0.00000  Uiso   1.00
H311   H     0.89098   0.72428   0.51595   0.00000  Uiso   1.00
H312   H     0.12421   0.03567   0.96201   0.00000  Uiso   1.00
H313   H     0.59709   0.78766   0.99907   0.00000  Uiso   1.00
O314   O     0.82945   0.76960   0.36046   0.00000  Uiso   1.00
O315   O     0.13544   0.17813   0.94568   0.00000  Uiso   1.00
O316   O     0.44386   0.85275   0.99430   0.00000  Uiso   1.00
N317   N     0.78528   0.86203   0.44556   0.00000  Uiso   1.00
N318   N     0.00335   0.15316   0.86258   0.00000  Uiso   1.00
N319   N     0.51054   0.92131   0.89725   0.00000  Uiso   1.00
N320   N     0.85830   0.77133   0.50892   0.00000  Uiso   1.00
N321   N     0.07637   0.06246   0.92594   0.00000  Uiso   1.00
N322   N     0.58356   0.83061   0.96060   0.00000  Uiso   1.00
C323   C     0.25993   0.48679   0.72952   0.00000  Uiso   1.00
C324   C     0.28475   0.43024   0.66675   0.00000  Uiso   1.00
C325   C     0.26495   0.43321   0.57867   0.00000  Uiso   1.00
C326   C     0.29348   0.37614   0.53244   0.00000  Uiso   1.00
C327   C     0.32497   0.29716   0.42881   0.00000  Uiso   1.00
C328   C     0.34486   0.51047   0.78167   0.00000  Uiso   1.00
C329   C     0.37559   0.58091   0.79023   0.00000  Uiso   1.00
C330   C     0.45473   0.59138   0.84075   0.00000  Uiso   1.00
C331   C     0.57950   0.63698   0.91559   0.00000  Uiso   1.00
C332   C     0.20904   0.44657   0.79121   0.00000  Uiso   1.00
C333   C     0.12558   0.46329   0.80782   0.00000  Uiso   1.00
C334   C     0.09036   0.41996   0.86639   0.00000  Uiso   1.00
C335   C     0.00425   0.36633   0.95604   0.00000  Uiso   1.00
C336   C     0.34581   0.38013   0.80404   0.00000  Uiso   1.00
C337   C     0.33140   0.37230   0.70722   0.00000  Uiso   1.00
C338   C     0.35997   0.31521   0.66111   0.00000  Uiso   1.00
C339   C     0.34021   0.31810   0.57298   0.00000  Uiso   1.00
C340   C     0.39151   0.45254   0.82214   0.00000  Uiso   1.00
C341   C     0.47061   0.46291   0.87267   0.00000  Uiso   1.00
C342   C     0.50146   0.53334   0.88130   0.00000  Uiso   1.00
C343   C     0.25568   0.38863   0.83169   0.00000  Uiso   1.00
C344   C     0.22059   0.34528   0.89025   0.00000  Uiso   1.00
C345   C     0.13709   0.36192   0.90693   0.00000  Uiso   1.00
H346   H     0.22362   0.53189   0.69802   0.00000  Uiso   1.00
H347   H     0.22886   0.47806   0.54738   0.00000  Uiso   1.00
H348   H     0.33948   0.62574   0.75891   0.00000  Uiso   1.00
H349   H     0.08950   0.50812   0.77648   0.00000  Uiso   1.00
H350   H     0.25526   0.39284   0.39821   0.00000  Uiso   1.00
H351   H     0.48850   0.70422   0.84426   0.00000  Uiso   1.00
H352   H     0.96137   0.45622   0.88132   0.00000  Uiso   1.00
H353   H     0.38213   0.33502   0.83555   0.00000  Uiso   1.00
H354   H     0.39606   0.27038   0.69245   0.00000  Uiso   1.00
H355   H     0.50669   0.41806   0.90398   0.00000  Uiso   1.00
H356   H     0.25671   0.30045   0.92156   0.00000  Uiso   1.00
H357   H     0.39098   0.22428   0.51595   0.00000  Uiso   1.00
H358   H     0.62421   0.53567   0.96201   0.00000  Uiso   1.00
H359   H     0.09709   0.28766   0.99907   0.00000  Uiso   1.00
O360   O     0.32945   0.26960   0.36046   0.00000  Uiso   1.00
O361   O     0.63544   0.67813   0.94568   0.00000  Uiso   1.00
O362   O     0.94386   0.35275   0.99430   0.00000  Uiso   1.00
N363   N     0.28528   0.36203   0.44556   0.00000  Uiso   1.00
N364   N     0.50335   0.65316   0.86258   0.00000  Uiso   1.00
N365   N     0.01054   0.42131   0.89725   0.00000  Uiso   1.00
N366   N     0.35830   0.27133   0.50892   0.00000  Uiso   1.00
N367   N     0.57637   0.56246   0.92594   0.00000  Uiso   1.00
N368   N     0.08356   0.33061   0.96060   0.00000  Uiso   1.00
