data_job_07052
_audit_creation_date              2018-12-19
_audit_creation_method            'Materials Studio'
_symmetry_space_group_name_H-M    'P1'
_symmetry_Int_Tables_number       1
_symmetry_cell_setting            triclinic
loop_
_symmetry_equiv_pos_as_xyz
  x,y,z
_cell_length_a                    24.1938
_cell_length_b                    21.2589
_cell_length_c                    20.6260
_cell_angle_alpha                 71.2353
_cell_angle_beta                  77.0196
_cell_angle_gamma                 70.4747
loop_
_atom_site_label
_atom_site_type_symbol
_atom_site_fract_x
_atom_site_fract_y
_atom_site_fract_z
_atom_site_U_iso_or_equiv
_atom_site_adp_type
_atom_site_occupancy
C1     C     0.07883   0.36644   0.70358   0.00000  Uiso   1.00
C2     C     0.12436   0.29556   0.71932   0.00000  Uiso   1.00
C3     C     0.12654   0.24616   0.78271   0.00000  Uiso   1.00
C4     C     0.17164   0.18459   0.78657   0.00000  Uiso   1.00
C5     C     0.23605   0.07633   0.81978   0.00000  Uiso   1.00
C6     C     0.11403   0.41935   0.67558   0.00000  Uiso   1.00
C7     C     0.10752   0.47402   0.70218   0.00000  Uiso   1.00
C8     C     0.14393   0.51665   0.66921   0.00000  Uiso   1.00
C9     C     0.19228   0.60060   0.63447   0.00000  Uiso   1.00
C10    C     0.05034   0.36968   0.64327   0.00000  Uiso   1.00
C11    C     0.99027   0.38261   0.64271   0.00000  Uiso   1.00
C12    C     0.97305   0.38344   0.58253   0.00000  Uiso   1.00
C13    C     0.92251   0.39026   0.49764   0.00000  Uiso   1.00
C14    C     0.15505   0.34494   0.59770   0.00000  Uiso   1.00
C15    C     0.16576   0.28389   0.66182   0.00000  Uiso   1.00
C16    C     0.21087   0.22238   0.66558   0.00000  Uiso   1.00
C17    C     0.21311   0.17289   0.72897   0.00000  Uiso   1.00
C18    C     0.15543   0.40767   0.61808   0.00000  Uiso   1.00
C19    C     0.19185   0.45024   0.58505   0.00000  Uiso   1.00
C20    C     0.18540   0.50496   0.61160   0.00000  Uiso   1.00
C21    C     0.09174   0.35800   0.58577   0.00000  Uiso   1.00
C22    C     0.07460   0.35882   0.52558   0.00000  Uiso   1.00
C23    C     0.01452   0.37175   0.52492   0.00000  Uiso   1.00
H24    H     0.04660   0.37553   0.74834   0.00000  Uiso   1.00
H25    H     0.09449   0.25522   0.82721   0.00000  Uiso   1.00
H26    H     0.07547   0.48304   0.74668   0.00000  Uiso   1.00
H27    H     0.95825   0.39164   0.68722   0.00000  Uiso   1.00
H28    H     0.16586   0.11669   0.88929   0.00000  Uiso   1.00
H29    H     0.12575   0.59709   0.71948   0.00000  Uiso   1.00
H30    H     0.87855   0.40435   0.59409   0.00000  Uiso   1.00
H31    H     0.18728   0.33586   0.55293   0.00000  Uiso   1.00
H32    H     0.24290   0.21336   0.62107   0.00000  Uiso   1.00
H33    H     0.22388   0.44119   0.54055   0.00000  Uiso   1.00
H34    H     0.10665   0.34979   0.48109   0.00000  Uiso   1.00
H35    H     0.28632   0.08272   0.72198   0.00000  Uiso   1.00
H36    H     0.24620   0.56312   0.55218   0.00000  Uiso   1.00
H37    H     0.99900   0.37038   0.42679   0.00000  Uiso   1.00
O38    O     0.26015   0.01985   0.85399   0.00000  Uiso   1.00
O39    O     0.20751   0.65012   0.63121   0.00000  Uiso   1.00
O40    O     0.88319   0.39724   0.46670   0.00000  Uiso   1.00
N41    N     0.18657   0.12550   0.84056   0.00000  Uiso   1.00
N42    N     0.14907   0.57464   0.68181   0.00000  Uiso   1.00
N43    N     0.91796   0.39446   0.56457   0.00000  Uiso   1.00
N44    N     0.25139   0.10722   0.75053   0.00000  Uiso   1.00
N45    N     0.21389   0.55636   0.59178   0.00000  Uiso   1.00
N46    N     0.98278   0.37618   0.47454   0.00000  Uiso   1.00
C47    C     0.40686   0.95240   0.65994   0.00000  Uiso   1.00
C48    C     0.45319   0.97174   0.59963   0.00000  Uiso   1.00
C49    C     0.50377   0.92572   0.57622   0.00000  Uiso   1.00
C50    C     0.54060   0.95367   0.52034   0.00000  Uiso   1.00
C51    C     0.61458   0.97283   0.43147   0.00000  Uiso   1.00
C52    C     0.40261   0.99405   0.70972   0.00000  Uiso   1.00
C53    C     0.41066   0.96678   0.77888   0.00000  Uiso   1.00
C54    C     0.40491   0.01352   0.81568   0.00000  Uiso   1.00
C55    C     0.40034   0.06732   0.89775   0.00000  Uiso   1.00
C56    C     0.34796   0.98153   0.63098   0.00000  Uiso   1.00
C57    C     0.31004   0.94374   0.63395   0.00000  Uiso   1.00
C58    C     0.25827   0.97994   0.60446   0.00000  Uiso   1.00
C59    C     0.16883   0.01430   0.56428   0.00000  Uiso   1.00
C60    C     0.38232   0.08388   0.60232   0.00000  Uiso   1.00
C61    C     0.43986   0.04315   0.56833   0.00000  Uiso   1.00
C62    C     0.47662   0.07118   0.51247   0.00000  Uiso   1.00
C63    C     0.52725   0.02521   0.48898   0.00000  Uiso   1.00
C64    C     0.38929   0.06546   0.67843   0.00000  Uiso   1.00
C65    C     0.38352   0.11224   0.71513   0.00000  Uiso   1.00
C66    C     0.39156   0.08506   0.78432   0.00000  Uiso   1.00
C67    C     0.33463   0.05294   0.59968   0.00000  Uiso   1.00
C68    C     0.28291   0.08921   0.57019   0.00000  Uiso   1.00
C69    C     0.24492   0.05148   0.57311   0.00000  Uiso   1.00
H70    H     0.41723   0.89681   0.68431   0.00000  Uiso   1.00
H71    H     0.51407   0.87046   0.60046   0.00000  Uiso   1.00
H72    H     0.42097   0.91152   0.80309   0.00000  Uiso   1.00
H73    H     0.32037   0.88848   0.65817   0.00000  Uiso   1.00
H74    H     0.61556   0.87274   0.49371   0.00000  Uiso   1.00
H75    H     0.41924   0.95932   0.92097   0.00000  Uiso   1.00
H76    H     0.20711   0.91074   0.61539   0.00000  Uiso   1.00
H77    H     0.37195   0.13948   0.57795   0.00000  Uiso   1.00
H78    H     0.46630   0.12644   0.48826   0.00000  Uiso   1.00
H79    H     0.37321   0.16750   0.69089   0.00000  Uiso   1.00
H80    H     0.27261   0.14447   0.54598   0.00000  Uiso   1.00
H81    H     0.57680   0.08050   0.40265   0.00000  Uiso   1.00
H82    H     0.38047   0.16709   0.82991   0.00000  Uiso   1.00
H83    H     0.16834   0.11851   0.52433   0.00000  Uiso   1.00
O84    O     0.65908   0.96367   0.39111   0.00000  Uiso   1.00
O85    O     0.40150   0.07726   0.95166   0.00000  Uiso   1.00
O86    O     0.12319   0.01353   0.55075   0.00000  Uiso   1.00
N87    N     0.59348   0.92342   0.48458   0.00000  Uiso   1.00
N88    N     0.40995   0.00437   0.88404   0.00000  Uiso   1.00
N89    N     0.21161   0.95896   0.59837   0.00000  Uiso   1.00
N90    N     0.57262   0.03522   0.43558   0.00000  Uiso   1.00
N91    N     0.38909   0.11617   0.83504   0.00000  Uiso   1.00
N92    N     0.19075   0.07076   0.54937   0.00000  Uiso   1.00
C93    C     0.98812   0.74586   0.35903   0.00000  Uiso   1.00
C94    C     0.92847   0.79842   0.34417   0.00000  Uiso   1.00
C95    C     0.92004   0.86396   0.29835   0.00000  Uiso   1.00
C96    C     0.86200   0.90421   0.29211   0.00000  Uiso   1.00
C97    C     0.77666   0.98956   0.26325   0.00000  Uiso   1.00
C98    C     0.98824   0.72795   0.43678   0.00000  Uiso   1.00
C99    C     0.03007   0.73424   0.46881   0.00000  Uiso   1.00
C100   C     0.02235   0.71516   0.54052   0.00000  Uiso   1.00
C101   C     0.02983   0.69106   0.65544   0.00000  Uiso   1.00
C102   C     0.98729   0.68032   0.34438   0.00000  Uiso   1.00
C103   C     0.02832   0.64655   0.29873   0.00000  Uiso   1.00
C104   C     0.01980   0.58736   0.29266   0.00000  Uiso   1.00
C105   C     0.02580   0.48931   0.26410   0.00000  Uiso   1.00
C106   C     0.90004   0.70078   0.42943   0.00000  Uiso   1.00
C107   C     0.88063   0.77393   0.38242   0.00000  Uiso   1.00
C108   C     0.82259   0.81409   0.37624   0.00000  Uiso   1.00
C109   C     0.81407   0.87968   0.33041   0.00000  Uiso   1.00
C110   C     0.94040   0.70347   0.47502   0.00000  Uiso   1.00
C111   C     0.93262   0.68437   0.54670   0.00000  Uiso   1.00
C112   C     0.97442   0.69063   0.57883   0.00000  Uiso   1.00
C113   C     0.93945   0.65584   0.38261   0.00000  Uiso   1.00
C114   C     0.93087   0.59668   0.37662   0.00000  Uiso   1.00
C115   C     0.97188   0.56283   0.33096   0.00000  Uiso   1.00
H116   H     0.02537   0.76492   0.32926   0.00000  Uiso   1.00
H117   H     0.95708   0.88289   0.26877   0.00000  Uiso   1.00
H118   H     0.06709   0.75318   0.43920   0.00000  Uiso   1.00
H119   H     0.06534   0.66551   0.26915   0.00000  Uiso   1.00
H120   H     0.86026   0.00290   0.21859   0.00000  Uiso   1.00
H121   H     0.09225   0.72938   0.57796   0.00000  Uiso   1.00
H122   H     0.08856   0.54450   0.21936   0.00000  Uiso   1.00
H123   H     0.86279   0.68172   0.45920   0.00000  Uiso   1.00
H124   H     0.78558   0.79513   0.40584   0.00000  Uiso   1.00
H125   H     0.89559   0.66542   0.57627   0.00000  Uiso   1.00
H126   H     0.89384   0.57775   0.40621   0.00000  Uiso   1.00
H127   H     0.72107   0.93167   0.32984   0.00000  Uiso   1.00
H128   H     0.95306   0.65814   0.68921   0.00000  Uiso   1.00
H129   H     0.94936   0.47327   0.33061   0.00000  Uiso   1.00
O130   O     0.74280   0.04340   0.23678   0.00000  Uiso   1.00
O131   O     0.04717   0.68454   0.70826   0.00000  Uiso   1.00
O132   O     0.04232   0.44199   0.23778   0.00000  Uiso   1.00
N133   N     0.83810   0.97057   0.25208   0.00000  Uiso   1.00
N134   N     0.05499   0.71485   0.58807   0.00000  Uiso   1.00
N135   N     0.05154   0.54200   0.25283   0.00000  Uiso   1.00
N136   N     0.76320   0.93224   0.31195   0.00000  Uiso   1.00
N137   N     0.98009   0.67652   0.64793   0.00000  Uiso   1.00
N138   N     0.97664   0.50367   0.31269   0.00000  Uiso   1.00
C139   C     0.15277   0.26795   0.13724   0.00000  Uiso   1.00
C140   C     0.17523   0.31617   0.07168   0.00000  Uiso   1.00
C141   C     0.14041   0.37526   0.03092   0.00000  Uiso   1.00
C142   C     0.16939   0.41239   0.97304   0.00000  Uiso   1.00
C143   C     0.19491   0.49052   0.87376   0.00000  Uiso   1.00
C144   C     0.18539   0.26493   0.19391   0.00000  Uiso   1.00
C145   C     0.15911   0.28094   0.25592   0.00000  Uiso   1.00
C146   C     0.19664   0.27493   0.30093   0.00000  Uiso   1.00
C147   C     0.23793   0.27346   0.39144   0.00000  Uiso   1.00
C148   C     0.17539   0.19592   0.12537   0.00000  Uiso   1.00
C149   C     0.14070   0.15388   0.12978   0.00000  Uiso   1.00
C150   C     0.16981   0.08975   0.11710   0.00000  Uiso   1.00
C151   C     0.19557   0.98113   0.10119   0.00000  Uiso   1.00
C152   C     0.26616   0.22880   0.10692   0.00000  Uiso   1.00
C153   C     0.23682   0.29491   0.05521   0.00000  Uiso   1.00
C154   C     0.26586   0.33195   0.99737   0.00000  Uiso   1.00
C155   C     0.23109   0.39109   0.95654   0.00000  Uiso   1.00
C156   C     0.24698   0.24367   0.17744   0.00000  Uiso   1.00
C157   C     0.28456   0.23763   0.22237   0.00000  Uiso   1.00
C158   C     0.25834   0.25362   0.28444   0.00000  Uiso   1.00
C159   C     0.23698   0.17465   0.10890   0.00000  Uiso   1.00
C160   C     0.26615   0.11057   0.09622   0.00000  Uiso   1.00
C161   C     0.23151   0.06845   0.10060   0.00000  Uiso   1.00
H162   H     0.10482   0.28450   0.15007   0.00000  Uiso   1.00
H163   H     0.09275   0.39171   0.04369   0.00000  Uiso   1.00
H164   H     0.11145   0.29739   0.26865   0.00000  Uiso   1.00
H165   H     0.09304   0.17036   0.14252   0.00000  Uiso   1.00
H166   H     0.10653   0.50119   0.91849   0.00000  Uiso   1.00
H167   H     0.14595   0.30230   0.39286   0.00000  Uiso   1.00
H168   H     0.10714   0.03442   0.12689   0.00000  Uiso   1.00
H169   H     0.31411   0.21224   0.09410   0.00000  Uiso   1.00
H170   H     0.31352   0.31548   0.98464   0.00000  Uiso   1.00
H171   H     0.33222   0.22117   0.20961   0.00000  Uiso   1.00
H172   H     0.31381   0.09413   0.08348   0.00000  Uiso   1.00
H173   H     0.28572   0.43933   0.87057   0.00000  Uiso   1.00
H174   H     0.32514   0.24043   0.34494   0.00000  Uiso   1.00
H175   H     0.28633   0.97256   0.07897   0.00000  Uiso   1.00
O176   O     0.19197   0.53949   0.82355   0.00000  Uiso   1.00
O177   O     0.24368   0.27854   0.44590   0.00000  Uiso   1.00
O178   O     0.19276   0.92709   0.09695   0.00000  Uiso   1.00
N179   N     0.14878   0.47246   0.92223   0.00000  Uiso   1.00
N180   N     0.18564   0.28652   0.36573   0.00000  Uiso   1.00
N181   N     0.14935   0.03607   0.11709   0.00000  Uiso   1.00
N182   N     0.24520   0.43917   0.89644   0.00000  Uiso   1.00
N183   N     0.28206   0.25323   0.33994   0.00000  Uiso   1.00
N184   N     0.24577   0.00278   0.09130   0.00000  Uiso   1.00
C185   C     0.79874   0.88064   0.79741   0.00000  Uiso   1.00
C186   C     0.84045   0.81272   0.83330   0.00000  Uiso   1.00
C187   C     0.89550   0.77930   0.80399   0.00000  Uiso   1.00
C188   C     0.92688   0.71769   0.84537   0.00000  Uiso   1.00
C189   C     0.99514   0.61637   0.89073   0.00000  Uiso   1.00
C190   C     0.78646   0.92957   0.84247   0.00000  Uiso   1.00
C191   C     0.79610   0.99441   0.82087   0.00000  Uiso   1.00
C192   C     0.78201   0.03116   0.86996   0.00000  Uiso   1.00
C193   C     0.76641   0.11128   0.92954   0.00000  Uiso   1.00
C194   C     0.74041   0.86536   0.80253   0.00000  Uiso   1.00
C195   C     0.71133   0.87623   0.74734   0.00000  Uiso   1.00
C196   C     0.65847   0.85893   0.76281   0.00000  Uiso   1.00
C197   C     0.57138   0.83936   0.76038   0.00000  Uiso   1.00
C198   C     0.75657   0.83062   0.92301   0.00000  Uiso   1.00
C199   C     0.81755   0.78555   0.90152   0.00000  Uiso   1.00
C200   C     0.84885   0.72396   0.94295   0.00000  Uiso   1.00
C201   C     0.90393   0.69047   0.91371   0.00000  Uiso   1.00
C202   C     0.76356   0.90240   0.91069   0.00000  Uiso   1.00
C203   C     0.74945   0.93907   0.95982   0.00000  Uiso   1.00
C204   C     0.75907   0.00394   0.93830   0.00000  Uiso   1.00
C205   C     0.71751   0.83819   0.87075   0.00000  Uiso   1.00
C206   C     0.66468   0.82088   0.88630   0.00000  Uiso   1.00
C207   C     0.63553   0.83172   0.83115   0.00000  Uiso   1.00
H208   H     0.81656   0.90179   0.74430   0.00000  Uiso   1.00
H209   H     0.91321   0.80035   0.75120   0.00000  Uiso   1.00
H210   H     0.81381   0.01542   0.76807   0.00000  Uiso   1.00
H211   H     0.72906   0.89725   0.69456   0.00000  Uiso   1.00
H212   H     0.01026   0.67591   0.78894   0.00000  Uiso   1.00
H213   H     0.80067   0.12941   0.82450   0.00000  Uiso   1.00
H214   H     0.62195   0.88024   0.66950   0.00000  Uiso   1.00
H215   H     0.73874   0.80947   0.97612   0.00000  Uiso   1.00
H216   H     0.83112   0.70295   0.99574   0.00000  Uiso   1.00
H217   H     0.73173   0.91803   0.01260   0.00000  Uiso   1.00
H218   H     0.64698   0.79986   0.93910   0.00000  Uiso   1.00
H219   H     0.94364   0.59686   0.98742   0.00000  Uiso   1.00
H220   H     0.73404   0.05037   0.02298   0.00000  Uiso   1.00
H221   H     0.55533   0.80119   0.86797   0.00000  Uiso   1.00
O222   O     0.03913   0.56799   0.89691   0.00000  Uiso   1.00
O223   O     0.76414   0.16298   0.94356   0.00000  Uiso   1.00
O224   O     0.52967   0.83606   0.74020   0.00000  Uiso   1.00
N225   N     0.98190   0.67192   0.83296   0.00000  Uiso   1.00
N226   N     0.78595   0.09591   0.86621   0.00000  Uiso   1.00
N227   N     0.61886   0.86297   0.72129   0.00000  Uiso   1.00
N228   N     0.94605   0.62938   0.93975   0.00000  Uiso   1.00
N229   N     0.75010   0.05337   0.97300   0.00000  Uiso   1.00
N230   N     0.58301   0.82043   0.82809   0.00000  Uiso   1.00
C231   C     0.76639   0.53890   0.15261   0.00000  Uiso   1.00
C232   C     0.70042   0.55145   0.17823   0.00000  Uiso   1.00
C233   C     0.67476   0.50638   0.23155   0.00000  Uiso   1.00
C234   C     0.61363   0.52738   0.24718   0.00000  Uiso   1.00
C235   C     0.51639   0.53718   0.29253   0.00000  Uiso   1.00
C236   C     0.78261   0.60029   0.15802   0.00000  Uiso   1.00
C237   C     0.82606   0.59629   0.19433   0.00000  Uiso   1.00
C238   C     0.83412   0.65840   0.19294   0.00000  Uiso   1.00
C239   C     0.86452   0.74402   0.20687   0.00000  Uiso   1.00
C240   C     0.77303   0.54544   0.07562   0.00000  Uiso   1.00
C241   C     0.80843   0.49533   0.04264   0.00000  Uiso   1.00
C242   C     0.80844   0.51127   0.97186   0.00000  Uiso   1.00
C243   C     0.82395   0.51172   0.85785   0.00000  Uiso   1.00
C244   C     0.70346   0.65634   0.08554   0.00000  Uiso   1.00
C245   C     0.66624   0.61524   0.14181   0.00000  Uiso   1.00
C246   C     0.60513   0.63631   0.15736   0.00000  Uiso   1.00
C247   C     0.57938   0.59128   0.21069   0.00000  Uiso   1.00
C248   C     0.74843   0.66408   0.12160   0.00000  Uiso   1.00
C249   C     0.75644   0.72621   0.12014   0.00000  Uiso   1.00
C250   C     0.79988   0.72230   0.15644   0.00000  Uiso   1.00
C251   C     0.73885   0.60923   0.03919   0.00000  Uiso   1.00
C252   C     0.73880   0.62525   0.96844   0.00000  Uiso   1.00
C253   C     0.77420   0.57517   0.93537   0.00000  Uiso   1.00
H254   H     0.79301   0.48925   0.18096   0.00000  Uiso   1.00
H255   H     0.70122   0.45703   0.25973   0.00000  Uiso   1.00
H256   H     0.85251   0.54692   0.22251   0.00000  Uiso   1.00
H257   H     0.83488   0.44597   0.07084   0.00000  Uiso   1.00
H258   H     0.58439   0.44945   0.33101   0.00000  Uiso   1.00
H259   H     0.90340   0.63899   0.25251   0.00000  Uiso   1.00
H260   H     0.86622   0.42612   0.93269   0.00000  Uiso   1.00
H261   H     0.67685   0.70600   0.05719   0.00000  Uiso   1.00
H262   H     0.57869   0.68568   0.12916   0.00000  Uiso   1.00
H263   H     0.72998   0.77557   0.09194   0.00000  Uiso   1.00
H264   H     0.71235   0.67462   0.94027   0.00000  Uiso   1.00
H265   H     0.48494   0.63503   0.22504   0.00000  Uiso   1.00
H266   H     0.80395   0.82457   0.14654   0.00000  Uiso   1.00
H267   H     0.76677   0.61170   0.82671   0.00000  Uiso   1.00
O268   O     0.47219   0.52497   0.32762   0.00000  Uiso   1.00
O269   O     0.89072   0.77363   0.22462   0.00000  Uiso   1.00
O270   O     0.84195   0.49435   0.80502   0.00000  Uiso   1.00
N271   N     0.57446   0.49591   0.29618   0.00000  Uiso   1.00
N272   N     0.87270   0.67311   0.22280   0.00000  Uiso   1.00
N273   N     0.83796   0.47411   0.92379   0.00000  Uiso   1.00
N274   N     0.52094   0.59577   0.23916   0.00000  Uiso   1.00
N275   N     0.81919   0.77297   0.16578   0.00000  Uiso   1.00
N276   N     0.78444   0.57397   0.86676   0.00000  Uiso   1.00
C277   C     0.68089   0.59591   0.52921   0.00000  Uiso   1.00
C278   C     0.66592   0.65593   0.46518   0.00000  Uiso   1.00
C279   C     0.68499   0.65298   0.39727   0.00000  Uiso   1.00
C280   C     0.66644   0.71353   0.34600   0.00000  Uiso   1.00
C281   C     0.64870   0.79741   0.24412   0.00000  Uiso   1.00
C282   C     0.62181   0.58829   0.57107   0.00000  Uiso   1.00
C283   C     0.60379   0.52846   0.59220   0.00000  Uiso   1.00
C284   C     0.54811   0.53206   0.63008   0.00000  Uiso   1.00
C285   C     0.46190   0.51091   0.69265   0.00000  Uiso   1.00
C286   C     0.70913   0.62078   0.57175   0.00000  Uiso   1.00
C287   C     0.76453   0.58826   0.59346   0.00000  Uiso   1.00
C288   C     0.78236   0.61921   0.63193   0.00000  Uiso   1.00
C289   C     0.83172   0.64850   0.69554   0.00000  Uiso   1.00
C290   C     0.61404   0.70868   0.55894   0.00000  Uiso   1.00
C291   C     0.62961   0.71719   0.48133   0.00000  Uiso   1.00
C292   C     0.61103   0.77775   0.43015   0.00000  Uiso   1.00
C293   C     0.63007   0.77489   0.36217   0.00000  Uiso   1.00
C294   C     0.58550   0.64954   0.58722   0.00000  Uiso   1.00
C295   C     0.52983   0.65323   0.62508   0.00000  Uiso   1.00
C296   C     0.51174   0.59343   0.64626   0.00000  Uiso   1.00
C297   C     0.67282   0.68203   0.58789   0.00000  Uiso   1.00
C298   C     0.69057   0.71303   0.62634   0.00000  Uiso   1.00
C299   C     0.74598   0.68057   0.64810   0.00000  Uiso   1.00
H300   H     0.70916   0.54822   0.51664   0.00000  Uiso   1.00
H301   H     0.71309   0.60557   0.38479   0.00000  Uiso   1.00
H302   H     0.63190   0.48107   0.57970   0.00000  Uiso   1.00
H303   H     0.79261   0.54086   0.58096   0.00000  Uiso   1.00
H304   H     0.70141   0.69616   0.24573   0.00000  Uiso   1.00
H305   H     0.53024   0.43363   0.65673   0.00000  Uiso   1.00
H306   H     0.86913   0.55972   0.65937   0.00000  Uiso   1.00
H307   H     0.58577   0.75637   0.57151   0.00000  Uiso   1.00
H308   H     0.58293   0.82515   0.44266   0.00000  Uiso   1.00
H309   H     0.50175   0.70064   0.63757   0.00000  Uiso   1.00
H310   H     0.66246   0.76043   0.63883   0.00000  Uiso   1.00
H311   H     0.59577   0.87438   0.29270   0.00000  Uiso   1.00
H312   H     0.42460   0.61184   0.70370   0.00000  Uiso   1.00
H313   H     0.76349   0.73793   0.70634   0.00000  Uiso   1.00
O314   O     0.64893   0.82675   0.18347   0.00000  Uiso   1.00
O315   O     0.42437   0.48232   0.72269   0.00000  Uiso   1.00
O316   O     0.86898   0.64774   0.72616   0.00000  Uiso   1.00
N317   N     0.67695   0.72867   0.27447   0.00000  Uiso   1.00
N318   N     0.51691   0.48322   0.65871   0.00000  Uiso   1.00
N319   N     0.83374   0.60109   0.66121   0.00000  Uiso   1.00
N320   N     0.62010   0.82456   0.29974   0.00000  Uiso   1.00
N321   N     0.46007   0.57912   0.68399   0.00000  Uiso   1.00
N322   N     0.77689   0.69699   0.68648   0.00000  Uiso   1.00
C323   C     0.08618   0.92196   0.85899   0.00000  Uiso   1.00
C324   C     0.03472   0.90214   0.91051   0.00000  Uiso   1.00
C325   C     0.98177   0.94802   0.92920   0.00000  Uiso   1.00
C326   C     0.94025   0.91960   0.97718   0.00000  Uiso   1.00
C327   C     0.85864   0.89973   0.05287   0.00000  Uiso   1.00
C328   C     0.09775   0.88324   0.80438   0.00000  Uiso   1.00
C329   C     0.09780   0.91323   0.73384   0.00000  Uiso   1.00
C330   C     0.10936   0.86890   0.69249   0.00000  Uiso   1.00
C331   C     0.12565   0.81968   0.60340   0.00000  Uiso   1.00
C332   C     0.14008   0.89002   0.89768   0.00000  Uiso   1.00
C333   C     0.17573   0.92571   0.90557   0.00000  Uiso   1.00
C334   C     0.22293   0.88708   0.94276   0.00000  Uiso   1.00
C335   C     0.30494   0.84840   0.99853   0.00000  Uiso   1.00
C336   C     0.10661   0.78992   0.91096   0.00000  Uiso   1.00
C337   C     0.04582   0.83042   0.93873   0.00000  Uiso   1.00
C338   C     0.00437   0.80193   0.98671   0.00000  Uiso   1.00
C339   C     0.95137   0.84775   0.00547   0.00000  Uiso   1.00
C340   C     0.10885   0.81152   0.83261   0.00000  Uiso   1.00
C341   C     0.12041   0.76714   0.79134   0.00000  Uiso   1.00
C342   C     0.12048   0.79705   0.72076   0.00000  Uiso   1.00
C343   C     0.15117   0.81830   0.92591   0.00000  Uiso   1.00
C344   C     0.19833   0.77962   0.96308   0.00000  Uiso   1.00
C345   C     0.23405   0.81524   0.97104   0.00000  Uiso   1.00
H346   H     0.07754   0.97780   0.83700   0.00000  Uiso   1.00
H347   H     0.97319   0.00352   0.90734   0.00000  Uiso   1.00
H348   H     0.08922   0.96873   0.71201   0.00000  Uiso   1.00
H349   H     0.16713   0.98121   0.88372   0.00000  Uiso   1.00
H350   H     0.86239   0.00040   0.99775   0.00000  Uiso   1.00
H351   H     0.10705   0.92705   0.58589   0.00000  Uiso   1.00
H352   H     0.27134   0.95336   0.94797   0.00000  Uiso   1.00
H353   H     0.11526   0.73408   0.93294   0.00000  Uiso   1.00
H354   H     0.01297   0.74643   0.00854   0.00000  Uiso   1.00
H355   H     0.12900   0.71164   0.81321   0.00000  Uiso   1.00
H356   H     0.20691   0.72412   0.98492   0.00000  Uiso   1.00
H357   H     0.89467   0.79173   0.07989   0.00000  Uiso   1.00
H358   H     0.13934   0.71839   0.66802   0.00000  Uiso   1.00
H359   H     0.30363   0.74469   0.03010   0.00000  Uiso   1.00
O360   O     0.81056   0.90858   0.08680   0.00000  Uiso   1.00
O361   O     0.13156   0.81235   0.54646   0.00000  Uiso   1.00
O362   O     0.34710   0.84687   0.02150   0.00000  Uiso   1.00
N363   N     0.88403   0.94960   0.00672   0.00000  Uiso   1.00
N364   N     0.11277   0.88102   0.62165   0.00000  Uiso   1.00
N365   N     0.26637   0.90561   0.96015   0.00000  Uiso   1.00
N366   N     0.90140   0.83731   0.05091   0.00000  Uiso   1.00
N367   N     0.13014   0.76874   0.66585   0.00000  Uiso   1.00
N368   N     0.28375   0.79333   0.00435   0.00000  Uiso   1.00
C369   C     0.31436   0.45605   0.08393   0.00000  Uiso   1.00
C370   C     0.34987   0.43263   0.02050   0.00000  Uiso   1.00
C371   C     0.38370   0.36558   0.02015   0.00000  Uiso   1.00
C372   C     0.41284   0.35474   0.95682   0.00000  Uiso   1.00
C373   C     0.46864   0.31011   0.86757   0.00000  Uiso   1.00
C374   C     0.25086   0.48988   0.06778   0.00000  Uiso   1.00
C375   C     0.20145   0.47096   0.10719   0.00000  Uiso   1.00
C376   C     0.14724   0.50832   0.08367   0.00000  Uiso   1.00
C377   C     0.04933   0.55260   0.06785   0.00000  Uiso   1.00
C378   C     0.33659   0.51415   0.08685   0.00000  Uiso   1.00
C379   C     0.35924   0.51566   0.14230   0.00000  Uiso   1.00
C380   C     0.37720   0.57347   0.13483   0.00000  Uiso   1.00
C381   C     0.41239   0.65544   0.14862   0.00000  Uiso   1.00
C382   C     0.30596   0.55603   0.97209   0.00000  Uiso   1.00
C383   C     0.34530   0.48694   0.95976   0.00000  Uiso   1.00
C384   C     0.37440   0.47620   0.89641   0.00000  Uiso   1.00
C385   C     0.40827   0.40914   0.89597   0.00000  Uiso   1.00
C386   C     0.24630   0.54418   0.00704   0.00000  Uiso   1.00
C387   C     0.19215   0.58158   0.98346   0.00000  Uiso   1.00
C388   C     0.14267   0.56273   0.02281   0.00000  Uiso   1.00
C389   C     0.33203   0.56846   0.02611   0.00000  Uiso   1.00
C390   C     0.34995   0.62628   0.01856   0.00000  Uiso   1.00
C391   C     0.37262   0.62788   0.07398   0.00000  Uiso   1.00
H392   H     0.31791   0.41377   0.13122   0.00000  Uiso   1.00
H393   H     0.38722   0.32356   0.06717   0.00000  Uiso   1.00
H394   H     0.20500   0.42894   0.15420   0.00000  Uiso   1.00
H395   H     0.36277   0.47363   0.18929   0.00000  Uiso   1.00
H396   H     0.46202   0.24750   0.96936   0.00000  Uiso   1.00
H397   H     0.07780   0.46970   0.15288   0.00000  Uiso   1.00
H398   H     0.41048   0.56394   0.22689   0.00000  Uiso   1.00
H399   H     0.30241   0.59831   0.92480   0.00000  Uiso   1.00
H400   H     0.37086   0.51824   0.84942   0.00000  Uiso   1.00
H401   H     0.18864   0.62361   0.93645   0.00000  Uiso   1.00
H402   H     0.34641   0.66830   0.97154   0.00000  Uiso   1.00
H403   H     0.44875   0.40550   0.79263   0.00000  Uiso   1.00
H404   H     0.06452   0.62771   0.97615   0.00000  Uiso   1.00
H405   H     0.39721   0.72194   0.05016   0.00000  Uiso   1.00
O406   O     0.50068   0.27049   0.83513   0.00000  Uiso   1.00
O407   O     0.99659   0.56202   0.07591   0.00000  Uiso   1.00
O408   O     0.43307   0.68565   0.17301   0.00000  Uiso   1.00
N409   N     0.44951   0.29568   0.93811   0.00000  Uiso   1.00
N410   N     0.09028   0.50342   0.10969   0.00000  Uiso   1.00
N411   N     0.40130   0.59153   0.17889   0.00000  Uiso   1.00
N412   N     0.44237   0.38070   0.84301   0.00000  Uiso   1.00
N413   N     0.08314   0.58844   0.01459   0.00000  Uiso   1.00
N414   N     0.39416   0.67655   0.08379   0.00000  Uiso   1.00
C415   C     0.96929   0.02815   0.31958   0.00000  Uiso   1.00
C416   C     0.92360   0.00106   0.37603   0.00000  Uiso   1.00
C417   C     0.93355   0.93537   0.42169   0.00000  Uiso   1.00
C418   C     0.88602   0.92060   0.46955   0.00000  Uiso   1.00
C419   C     0.82350   0.87105   0.55688   0.00000  Uiso   1.00
C420   C     0.94296   0.05176   0.25218   0.00000  Uiso   1.00
C421   C     0.96918   0.02871   0.19370   0.00000  Uiso   1.00
C422   C     0.93794   0.05664   0.13730   0.00000  Uiso   1.00
C423   C     0.90549   0.08584   0.03233   0.00000  Uiso   1.00
C424   C     0.97134   0.09370   0.33312   0.00000  Uiso   1.00
C425   C     0.02144   0.10592   0.34268   0.00000  Uiso   1.00
C426   C     0.01410   0.16916   0.35440   0.00000  Uiso   1.00
C427   C     0.02573   0.26346   0.37510   0.00000  Uiso   1.00
C428   C     0.86719   0.11873   0.32339   0.00000  Uiso   1.00
C429   C     0.86814   0.05026   0.37810   0.00000  Uiso   1.00
C430   C     0.82058   0.03559   0.42591   0.00000  Uiso   1.00
C431   C     0.83046   0.96990   0.47163   0.00000  Uiso   1.00
C432   C     0.88750   0.10096   0.25425   0.00000  Uiso   1.00
C433   C     0.85621   0.12894   0.19792   0.00000  Uiso   1.00
C434   C     0.88238   0.10593   0.13938   0.00000  Uiso   1.00
C435   C     0.91588   0.14290   0.33519   0.00000  Uiso   1.00
C436   C     0.90847   0.20614   0.34690   0.00000  Uiso   1.00
C437   C     0.95854   0.21845   0.35648   0.00000  Uiso   1.00
H438   H     0.01247   0.98984   0.31796   0.00000  Uiso   1.00
H439   H     0.97648   0.89731   0.42007   0.00000  Uiso   1.00
H440   H     0.01211   0.99064   0.19212   0.00000  Uiso   1.00
H441   H     0.06435   0.06783   0.34107   0.00000  Uiso   1.00
H442   H     0.91211   0.81640   0.53417   0.00000  Uiso   1.00
H443   H     0.98724   0.01322   0.05351   0.00000  Uiso   1.00
H444   H     0.09741   0.17599   0.36761   0.00000  Uiso   1.00
H445   H     0.82401   0.15704   0.32500   0.00000  Uiso   1.00
H446   H     0.77767   0.07368   0.42750   0.00000  Uiso   1.00
H447   H     0.81330   0.16701   0.19954   0.00000  Uiso   1.00
H448   H     0.86554   0.24420   0.34850   0.00000  Uiso   1.00
H449   H     0.75074   0.95955   0.54020   0.00000  Uiso   1.00
H450   H     0.82588   0.15637   0.05954   0.00000  Uiso   1.00
H451   H     0.93605   0.31914   0.37364   0.00000  Uiso   1.00
O452   O     0.80434   0.83011   0.60447   0.00000  Uiso   1.00
O453   O     0.90292   0.08834   0.97386   0.00000  Uiso   1.00
O454   O     0.04746   0.30188   0.38595   0.00000  Uiso   1.00
N455   N     0.88049   0.86154   0.52153   0.00000  Uiso   1.00
N456   N     0.95073   0.04554   0.07215   0.00000  Uiso   1.00
N457   N     0.05374   0.19772   0.36578   0.00000  Uiso   1.00
N458   N     0.79366   0.93857   0.52477   0.00000  Uiso   1.00
N459   N     0.86391   0.12257   0.07539   0.00000  Uiso   1.00
N460   N     0.96691   0.27475   0.36903   0.00000  Uiso   1.00
C461   C     0.57539   0.27985   0.64904   0.00000  Uiso   1.00
C462   C     0.53043   0.33467   0.60367   0.00000  Uiso   1.00
C463   C     0.47298   0.36820   0.62677   0.00000  Uiso   1.00
C464   C     0.43881   0.41670   0.57709   0.00000  Uiso   1.00
C465   C     0.36556   0.49960   0.51732   0.00000  Uiso   1.00
C466   C     0.59483   0.21632   0.62127   0.00000  Uiso   1.00
C467   C     0.59153   0.15035   0.65917   0.00000  Uiso   1.00
C468   C     0.61158   0.09922   0.62430   0.00000  Uiso   1.00
C469   C     0.63835   0.99838   0.59187   0.00000  Uiso   1.00
C470   C     0.62933   0.30671   0.63357   0.00000  Uiso   1.00
C471   C     0.65506   0.31672   0.68182   0.00000  Uiso   1.00
C472   C     0.70417   0.34168   0.65731   0.00000  Uiso   1.00
C473   C     0.78451   0.38119   0.64397   0.00000  Uiso   1.00
C474   C     0.61687   0.30636   0.51973   0.00000  Uiso   1.00
C475   C     0.55296   0.34906   0.53343   0.00000  Uiso   1.00
C476   C     0.51887   0.39753   0.48370   0.00000  Uiso   1.00
C477   C     0.46138   0.43112   0.50672   0.00000  Uiso   1.00
C478   C     0.61736   0.23072   0.55103   0.00000  Uiso   1.00
C479   C     0.63742   0.17967   0.51610   0.00000  Uiso   1.00
C480   C     0.63415   0.11364   0.55394   0.00000  Uiso   1.00
C481   C     0.65186   0.32111   0.56333   0.00000  Uiso   1.00
C482   C     0.70095   0.34605   0.53874   0.00000  Uiso   1.00
C483   C     0.72674   0.35611   0.58694   0.00000  Uiso   1.00
H484   H     0.55785   0.26864   0.70373   0.00000  Uiso   1.00
H485   H     0.45555   0.35704   0.68113   0.00000  Uiso   1.00
H486   H     0.57409   0.13922   0.71353   0.00000  Uiso   1.00
H487   H     0.63761   0.30558   0.73617   0.00000  Uiso   1.00
H488   H     0.35207   0.46138   0.62511   0.00000  Uiso   1.00
H489   H     0.60204   0.00209   0.69342   0.00000  Uiso   1.00
H490   H     0.73597   0.35288   0.74116   0.00000  Uiso   1.00
H491   H     0.63441   0.31756   0.46504   0.00000  Uiso   1.00
H492   H     0.53632   0.40866   0.42935   0.00000  Uiso   1.00
H493   H     0.65486   0.19083   0.46174   0.00000  Uiso   1.00
H494   H     0.71837   0.35719   0.48438   0.00000  Uiso   1.00
H495   H     0.41762   0.50327   0.42075   0.00000  Uiso   1.00
H496   H     0.66759   0.04398   0.48906   0.00000  Uiso   1.00
H497   H     0.80152   0.39478   0.53680   0.00000  Uiso   1.00
O498   O     0.31893   0.54135   0.50375   0.00000  Uiso   1.00
O499   O     0.64688   0.93878   0.59338   0.00000  Uiso   1.00
O500   O     0.82260   0.39901   0.65602   0.00000  Uiso   1.00
N501   N     0.38097   0.45875   0.58191   0.00000  Uiso   1.00
N502   N     0.61466   0.02934   0.64578   0.00000  Uiso   1.00
N503   N     0.73989   0.35729   0.69042   0.00000  Uiso   1.00
N504   N     0.41624   0.48129   0.47195   0.00000  Uiso   1.00
N505   N     0.64993   0.05189   0.53581   0.00000  Uiso   1.00
N506   N     0.77516   0.37983   0.58045   0.00000  Uiso   1.00
C507   C     0.01657   0.37384   0.92098   0.00000  Uiso   1.00
C508   C     0.08173   0.33317   0.91262   0.00000  Uiso   1.00
C509   C     0.12688   0.35872   0.86965   0.00000  Uiso   1.00
C510   C     0.18354   0.31328   0.86934   0.00000  Uiso   1.00
C511   C     0.28304   0.26054   0.85007   0.00000  Uiso   1.00
C512   C     0.98290   0.33290   0.90448   0.00000  Uiso   1.00
C513   C     0.94494   0.35824   0.85467   0.00000  Uiso   1.00
C514   C     0.91841   0.31257   0.84752   0.00000  Uiso   1.00
C515   C     0.86443   0.25944   0.81565   0.00000  Uiso   1.00
C516   C     0.99901   0.36899   0.99783   0.00000  Uiso   1.00
C517   C     0.97459   0.42468   0.02650   0.00000  Uiso   1.00
C518   C     0.96161   0.40939   0.09794   0.00000  Uiso   1.00
C519   C     0.93266   0.41229   0.21100   0.00000  Uiso   1.00
C520   C     0.03692   0.24769   0.99686   0.00000  Uiso   1.00
C521   C     0.09278   0.26465   0.95384   0.00000  Uiso   1.00
C522   C     0.14939   0.21915   0.95360   0.00000  Uiso   1.00
C523   C     0.19462   0.24463   0.91063   0.00000  Uiso   1.00
C524   C     0.99395   0.26438   0.94570   0.00000  Uiso   1.00
C525   C     0.96746   0.21867   0.93863   0.00000  Uiso   1.00
C526   C     0.92948   0.24393   0.88881   0.00000  Uiso   1.00
C527   C     0.01007   0.30047   0.03905   0.00000  Uiso   1.00
C528   C     0.99712   0.28510   0.11046   0.00000  Uiso   1.00
C529   C     0.97269   0.34075   0.13924   0.00000  Uiso   1.00
H530   H     0.00796   0.42718   0.88889   0.00000  Uiso   1.00
H531   H     0.11830   0.41175   0.83775   0.00000  Uiso   1.00
H532   H     0.93640   0.41127   0.82279   0.00000  Uiso   1.00
H533   H     0.96605   0.47769   0.99459   0.00000  Uiso   1.00
H534   H     0.24551   0.36442   0.79922   0.00000  Uiso   1.00
H535   H     0.86194   0.36341   0.76767   0.00000  Uiso   1.00
H536   H     0.92446   0.50348   0.12996   0.00000  Uiso   1.00
H537   H     0.04552   0.19434   0.02896   0.00000  Uiso   1.00
H538   H     0.15793   0.16613   0.98551   0.00000  Uiso   1.00
H539   H     0.97602   0.16565   0.97054   0.00000  Uiso   1.00
H540   H     0.00567   0.23207   0.14234   0.00000  Uiso   1.00
H541   H     0.27768   0.16506   0.91913   0.00000  Uiso   1.00
H542   H     0.89410   0.16405   0.88759   0.00000  Uiso   1.00
H543   H     0.95662   0.30412   0.24987   0.00000  Uiso   1.00
O544   O     0.33486   0.25037   0.82805   0.00000  Uiso   1.00
O545   O     0.83161   0.24906   0.78667   0.00000  Uiso   1.00
O546   O     0.91365   0.43282   0.26198   0.00000  Uiso   1.00
N547   N     0.23766   0.32137   0.83341   0.00000  Uiso   1.00
N548   N     0.87904   0.32043   0.80391   0.00000  Uiso   1.00
N549   N     0.93748   0.45138   0.14262   0.00000  Uiso   1.00
N550   N     0.25497   0.21410   0.89794   0.00000  Uiso   1.00
N551   N     0.89635   0.21315   0.86844   0.00000  Uiso   1.00
N552   N     0.95479   0.34411   0.20714   0.00000  Uiso   1.00
