data_job_00913
_audit_creation_date              2018-12-19
_audit_creation_method            'Materials Studio'
_symmetry_space_group_name_H-M    'P1'
_symmetry_Int_Tables_number       1
_symmetry_cell_setting            triclinic
loop_
_symmetry_equiv_pos_as_xyz
  x,y,z
_cell_length_a                    19.5906
_cell_length_b                    12.4454
_cell_length_c                    21.8554
_cell_angle_alpha                 90.0000
_cell_angle_beta                  84.6498
_cell_angle_gamma                 90.0000
loop_
_atom_site_label
_atom_site_type_symbol
_atom_site_fract_x
_atom_site_fract_y
_atom_site_fract_z
_atom_site_U_iso_or_equiv
_atom_site_adp_type
_atom_site_occupancy
C1     C     0.18493   0.80740   0.88176   0.00000  Uiso   1.00
C2     C     0.12821   0.89102   0.89269   0.00000  Uiso   1.00
C3     C     0.13372   0.98874   0.92241   0.00000  Uiso   1.00
C4     C     0.07599   0.05399   0.92778   0.00000  Uiso   1.00
C5     C     0.99718   0.18859   0.94836   0.00000  Uiso   1.00
C6     C     0.15582   0.70335   0.91032   0.00000  Uiso   1.00
C7     C     0.18457   0.64327   0.95487   0.00000  Uiso   1.00
C8     C     0.15009   0.55053   0.97507   0.00000  Uiso   1.00
C9     C     0.11419   0.39373   0.02300   0.00000  Uiso   1.00
C10    C     0.19377   0.78815   0.81257   0.00000  Uiso   1.00
C11    C     0.25443   0.79935   0.77492   0.00000  Uiso   1.00
C12    C     0.25190   0.77798   0.71281   0.00000  Uiso   1.00
C13    C     0.27492   0.75285   0.60896   0.00000  Uiso   1.00
C14    C     0.07260   0.74951   0.83842   0.00000  Uiso   1.00
C15    C     0.06719   0.85957   0.86915   0.00000  Uiso   1.00
C16    C     0.00944   0.92469   0.87447   0.00000  Uiso   1.00
C17    C     0.01486   0.02249   0.90419   0.00000  Uiso   1.00
C18    C     0.09481   0.67190   0.88679   0.00000  Uiso   1.00
C19    C     0.06028   0.57922   0.90692   0.00000  Uiso   1.00
C20    C     0.08896   0.51903   0.95149   0.00000  Uiso   1.00
C21    C     0.13276   0.75671   0.78902   0.00000  Uiso   1.00
C22    C     0.13014   0.73531   0.72697   0.00000  Uiso   1.00
C23    C     0.19078   0.74648   0.68923   0.00000  Uiso   1.00
H24    H     0.23243   0.83187   0.90008   0.00000  Uiso   1.00
H25    H     0.18094   0.01304   0.94063   0.00000  Uiso   1.00
H26    H     0.23179   0.66762   0.97307   0.00000  Uiso   1.00
H27    H     0.30163   0.82369   0.79315   0.00000  Uiso   1.00
H28    H     0.09695   0.20001   0.97522   0.00000  Uiso   1.00
H29    H     0.20416   0.47166   0.04361   0.00000  Uiso   1.00
H30    H     0.35145   0.80075   0.66421   0.00000  Uiso   1.00
H31    H     0.02509   0.72502   0.82009   0.00000  Uiso   1.00
H32    H     0.96223   0.90034   0.85625   0.00000  Uiso   1.00
H33    H     0.01307   0.55491   0.88869   0.00000  Uiso   1.00
H34    H     0.08292   0.71098   0.70877   0.00000  Uiso   1.00
H35    H     0.91943   0.10854   0.90673   0.00000  Uiso   1.00
H36    H     0.02665   0.38018   0.97513   0.00000  Uiso   1.00
H37    H     0.17393   0.70927   0.59572   0.00000  Uiso   1.00
O38    O     0.97057   0.27151   0.96622   0.00000  Uiso   1.00
O39    O     0.11124   0.31593   0.05595   0.00000  Uiso   1.00
O40    O     0.30448   0.74769   0.55818   0.00000  Uiso   1.00
N41    N     0.06380   0.15444   0.95413   0.00000  Uiso   1.00
N42    N     0.16403   0.47348   0.01808   0.00000  Uiso   1.00
N43    N     0.30174   0.78112   0.66337   0.00000  Uiso   1.00
N44    N     0.96828   0.10521   0.91728   0.00000  Uiso   1.00
N45    N     0.06851   0.42425   0.98123   0.00000  Uiso   1.00
N46    N     0.20622   0.73189   0.62652   0.00000  Uiso   1.00
C47    C     0.68493   0.30740   0.88176   0.00000  Uiso   1.00
C48    C     0.62821   0.39102   0.89269   0.00000  Uiso   1.00
C49    C     0.63372   0.48874   0.92241   0.00000  Uiso   1.00
C50    C     0.57599   0.55399   0.92778   0.00000  Uiso   1.00
C51    C     0.49718   0.68859   0.94836   0.00000  Uiso   1.00
C52    C     0.65582   0.20335   0.91032   0.00000  Uiso   1.00
C53    C     0.68457   0.14327   0.95487   0.00000  Uiso   1.00
C54    C     0.65009   0.05053   0.97507   0.00000  Uiso   1.00
C55    C     0.61419   0.89373   0.02300   0.00000  Uiso   1.00
C56    C     0.69377   0.28815   0.81257   0.00000  Uiso   1.00
C57    C     0.75443   0.29935   0.77492   0.00000  Uiso   1.00
C58    C     0.75190   0.27798   0.71281   0.00000  Uiso   1.00
C59    C     0.77492   0.25285   0.60896   0.00000  Uiso   1.00
C60    C     0.57260   0.24951   0.83842   0.00000  Uiso   1.00
C61    C     0.56719   0.35957   0.86915   0.00000  Uiso   1.00
C62    C     0.50944   0.42469   0.87447   0.00000  Uiso   1.00
C63    C     0.51486   0.52249   0.90419   0.00000  Uiso   1.00
C64    C     0.59481   0.17190   0.88679   0.00000  Uiso   1.00
C65    C     0.56028   0.07922   0.90692   0.00000  Uiso   1.00
C66    C     0.58896   0.01903   0.95149   0.00000  Uiso   1.00
C67    C     0.63276   0.25671   0.78902   0.00000  Uiso   1.00
C68    C     0.63014   0.23531   0.72697   0.00000  Uiso   1.00
C69    C     0.69078   0.24648   0.68923   0.00000  Uiso   1.00
H70    H     0.73243   0.33187   0.90008   0.00000  Uiso   1.00
H71    H     0.68094   0.51304   0.94063   0.00000  Uiso   1.00
H72    H     0.73179   0.16762   0.97307   0.00000  Uiso   1.00
H73    H     0.80163   0.32369   0.79315   0.00000  Uiso   1.00
H74    H     0.59695   0.70001   0.97522   0.00000  Uiso   1.00
H75    H     0.70416   0.97166   0.04361   0.00000  Uiso   1.00
H76    H     0.85145   0.30075   0.66421   0.00000  Uiso   1.00
H77    H     0.52509   0.22502   0.82009   0.00000  Uiso   1.00
H78    H     0.46223   0.40034   0.85625   0.00000  Uiso   1.00
H79    H     0.51307   0.05491   0.88869   0.00000  Uiso   1.00
H80    H     0.58292   0.21098   0.70877   0.00000  Uiso   1.00
H81    H     0.41943   0.60854   0.90673   0.00000  Uiso   1.00
H82    H     0.52665   0.88018   0.97513   0.00000  Uiso   1.00
H83    H     0.67393   0.20927   0.59572   0.00000  Uiso   1.00
O84    O     0.47057   0.77151   0.96622   0.00000  Uiso   1.00
O85    O     0.61124   0.81593   0.05595   0.00000  Uiso   1.00
O86    O     0.80448   0.24769   0.55818   0.00000  Uiso   1.00
N87    N     0.56380   0.65444   0.95413   0.00000  Uiso   1.00
N88    N     0.66403   0.97348   0.01808   0.00000  Uiso   1.00
N89    N     0.80174   0.28112   0.66337   0.00000  Uiso   1.00
N90    N     0.46828   0.60521   0.91728   0.00000  Uiso   1.00
N91    N     0.56851   0.92425   0.98123   0.00000  Uiso   1.00
N92    N     0.70622   0.23189   0.62652   0.00000  Uiso   1.00
C93    C     0.81507   0.80740   0.61824   0.00000  Uiso   1.00
C94    C     0.87179   0.89102   0.60731   0.00000  Uiso   1.00
C95    C     0.86628   0.98874   0.57759   0.00000  Uiso   1.00
C96    C     0.92401   0.05399   0.57222   0.00000  Uiso   1.00
C97    C     0.00282   0.18859   0.55164   0.00000  Uiso   1.00
C98    C     0.84418   0.70335   0.58968   0.00000  Uiso   1.00
C99    C     0.81543   0.64327   0.54513   0.00000  Uiso   1.00
C100   C     0.84991   0.55053   0.52493   0.00000  Uiso   1.00
C101   C     0.88581   0.39373   0.47700   0.00000  Uiso   1.00
C102   C     0.80623   0.78815   0.68743   0.00000  Uiso   1.00
C103   C     0.74557   0.79935   0.72508   0.00000  Uiso   1.00
C104   C     0.74810   0.77798   0.78719   0.00000  Uiso   1.00
C105   C     0.72508   0.75285   0.89104   0.00000  Uiso   1.00
C106   C     0.92740   0.74951   0.66158   0.00000  Uiso   1.00
C107   C     0.93281   0.85957   0.63085   0.00000  Uiso   1.00
C108   C     0.99056   0.92469   0.62553   0.00000  Uiso   1.00
C109   C     0.98514   0.02249   0.59581   0.00000  Uiso   1.00
C110   C     0.90519   0.67190   0.61321   0.00000  Uiso   1.00
C111   C     0.93972   0.57922   0.59308   0.00000  Uiso   1.00
C112   C     0.91104   0.51903   0.54851   0.00000  Uiso   1.00
C113   C     0.86724   0.75671   0.71098   0.00000  Uiso   1.00
C114   C     0.86986   0.73531   0.77303   0.00000  Uiso   1.00
C115   C     0.80922   0.74648   0.81077   0.00000  Uiso   1.00
H116   H     0.76757   0.83187   0.59992   0.00000  Uiso   1.00
H117   H     0.81906   0.01304   0.55937   0.00000  Uiso   1.00
H118   H     0.76821   0.66762   0.52693   0.00000  Uiso   1.00
H119   H     0.69837   0.82369   0.70685   0.00000  Uiso   1.00
H120   H     0.90305   0.20001   0.52478   0.00000  Uiso   1.00
H121   H     0.79584   0.47166   0.45639   0.00000  Uiso   1.00
H122   H     0.64855   0.80075   0.83579   0.00000  Uiso   1.00
H123   H     0.97491   0.72502   0.67991   0.00000  Uiso   1.00
H124   H     0.03777   0.90034   0.64375   0.00000  Uiso   1.00
H125   H     0.98693   0.55491   0.61131   0.00000  Uiso   1.00
H126   H     0.91708   0.71098   0.79123   0.00000  Uiso   1.00
H127   H     0.08057   0.10854   0.59327   0.00000  Uiso   1.00
H128   H     0.97335   0.38018   0.52487   0.00000  Uiso   1.00
H129   H     0.82607   0.70927   0.90428   0.00000  Uiso   1.00
O130   O     0.02943   0.27151   0.53378   0.00000  Uiso   1.00
O131   O     0.88876   0.31593   0.44405   0.00000  Uiso   1.00
O132   O     0.69552   0.74769   0.94182   0.00000  Uiso   1.00
N133   N     0.93620   0.15444   0.54587   0.00000  Uiso   1.00
N134   N     0.83597   0.47348   0.48192   0.00000  Uiso   1.00
N135   N     0.69826   0.78112   0.83663   0.00000  Uiso   1.00
N136   N     0.03172   0.10521   0.58272   0.00000  Uiso   1.00
N137   N     0.93149   0.42425   0.51877   0.00000  Uiso   1.00
N138   N     0.79378   0.73189   0.87348   0.00000  Uiso   1.00
C139   C     0.31507   0.30740   0.61824   0.00000  Uiso   1.00
C140   C     0.37179   0.39102   0.60731   0.00000  Uiso   1.00
C141   C     0.36628   0.48874   0.57759   0.00000  Uiso   1.00
C142   C     0.42401   0.55399   0.57222   0.00000  Uiso   1.00
C143   C     0.50282   0.68859   0.55164   0.00000  Uiso   1.00
C144   C     0.34418   0.20335   0.58968   0.00000  Uiso   1.00
C145   C     0.31543   0.14327   0.54513   0.00000  Uiso   1.00
C146   C     0.34991   0.05053   0.52493   0.00000  Uiso   1.00
C147   C     0.38581   0.89373   0.47700   0.00000  Uiso   1.00
C148   C     0.30623   0.28815   0.68743   0.00000  Uiso   1.00
C149   C     0.24557   0.29935   0.72508   0.00000  Uiso   1.00
C150   C     0.24810   0.27798   0.78719   0.00000  Uiso   1.00
C151   C     0.22508   0.25285   0.89104   0.00000  Uiso   1.00
C152   C     0.42740   0.24951   0.66158   0.00000  Uiso   1.00
C153   C     0.43281   0.35957   0.63085   0.00000  Uiso   1.00
C154   C     0.49056   0.42469   0.62553   0.00000  Uiso   1.00
C155   C     0.48514   0.52249   0.59581   0.00000  Uiso   1.00
C156   C     0.40519   0.17190   0.61321   0.00000  Uiso   1.00
C157   C     0.43972   0.07922   0.59308   0.00000  Uiso   1.00
C158   C     0.41104   0.01903   0.54851   0.00000  Uiso   1.00
C159   C     0.36724   0.25671   0.71098   0.00000  Uiso   1.00
C160   C     0.36986   0.23531   0.77303   0.00000  Uiso   1.00
C161   C     0.30922   0.24648   0.81077   0.00000  Uiso   1.00
H162   H     0.26757   0.33187   0.59992   0.00000  Uiso   1.00
H163   H     0.31906   0.51304   0.55937   0.00000  Uiso   1.00
H164   H     0.26821   0.16762   0.52693   0.00000  Uiso   1.00
H165   H     0.19837   0.32369   0.70685   0.00000  Uiso   1.00
H166   H     0.40305   0.70001   0.52478   0.00000  Uiso   1.00
H167   H     0.29584   0.97166   0.45639   0.00000  Uiso   1.00
H168   H     0.14855   0.30075   0.83579   0.00000  Uiso   1.00
H169   H     0.47491   0.22502   0.67991   0.00000  Uiso   1.00
H170   H     0.53777   0.40034   0.64375   0.00000  Uiso   1.00
H171   H     0.48693   0.05491   0.61131   0.00000  Uiso   1.00
H172   H     0.41708   0.21098   0.79123   0.00000  Uiso   1.00
H173   H     0.58057   0.60854   0.59327   0.00000  Uiso   1.00
H174   H     0.47335   0.88018   0.52487   0.00000  Uiso   1.00
H175   H     0.32607   0.20927   0.90428   0.00000  Uiso   1.00
O176   O     0.52943   0.77151   0.53378   0.00000  Uiso   1.00
O177   O     0.38876   0.81593   0.44405   0.00000  Uiso   1.00
O178   O     0.19552   0.24769   0.94182   0.00000  Uiso   1.00
N179   N     0.43620   0.65444   0.54587   0.00000  Uiso   1.00
N180   N     0.33597   0.97348   0.48192   0.00000  Uiso   1.00
N181   N     0.19826   0.28112   0.83663   0.00000  Uiso   1.00
N182   N     0.53172   0.60521   0.58272   0.00000  Uiso   1.00
N183   N     0.43149   0.92425   0.51877   0.00000  Uiso   1.00
N184   N     0.29378   0.23189   0.87348   0.00000  Uiso   1.00
C185   C     0.81507   0.19260   0.11824   0.00000  Uiso   1.00
C186   C     0.87179   0.10898   0.10731   0.00000  Uiso   1.00
C187   C     0.86628   0.01126   0.07759   0.00000  Uiso   1.00
C188   C     0.92401   0.94601   0.07222   0.00000  Uiso   1.00
C189   C     0.00282   0.81141   0.05164   0.00000  Uiso   1.00
C190   C     0.84418   0.29665   0.08968   0.00000  Uiso   1.00
C191   C     0.81543   0.35673   0.04513   0.00000  Uiso   1.00
C192   C     0.84991   0.44947   0.02493   0.00000  Uiso   1.00
C193   C     0.88581   0.60627   0.97700   0.00000  Uiso   1.00
C194   C     0.80623   0.21185   0.18743   0.00000  Uiso   1.00
C195   C     0.74557   0.20065   0.22508   0.00000  Uiso   1.00
C196   C     0.74810   0.22202   0.28719   0.00000  Uiso   1.00
C197   C     0.72508   0.24715   0.39104   0.00000  Uiso   1.00
C198   C     0.92740   0.25049   0.16158   0.00000  Uiso   1.00
C199   C     0.93281   0.14043   0.13085   0.00000  Uiso   1.00
C200   C     0.99056   0.07531   0.12553   0.00000  Uiso   1.00
C201   C     0.98514   0.97751   0.09581   0.00000  Uiso   1.00
C202   C     0.90519   0.32810   0.11321   0.00000  Uiso   1.00
C203   C     0.93972   0.42078   0.09308   0.00000  Uiso   1.00
C204   C     0.91104   0.48097   0.04851   0.00000  Uiso   1.00
C205   C     0.86724   0.24329   0.21098   0.00000  Uiso   1.00
C206   C     0.86986   0.26469   0.27303   0.00000  Uiso   1.00
C207   C     0.80922   0.25352   0.31077   0.00000  Uiso   1.00
H208   H     0.76757   0.16813   0.09992   0.00000  Uiso   1.00
H209   H     0.81906   0.98696   0.05937   0.00000  Uiso   1.00
H210   H     0.76822   0.33238   0.02693   0.00000  Uiso   1.00
H211   H     0.69837   0.17631   0.20685   0.00000  Uiso   1.00
H212   H     0.90305   0.79999   0.02478   0.00000  Uiso   1.00
H213   H     0.79584   0.52834   0.95639   0.00000  Uiso   1.00
H214   H     0.64855   0.19925   0.33579   0.00000  Uiso   1.00
H215   H     0.97491   0.27498   0.17991   0.00000  Uiso   1.00
H216   H     0.03777   0.09966   0.14375   0.00000  Uiso   1.00
H217   H     0.98693   0.44509   0.11131   0.00000  Uiso   1.00
H218   H     0.91708   0.28902   0.29123   0.00000  Uiso   1.00
H219   H     0.08057   0.89146   0.09327   0.00000  Uiso   1.00
H220   H     0.97335   0.61982   0.02487   0.00000  Uiso   1.00
H221   H     0.82607   0.29073   0.40428   0.00000  Uiso   1.00
O222   O     0.02943   0.72849   0.03378   0.00000  Uiso   1.00
O223   O     0.88876   0.68407   0.94405   0.00000  Uiso   1.00
O224   O     0.69552   0.25231   0.44182   0.00000  Uiso   1.00
N225   N     0.93620   0.84556   0.04587   0.00000  Uiso   1.00
N226   N     0.83597   0.52652   0.98192   0.00000  Uiso   1.00
N227   N     0.69826   0.21888   0.33663   0.00000  Uiso   1.00
N228   N     0.03172   0.89479   0.08272   0.00000  Uiso   1.00
N229   N     0.93149   0.57575   0.01877   0.00000  Uiso   1.00
N230   N     0.79378   0.26811   0.37348   0.00000  Uiso   1.00
C231   C     0.31507   0.69260   0.11824   0.00000  Uiso   1.00
C232   C     0.37179   0.60898   0.10731   0.00000  Uiso   1.00
C233   C     0.36628   0.51126   0.07759   0.00000  Uiso   1.00
C234   C     0.42401   0.44601   0.07222   0.00000  Uiso   1.00
C235   C     0.50282   0.31141   0.05164   0.00000  Uiso   1.00
C236   C     0.34418   0.79665   0.08968   0.00000  Uiso   1.00
C237   C     0.31543   0.85673   0.04513   0.00000  Uiso   1.00
C238   C     0.34991   0.94947   0.02493   0.00000  Uiso   1.00
C239   C     0.38581   0.10627   0.97700   0.00000  Uiso   1.00
C240   C     0.30623   0.71185   0.18743   0.00000  Uiso   1.00
C241   C     0.24557   0.70065   0.22508   0.00000  Uiso   1.00
C242   C     0.24810   0.72202   0.28719   0.00000  Uiso   1.00
C243   C     0.22508   0.74715   0.39104   0.00000  Uiso   1.00
C244   C     0.42740   0.75049   0.16158   0.00000  Uiso   1.00
C245   C     0.43281   0.64043   0.13085   0.00000  Uiso   1.00
C246   C     0.49056   0.57531   0.12553   0.00000  Uiso   1.00
C247   C     0.48514   0.47751   0.09581   0.00000  Uiso   1.00
C248   C     0.40519   0.82810   0.11321   0.00000  Uiso   1.00
C249   C     0.43972   0.92078   0.09308   0.00000  Uiso   1.00
C250   C     0.41104   0.98097   0.04851   0.00000  Uiso   1.00
C251   C     0.36724   0.74329   0.21098   0.00000  Uiso   1.00
C252   C     0.36986   0.76469   0.27303   0.00000  Uiso   1.00
C253   C     0.30922   0.75352   0.31077   0.00000  Uiso   1.00
H254   H     0.26757   0.66813   0.09992   0.00000  Uiso   1.00
H255   H     0.31906   0.48696   0.05937   0.00000  Uiso   1.00
H256   H     0.26821   0.83238   0.02693   0.00000  Uiso   1.00
H257   H     0.19837   0.67631   0.20685   0.00000  Uiso   1.00
H258   H     0.40305   0.29999   0.02478   0.00000  Uiso   1.00
H259   H     0.29584   0.02834   0.95639   0.00000  Uiso   1.00
H260   H     0.14855   0.69925   0.33579   0.00000  Uiso   1.00
H261   H     0.47491   0.77498   0.17991   0.00000  Uiso   1.00
H262   H     0.53777   0.59966   0.14375   0.00000  Uiso   1.00
H263   H     0.48693   0.94509   0.11131   0.00000  Uiso   1.00
H264   H     0.41708   0.78902   0.29123   0.00000  Uiso   1.00
H265   H     0.58057   0.39146   0.09327   0.00000  Uiso   1.00
H266   H     0.47335   0.11982   0.02487   0.00000  Uiso   1.00
H267   H     0.32607   0.79073   0.40428   0.00000  Uiso   1.00
O268   O     0.52943   0.22849   0.03378   0.00000  Uiso   1.00
O269   O     0.38876   0.18407   0.94405   0.00000  Uiso   1.00
O270   O     0.19552   0.75231   0.44182   0.00000  Uiso   1.00
N271   N     0.43620   0.34556   0.04587   0.00000  Uiso   1.00
N272   N     0.33597   0.02652   0.98192   0.00000  Uiso   1.00
N273   N     0.19826   0.71888   0.33663   0.00000  Uiso   1.00
N274   N     0.53172   0.39479   0.08272   0.00000  Uiso   1.00
N275   N     0.43149   0.07575   0.01877   0.00000  Uiso   1.00
N276   N     0.29378   0.76811   0.37348   0.00000  Uiso   1.00
C277   C     0.18493   0.19260   0.38176   0.00000  Uiso   1.00
C278   C     0.12821   0.10898   0.39269   0.00000  Uiso   1.00
C279   C     0.13372   0.01126   0.42241   0.00000  Uiso   1.00
C280   C     0.07599   0.94601   0.42778   0.00000  Uiso   1.00
C281   C     0.99718   0.81141   0.44836   0.00000  Uiso   1.00
C282   C     0.15582   0.29665   0.41032   0.00000  Uiso   1.00
C283   C     0.18457   0.35673   0.45487   0.00000  Uiso   1.00
C284   C     0.15009   0.44947   0.47507   0.00000  Uiso   1.00
C285   C     0.11419   0.60627   0.52300   0.00000  Uiso   1.00
C286   C     0.19377   0.21185   0.31257   0.00000  Uiso   1.00
C287   C     0.25443   0.20065   0.27492   0.00000  Uiso   1.00
C288   C     0.25190   0.22202   0.21281   0.00000  Uiso   1.00
C289   C     0.27492   0.24715   0.10896   0.00000  Uiso   1.00
C290   C     0.07260   0.25049   0.33842   0.00000  Uiso   1.00
C291   C     0.06719   0.14043   0.36915   0.00000  Uiso   1.00
C292   C     0.00944   0.07531   0.37447   0.00000  Uiso   1.00
C293   C     0.01486   0.97751   0.40419   0.00000  Uiso   1.00
C294   C     0.09481   0.32810   0.38679   0.00000  Uiso   1.00
C295   C     0.06028   0.42078   0.40692   0.00000  Uiso   1.00
C296   C     0.08896   0.48097   0.45149   0.00000  Uiso   1.00
C297   C     0.13276   0.24329   0.28902   0.00000  Uiso   1.00
C298   C     0.13014   0.26469   0.22697   0.00000  Uiso   1.00
C299   C     0.19078   0.25352   0.18923   0.00000  Uiso   1.00
H300   H     0.23243   0.16813   0.40008   0.00000  Uiso   1.00
H301   H     0.18094   0.98696   0.44063   0.00000  Uiso   1.00
H302   H     0.23179   0.33238   0.47307   0.00000  Uiso   1.00
H303   H     0.30163   0.17631   0.29315   0.00000  Uiso   1.00
H304   H     0.09695   0.79999   0.47522   0.00000  Uiso   1.00
H305   H     0.20416   0.52834   0.54361   0.00000  Uiso   1.00
H306   H     0.35145   0.19925   0.16421   0.00000  Uiso   1.00
H307   H     0.02509   0.27498   0.32009   0.00000  Uiso   1.00
H308   H     0.96223   0.09966   0.35625   0.00000  Uiso   1.00
H309   H     0.01307   0.44509   0.38869   0.00000  Uiso   1.00
H310   H     0.08292   0.28902   0.20877   0.00000  Uiso   1.00
H311   H     0.91943   0.89146   0.40673   0.00000  Uiso   1.00
H312   H     0.02665   0.61982   0.47513   0.00000  Uiso   1.00
H313   H     0.17393   0.29073   0.09572   0.00000  Uiso   1.00
O314   O     0.97057   0.72849   0.46622   0.00000  Uiso   1.00
O315   O     0.11124   0.68407   0.55595   0.00000  Uiso   1.00
O316   O     0.30448   0.25231   0.05818   0.00000  Uiso   1.00
N317   N     0.06380   0.84556   0.45413   0.00000  Uiso   1.00
N318   N     0.16403   0.52652   0.51808   0.00000  Uiso   1.00
N319   N     0.30174   0.21888   0.16337   0.00000  Uiso   1.00
N320   N     0.96828   0.89479   0.41728   0.00000  Uiso   1.00
N321   N     0.06851   0.57575   0.48123   0.00000  Uiso   1.00
N322   N     0.20622   0.26811   0.12652   0.00000  Uiso   1.00
C323   C     0.68493   0.69260   0.38176   0.00000  Uiso   1.00
C324   C     0.62821   0.60898   0.39269   0.00000  Uiso   1.00
C325   C     0.63372   0.51126   0.42241   0.00000  Uiso   1.00
C326   C     0.57599   0.44601   0.42778   0.00000  Uiso   1.00
C327   C     0.49718   0.31141   0.44836   0.00000  Uiso   1.00
C328   C     0.65582   0.79665   0.41032   0.00000  Uiso   1.00
C329   C     0.68457   0.85673   0.45487   0.00000  Uiso   1.00
C330   C     0.65009   0.94947   0.47507   0.00000  Uiso   1.00
C331   C     0.61419   0.10627   0.52300   0.00000  Uiso   1.00
C332   C     0.69377   0.71185   0.31257   0.00000  Uiso   1.00
C333   C     0.75443   0.70065   0.27492   0.00000  Uiso   1.00
C334   C     0.75190   0.72202   0.21281   0.00000  Uiso   1.00
C335   C     0.77492   0.74715   0.10896   0.00000  Uiso   1.00
C336   C     0.57260   0.75049   0.33842   0.00000  Uiso   1.00
C337   C     0.56719   0.64043   0.36915   0.00000  Uiso   1.00
C338   C     0.50944   0.57531   0.37447   0.00000  Uiso   1.00
C339   C     0.51486   0.47751   0.40419   0.00000  Uiso   1.00
C340   C     0.59481   0.82810   0.38679   0.00000  Uiso   1.00
C341   C     0.56028   0.92078   0.40692   0.00000  Uiso   1.00
C342   C     0.58896   0.98097   0.45149   0.00000  Uiso   1.00
C343   C     0.63276   0.74329   0.28902   0.00000  Uiso   1.00
C344   C     0.63014   0.76469   0.22697   0.00000  Uiso   1.00
C345   C     0.69078   0.75352   0.18923   0.00000  Uiso   1.00
H346   H     0.73243   0.66813   0.40008   0.00000  Uiso   1.00
H347   H     0.68094   0.48696   0.44063   0.00000  Uiso   1.00
H348   H     0.73179   0.83238   0.47307   0.00000  Uiso   1.00
H349   H     0.80163   0.67631   0.29315   0.00000  Uiso   1.00
H350   H     0.59695   0.29999   0.47522   0.00000  Uiso   1.00
H351   H     0.70416   0.02834   0.54361   0.00000  Uiso   1.00
H352   H     0.85145   0.69925   0.16421   0.00000  Uiso   1.00
H353   H     0.52509   0.77498   0.32009   0.00000  Uiso   1.00
H354   H     0.46223   0.59966   0.35625   0.00000  Uiso   1.00
H355   H     0.51307   0.94509   0.38869   0.00000  Uiso   1.00
H356   H     0.58292   0.78902   0.20877   0.00000  Uiso   1.00
H357   H     0.41943   0.39146   0.40673   0.00000  Uiso   1.00
H358   H     0.52665   0.11982   0.47513   0.00000  Uiso   1.00
H359   H     0.67393   0.79073   0.09572   0.00000  Uiso   1.00
O360   O     0.47057   0.22849   0.46622   0.00000  Uiso   1.00
O361   O     0.61124   0.18407   0.55595   0.00000  Uiso   1.00
O362   O     0.80448   0.75231   0.05818   0.00000  Uiso   1.00
N363   N     0.56380   0.34556   0.45413   0.00000  Uiso   1.00
N364   N     0.66403   0.02652   0.51808   0.00000  Uiso   1.00
N365   N     0.80174   0.71888   0.16337   0.00000  Uiso   1.00
N366   N     0.46828   0.39479   0.41728   0.00000  Uiso   1.00
N367   N     0.56851   0.07575   0.48123   0.00000  Uiso   1.00
N368   N     0.70622   0.76811   0.12652   0.00000  Uiso   1.00
