data_job_02873
_audit_creation_date              2018-12-19
_audit_creation_method            'Materials Studio'
_symmetry_space_group_name_H-M    'P1'
_symmetry_Int_Tables_number       1
_symmetry_cell_setting            triclinic
loop_
_symmetry_equiv_pos_as_xyz
  x,y,z
_cell_length_a                    27.0035
_cell_length_b                    20.1236
_cell_length_c                    17.8573
_cell_angle_alpha                 90.0000
_cell_angle_beta                  141.8550
_cell_angle_gamma                 90.0000
loop_
_atom_site_label
_atom_site_type_symbol
_atom_site_fract_x
_atom_site_fract_y
_atom_site_fract_z
_atom_site_U_iso_or_equiv
_atom_site_adp_type
_atom_site_occupancy
C1     C     0.61108   0.34473   0.45742   0.00000  Uiso   1.00
C2     C     0.62668   0.27039   0.48383   0.00000  Uiso   1.00
C3     C     0.61152   0.22263   0.41155   0.00000  Uiso   1.00
C4     C     0.62994   0.15728   0.45149   0.00000  Uiso   1.00
C5     C     0.64920   0.04442   0.47599   0.00000  Uiso   1.00
C6     C     0.55638   0.36359   0.45741   0.00000  Uiso   1.00
C7     C     0.48211   0.39421   0.36292   0.00000  Uiso   1.00
C8     C     0.44136   0.40732   0.38062   0.00000  Uiso   1.00
C9     C     0.35150   0.43920   0.36413   0.00000  Uiso   1.00
C10    C     0.69107   0.37887   0.56770   0.00000  Uiso   1.00
C11    C     0.73005   0.42235   0.56595   0.00000  Uiso   1.00
C12    C     0.80269   0.44833   0.67651   0.00000  Uiso   1.00
C13    C     0.92196   0.50393   0.83127   0.00000  Uiso   1.00
C14    C     0.67077   0.31359   0.65689   0.00000  Uiso   1.00
C15    C     0.65910   0.25348   0.59217   0.00000  Uiso   1.00
C16    C     0.67756   0.18818   0.63224   0.00000  Uiso   1.00
C17    C     0.66242   0.14034   0.56003   0.00000  Uiso   1.00
C18    C     0.58880   0.34668   0.56574   0.00000  Uiso   1.00
C19    C     0.54815   0.35975   0.58360   0.00000  Uiso   1.00
C20    C     0.47384   0.39038   0.48916   0.00000  Uiso   1.00
C21    C     0.72350   0.36195   0.67605   0.00000  Uiso   1.00
C22    C     0.79609   0.38789   0.78663   0.00000  Uiso   1.00
C23    C     0.83517   0.43139   0.78505   0.00000  Uiso   1.00
H24    H     0.58583   0.35790   0.37307   0.00000  Uiso   1.00
H25    H     0.58642   0.23574   0.32771   0.00000  Uiso   1.00
H26    H     0.45704   0.40730   0.27909   0.00000  Uiso   1.00
H27    H     0.70494   0.43542   0.48209   0.00000  Uiso   1.00
H28    H     0.60134   0.09285   0.32517   0.00000  Uiso   1.00
H29    H     0.32855   0.45459   0.22267   0.00000  Uiso   1.00
H30    H     0.85129   0.51391   0.65074   0.00000  Uiso   1.00
H31    H     0.69601   0.30042   0.74124   0.00000  Uiso   1.00
H32    H     0.70265   0.17511   0.71608   0.00000  Uiso   1.00
H33    H     0.57326   0.34666   0.66745   0.00000  Uiso   1.00
H34    H     0.82116   0.37479   0.87046   0.00000  Uiso   1.00
H35    H     0.69567   0.04363   0.64038   0.00000  Uiso   1.00
H36    H     0.42287   0.40538   0.53788   0.00000  Uiso   1.00
H37    H     0.94562   0.46470   0.96595   0.00000  Uiso   1.00
O38    O     0.65085   0.98684   0.45956   0.00000  Uiso   1.00
O39    O     0.29297   0.46145   0.32510   0.00000  Uiso   1.00
O40    O     0.97880   0.53927   0.88671   0.00000  Uiso   1.00
N41    N     0.62264   0.09846   0.40282   0.00000  Uiso   1.00
N42    N     0.36759   0.43667   0.30698   0.00000  Uiso   1.00
N43    N     0.85631   0.49214   0.70718   0.00000  Uiso   1.00
N44    N     0.67340   0.07198   0.57244   0.00000  Uiso   1.00
N45    N     0.41835   0.41018   0.47660   0.00000  Uiso   1.00
N46    N     0.90707   0.46565   0.87680   0.00000  Uiso   1.00
C47    C     0.11108   0.84473   0.45742   0.00000  Uiso   1.00
C48    C     0.12668   0.77039   0.48383   0.00000  Uiso   1.00
C49    C     0.11152   0.72263   0.41155   0.00000  Uiso   1.00
C50    C     0.12994   0.65728   0.45149   0.00000  Uiso   1.00
C51    C     0.14920   0.54442   0.47599   0.00000  Uiso   1.00
C52    C     0.05638   0.86359   0.45741   0.00000  Uiso   1.00
C53    C     0.98211   0.89421   0.36292   0.00000  Uiso   1.00
C54    C     0.94136   0.90732   0.38062   0.00000  Uiso   1.00
C55    C     0.85150   0.93920   0.36413   0.00000  Uiso   1.00
C56    C     0.19107   0.87887   0.56770   0.00000  Uiso   1.00
C57    C     0.23005   0.92235   0.56595   0.00000  Uiso   1.00
C58    C     0.30269   0.94833   0.67651   0.00000  Uiso   1.00
C59    C     0.42196   0.00393   0.83127   0.00000  Uiso   1.00
C60    C     0.17077   0.81359   0.65689   0.00000  Uiso   1.00
C61    C     0.15910   0.75348   0.59217   0.00000  Uiso   1.00
C62    C     0.17756   0.68818   0.63224   0.00000  Uiso   1.00
C63    C     0.16242   0.64034   0.56003   0.00000  Uiso   1.00
C64    C     0.08880   0.84668   0.56574   0.00000  Uiso   1.00
C65    C     0.04815   0.85975   0.58360   0.00000  Uiso   1.00
C66    C     0.97384   0.89038   0.48916   0.00000  Uiso   1.00
C67    C     0.22350   0.86195   0.67605   0.00000  Uiso   1.00
C68    C     0.29609   0.88789   0.78663   0.00000  Uiso   1.00
C69    C     0.33517   0.93139   0.78505   0.00000  Uiso   1.00
H70    H     0.08583   0.85790   0.37307   0.00000  Uiso   1.00
H71    H     0.08642   0.73574   0.32771   0.00000  Uiso   1.00
H72    H     0.95704   0.90730   0.27909   0.00000  Uiso   1.00
H73    H     0.20494   0.93542   0.48209   0.00000  Uiso   1.00
H74    H     0.10134   0.59285   0.32517   0.00000  Uiso   1.00
H75    H     0.82855   0.95459   0.22267   0.00000  Uiso   1.00
H76    H     0.35129   0.01391   0.65074   0.00000  Uiso   1.00
H77    H     0.19601   0.80042   0.74124   0.00000  Uiso   1.00
H78    H     0.20265   0.67511   0.71608   0.00000  Uiso   1.00
H79    H     0.07326   0.84666   0.66745   0.00000  Uiso   1.00
H80    H     0.32116   0.87479   0.87046   0.00000  Uiso   1.00
H81    H     0.19567   0.54363   0.64038   0.00000  Uiso   1.00
H82    H     0.92287   0.90538   0.53788   0.00000  Uiso   1.00
H83    H     0.44562   0.96470   0.96595   0.00000  Uiso   1.00
O84    O     0.15085   0.48684   0.45956   0.00000  Uiso   1.00
O85    O     0.79297   0.96145   0.32510   0.00000  Uiso   1.00
O86    O     0.47880   0.03927   0.88671   0.00000  Uiso   1.00
N87    N     0.12264   0.59846   0.40282   0.00000  Uiso   1.00
N88    N     0.86759   0.93667   0.30698   0.00000  Uiso   1.00
N89    N     0.35631   0.99214   0.70718   0.00000  Uiso   1.00
N90    N     0.17340   0.57198   0.57244   0.00000  Uiso   1.00
N91    N     0.91835   0.91018   0.47660   0.00000  Uiso   1.00
N92    N     0.40707   0.96565   0.87680   0.00000  Uiso   1.00
C93    C     0.38892   0.34473   0.04258   0.00000  Uiso   1.00
C94    C     0.37332   0.27039   0.01617   0.00000  Uiso   1.00
C95    C     0.38848   0.22263   0.08845   0.00000  Uiso   1.00
C96    C     0.37006   0.15728   0.04851   0.00000  Uiso   1.00
C97    C     0.35080   0.04442   0.02401   0.00000  Uiso   1.00
C98    C     0.44362   0.36359   0.04259   0.00000  Uiso   1.00
C99    C     0.51789   0.39421   0.13708   0.00000  Uiso   1.00
C100   C     0.55864   0.40732   0.11938   0.00000  Uiso   1.00
C101   C     0.64850   0.43920   0.13587   0.00000  Uiso   1.00
C102   C     0.30893   0.37887   0.93230   0.00000  Uiso   1.00
C103   C     0.26995   0.42235   0.93405   0.00000  Uiso   1.00
C104   C     0.19731   0.44833   0.82349   0.00000  Uiso   1.00
C105   C     0.07804   0.50393   0.66873   0.00000  Uiso   1.00
C106   C     0.32923   0.31359   0.84311   0.00000  Uiso   1.00
C107   C     0.34090   0.25348   0.90783   0.00000  Uiso   1.00
C108   C     0.32244   0.18818   0.86776   0.00000  Uiso   1.00
C109   C     0.33758   0.14034   0.93997   0.00000  Uiso   1.00
C110   C     0.41120   0.34668   0.93426   0.00000  Uiso   1.00
C111   C     0.45185   0.35975   0.91640   0.00000  Uiso   1.00
C112   C     0.52616   0.39038   0.01084   0.00000  Uiso   1.00
C113   C     0.27650   0.36195   0.82395   0.00000  Uiso   1.00
C114   C     0.20391   0.38789   0.71337   0.00000  Uiso   1.00
C115   C     0.16483   0.43139   0.71495   0.00000  Uiso   1.00
H116   H     0.41417   0.35790   0.12693   0.00000  Uiso   1.00
H117   H     0.41358   0.23574   0.17229   0.00000  Uiso   1.00
H118   H     0.54296   0.40730   0.22091   0.00000  Uiso   1.00
H119   H     0.29506   0.43542   0.01791   0.00000  Uiso   1.00
H120   H     0.39866   0.09285   0.17483   0.00000  Uiso   1.00
H121   H     0.67145   0.45459   0.27733   0.00000  Uiso   1.00
H122   H     0.14871   0.51391   0.84926   0.00000  Uiso   1.00
H123   H     0.30399   0.30042   0.75876   0.00000  Uiso   1.00
H124   H     0.29735   0.17511   0.78392   0.00000  Uiso   1.00
H125   H     0.42674   0.34666   0.83255   0.00000  Uiso   1.00
H126   H     0.17884   0.37479   0.62954   0.00000  Uiso   1.00
H127   H     0.30433   0.04363   0.85962   0.00000  Uiso   1.00
H128   H     0.57713   0.40538   0.96212   0.00000  Uiso   1.00
H129   H     0.05438   0.46470   0.53405   0.00000  Uiso   1.00
O130   O     0.34915   0.98684   0.04044   0.00000  Uiso   1.00
O131   O     0.70703   0.46145   0.17490   0.00000  Uiso   1.00
O132   O     0.02120   0.53927   0.61329   0.00000  Uiso   1.00
N133   N     0.37736   0.09846   0.09718   0.00000  Uiso   1.00
N134   N     0.63241   0.43667   0.19302   0.00000  Uiso   1.00
N135   N     0.14369   0.49214   0.79282   0.00000  Uiso   1.00
N136   N     0.32660   0.07198   0.92756   0.00000  Uiso   1.00
N137   N     0.58165   0.41018   0.02340   0.00000  Uiso   1.00
N138   N     0.09293   0.46565   0.62320   0.00000  Uiso   1.00
C139   C     0.88892   0.84473   0.04258   0.00000  Uiso   1.00
C140   C     0.87332   0.77039   0.01617   0.00000  Uiso   1.00
C141   C     0.88848   0.72263   0.08845   0.00000  Uiso   1.00
C142   C     0.87006   0.65728   0.04851   0.00000  Uiso   1.00
C143   C     0.85080   0.54442   0.02401   0.00000  Uiso   1.00
C144   C     0.94362   0.86359   0.04259   0.00000  Uiso   1.00
C145   C     0.01789   0.89421   0.13708   0.00000  Uiso   1.00
C146   C     0.05864   0.90732   0.11938   0.00000  Uiso   1.00
C147   C     0.14850   0.93920   0.13587   0.00000  Uiso   1.00
C148   C     0.80893   0.87887   0.93230   0.00000  Uiso   1.00
C149   C     0.76995   0.92235   0.93405   0.00000  Uiso   1.00
C150   C     0.69731   0.94833   0.82349   0.00000  Uiso   1.00
C151   C     0.57804   0.00393   0.66873   0.00000  Uiso   1.00
C152   C     0.82923   0.81359   0.84311   0.00000  Uiso   1.00
C153   C     0.84090   0.75348   0.90783   0.00000  Uiso   1.00
C154   C     0.82244   0.68818   0.86776   0.00000  Uiso   1.00
C155   C     0.83758   0.64034   0.93997   0.00000  Uiso   1.00
C156   C     0.91120   0.84668   0.93426   0.00000  Uiso   1.00
C157   C     0.95185   0.85975   0.91640   0.00000  Uiso   1.00
C158   C     0.02616   0.89038   0.01084   0.00000  Uiso   1.00
C159   C     0.77650   0.86195   0.82395   0.00000  Uiso   1.00
C160   C     0.70391   0.88789   0.71337   0.00000  Uiso   1.00
C161   C     0.66483   0.93139   0.71495   0.00000  Uiso   1.00
H162   H     0.91417   0.85790   0.12693   0.00000  Uiso   1.00
H163   H     0.91358   0.73574   0.17229   0.00000  Uiso   1.00
H164   H     0.04296   0.90730   0.22091   0.00000  Uiso   1.00
H165   H     0.79506   0.93542   0.01791   0.00000  Uiso   1.00
H166   H     0.89866   0.59285   0.17483   0.00000  Uiso   1.00
H167   H     0.17145   0.95459   0.27733   0.00000  Uiso   1.00
H168   H     0.64871   0.01391   0.84926   0.00000  Uiso   1.00
H169   H     0.80399   0.80042   0.75876   0.00000  Uiso   1.00
H170   H     0.79735   0.67511   0.78392   0.00000  Uiso   1.00
H171   H     0.92674   0.84666   0.83255   0.00000  Uiso   1.00
H172   H     0.67884   0.87479   0.62954   0.00000  Uiso   1.00
H173   H     0.80433   0.54363   0.85962   0.00000  Uiso   1.00
H174   H     0.07713   0.90538   0.96212   0.00000  Uiso   1.00
H175   H     0.55438   0.96470   0.53405   0.00000  Uiso   1.00
O176   O     0.84915   0.48684   0.04044   0.00000  Uiso   1.00
O177   O     0.20703   0.96145   0.17490   0.00000  Uiso   1.00
O178   O     0.52120   0.03927   0.61329   0.00000  Uiso   1.00
N179   N     0.87736   0.59846   0.09718   0.00000  Uiso   1.00
N180   N     0.13241   0.93667   0.19302   0.00000  Uiso   1.00
N181   N     0.64369   0.99214   0.79282   0.00000  Uiso   1.00
N182   N     0.82660   0.57198   0.92756   0.00000  Uiso   1.00
N183   N     0.08165   0.91018   0.02340   0.00000  Uiso   1.00
N184   N     0.59293   0.96565   0.62320   0.00000  Uiso   1.00
C185   C     0.38892   0.65527   0.54258   0.00000  Uiso   1.00
C186   C     0.37332   0.72961   0.51617   0.00000  Uiso   1.00
C187   C     0.38848   0.77737   0.58845   0.00000  Uiso   1.00
C188   C     0.37006   0.84272   0.54851   0.00000  Uiso   1.00
C189   C     0.35080   0.95558   0.52401   0.00000  Uiso   1.00
C190   C     0.44362   0.63641   0.54259   0.00000  Uiso   1.00
C191   C     0.51789   0.60579   0.63708   0.00000  Uiso   1.00
C192   C     0.55864   0.59268   0.61938   0.00000  Uiso   1.00
C193   C     0.64850   0.56080   0.63587   0.00000  Uiso   1.00
C194   C     0.30893   0.62113   0.43230   0.00000  Uiso   1.00
C195   C     0.26995   0.57765   0.43405   0.00000  Uiso   1.00
C196   C     0.19731   0.55167   0.32349   0.00000  Uiso   1.00
C197   C     0.07804   0.49607   0.16873   0.00000  Uiso   1.00
C198   C     0.32923   0.68641   0.34311   0.00000  Uiso   1.00
C199   C     0.34090   0.74652   0.40783   0.00000  Uiso   1.00
C200   C     0.32244   0.81182   0.36776   0.00000  Uiso   1.00
C201   C     0.33758   0.85966   0.43997   0.00000  Uiso   1.00
C202   C     0.41120   0.65332   0.43426   0.00000  Uiso   1.00
C203   C     0.45185   0.64025   0.41640   0.00000  Uiso   1.00
C204   C     0.52616   0.60962   0.51084   0.00000  Uiso   1.00
C205   C     0.27650   0.63805   0.32395   0.00000  Uiso   1.00
C206   C     0.20391   0.61211   0.21337   0.00000  Uiso   1.00
C207   C     0.16483   0.56861   0.21495   0.00000  Uiso   1.00
H208   H     0.41417   0.64210   0.62693   0.00000  Uiso   1.00
H209   H     0.41358   0.76426   0.67229   0.00000  Uiso   1.00
H210   H     0.54296   0.59270   0.72091   0.00000  Uiso   1.00
H211   H     0.29506   0.56458   0.51791   0.00000  Uiso   1.00
H212   H     0.39866   0.90715   0.67483   0.00000  Uiso   1.00
H213   H     0.67145   0.54541   0.77733   0.00000  Uiso   1.00
H214   H     0.14871   0.48609   0.34926   0.00000  Uiso   1.00
H215   H     0.30399   0.69958   0.25876   0.00000  Uiso   1.00
H216   H     0.29735   0.82489   0.28392   0.00000  Uiso   1.00
H217   H     0.42674   0.65334   0.33255   0.00000  Uiso   1.00
H218   H     0.17884   0.62521   0.12954   0.00000  Uiso   1.00
H219   H     0.30433   0.95637   0.35962   0.00000  Uiso   1.00
H220   H     0.57713   0.59462   0.46212   0.00000  Uiso   1.00
H221   H     0.05438   0.53530   0.03405   0.00000  Uiso   1.00
O222   O     0.34915   0.01316   0.54044   0.00000  Uiso   1.00
O223   O     0.70703   0.53855   0.67490   0.00000  Uiso   1.00
O224   O     0.02120   0.46073   0.11329   0.00000  Uiso   1.00
N225   N     0.37736   0.90154   0.59718   0.00000  Uiso   1.00
N226   N     0.63241   0.56333   0.69302   0.00000  Uiso   1.00
N227   N     0.14369   0.50786   0.29282   0.00000  Uiso   1.00
N228   N     0.32660   0.92802   0.42756   0.00000  Uiso   1.00
N229   N     0.58165   0.58982   0.52340   0.00000  Uiso   1.00
N230   N     0.09293   0.53435   0.12320   0.00000  Uiso   1.00
C231   C     0.88892   0.15527   0.54258   0.00000  Uiso   1.00
C232   C     0.87332   0.22961   0.51617   0.00000  Uiso   1.00
C233   C     0.88848   0.27737   0.58845   0.00000  Uiso   1.00
C234   C     0.87006   0.34272   0.54851   0.00000  Uiso   1.00
C235   C     0.85080   0.45558   0.52401   0.00000  Uiso   1.00
C236   C     0.94362   0.13641   0.54259   0.00000  Uiso   1.00
C237   C     0.01789   0.10579   0.63708   0.00000  Uiso   1.00
C238   C     0.05864   0.09268   0.61938   0.00000  Uiso   1.00
C239   C     0.14850   0.06080   0.63587   0.00000  Uiso   1.00
C240   C     0.80893   0.12113   0.43230   0.00000  Uiso   1.00
C241   C     0.76995   0.07765   0.43405   0.00000  Uiso   1.00
C242   C     0.69731   0.05167   0.32349   0.00000  Uiso   1.00
C243   C     0.57804   0.99607   0.16873   0.00000  Uiso   1.00
C244   C     0.82923   0.18641   0.34311   0.00000  Uiso   1.00
C245   C     0.84090   0.24652   0.40783   0.00000  Uiso   1.00
C246   C     0.82244   0.31182   0.36776   0.00000  Uiso   1.00
C247   C     0.83758   0.35966   0.43997   0.00000  Uiso   1.00
C248   C     0.91120   0.15332   0.43426   0.00000  Uiso   1.00
C249   C     0.95185   0.14025   0.41640   0.00000  Uiso   1.00
C250   C     0.02616   0.10962   0.51084   0.00000  Uiso   1.00
C251   C     0.77650   0.13805   0.32395   0.00000  Uiso   1.00
C252   C     0.70391   0.11211   0.21337   0.00000  Uiso   1.00
C253   C     0.66483   0.06861   0.21495   0.00000  Uiso   1.00
H254   H     0.91417   0.14210   0.62693   0.00000  Uiso   1.00
H255   H     0.91358   0.26426   0.67229   0.00000  Uiso   1.00
H256   H     0.04296   0.09270   0.72091   0.00000  Uiso   1.00
H257   H     0.79506   0.06458   0.51791   0.00000  Uiso   1.00
H258   H     0.89866   0.40715   0.67483   0.00000  Uiso   1.00
H259   H     0.17145   0.04541   0.77733   0.00000  Uiso   1.00
H260   H     0.64871   0.98609   0.34926   0.00000  Uiso   1.00
H261   H     0.80399   0.19958   0.25876   0.00000  Uiso   1.00
H262   H     0.79735   0.32489   0.28392   0.00000  Uiso   1.00
H263   H     0.92674   0.15334   0.33255   0.00000  Uiso   1.00
H264   H     0.67884   0.12521   0.12954   0.00000  Uiso   1.00
H265   H     0.80433   0.45637   0.35962   0.00000  Uiso   1.00
H266   H     0.07713   0.09462   0.46212   0.00000  Uiso   1.00
H267   H     0.55438   0.03530   0.03405   0.00000  Uiso   1.00
O268   O     0.84915   0.51316   0.54044   0.00000  Uiso   1.00
O269   O     0.20703   0.03855   0.67490   0.00000  Uiso   1.00
O270   O     0.52120   0.96073   0.11329   0.00000  Uiso   1.00
N271   N     0.87736   0.40154   0.59718   0.00000  Uiso   1.00
N272   N     0.13241   0.06333   0.69302   0.00000  Uiso   1.00
N273   N     0.64369   0.00786   0.29282   0.00000  Uiso   1.00
N274   N     0.82660   0.42802   0.42756   0.00000  Uiso   1.00
N275   N     0.08165   0.08982   0.52340   0.00000  Uiso   1.00
N276   N     0.59293   0.03435   0.12320   0.00000  Uiso   1.00
C277   C     0.61108   0.65527   0.95742   0.00000  Uiso   1.00
C278   C     0.62668   0.72961   0.98383   0.00000  Uiso   1.00
C279   C     0.61152   0.77737   0.91155   0.00000  Uiso   1.00
C280   C     0.62994   0.84272   0.95149   0.00000  Uiso   1.00
C281   C     0.64920   0.95558   0.97599   0.00000  Uiso   1.00
C282   C     0.55638   0.63641   0.95741   0.00000  Uiso   1.00
C283   C     0.48211   0.60579   0.86292   0.00000  Uiso   1.00
C284   C     0.44136   0.59268   0.88062   0.00000  Uiso   1.00
C285   C     0.35150   0.56080   0.86413   0.00000  Uiso   1.00
C286   C     0.69107   0.62113   0.06770   0.00000  Uiso   1.00
C287   C     0.73005   0.57765   0.06595   0.00000  Uiso   1.00
C288   C     0.80269   0.55167   0.17651   0.00000  Uiso   1.00
C289   C     0.92196   0.49607   0.33127   0.00000  Uiso   1.00
C290   C     0.67077   0.68641   0.15689   0.00000  Uiso   1.00
C291   C     0.65910   0.74652   0.09217   0.00000  Uiso   1.00
C292   C     0.67756   0.81182   0.13224   0.00000  Uiso   1.00
C293   C     0.66242   0.85966   0.06003   0.00000  Uiso   1.00
C294   C     0.58880   0.65332   0.06574   0.00000  Uiso   1.00
C295   C     0.54815   0.64025   0.08360   0.00000  Uiso   1.00
C296   C     0.47384   0.60962   0.98916   0.00000  Uiso   1.00
C297   C     0.72350   0.63805   0.17605   0.00000  Uiso   1.00
C298   C     0.79609   0.61211   0.28663   0.00000  Uiso   1.00
C299   C     0.83517   0.56861   0.28505   0.00000  Uiso   1.00
H300   H     0.58583   0.64210   0.87307   0.00000  Uiso   1.00
H301   H     0.58642   0.76426   0.82771   0.00000  Uiso   1.00
H302   H     0.45704   0.59270   0.77909   0.00000  Uiso   1.00
H303   H     0.70494   0.56458   0.98209   0.00000  Uiso   1.00
H304   H     0.60134   0.90715   0.82517   0.00000  Uiso   1.00
H305   H     0.32855   0.54541   0.72267   0.00000  Uiso   1.00
H306   H     0.85129   0.48609   0.15074   0.00000  Uiso   1.00
H307   H     0.69601   0.69958   0.24124   0.00000  Uiso   1.00
H308   H     0.70265   0.82489   0.21608   0.00000  Uiso   1.00
H309   H     0.57326   0.65334   0.16745   0.00000  Uiso   1.00
H310   H     0.82116   0.62521   0.37046   0.00000  Uiso   1.00
H311   H     0.69567   0.95637   0.14038   0.00000  Uiso   1.00
H312   H     0.42287   0.59462   0.03788   0.00000  Uiso   1.00
H313   H     0.94562   0.53530   0.46595   0.00000  Uiso   1.00
O314   O     0.65085   0.01316   0.95956   0.00000  Uiso   1.00
O315   O     0.29297   0.53855   0.82510   0.00000  Uiso   1.00
O316   O     0.97880   0.46073   0.38671   0.00000  Uiso   1.00
N317   N     0.62264   0.90154   0.90282   0.00000  Uiso   1.00
N318   N     0.36759   0.56333   0.80698   0.00000  Uiso   1.00
N319   N     0.85631   0.50786   0.20718   0.00000  Uiso   1.00
N320   N     0.67340   0.92802   0.07244   0.00000  Uiso   1.00
N321   N     0.41835   0.58982   0.97660   0.00000  Uiso   1.00
N322   N     0.90707   0.53435   0.37680   0.00000  Uiso   1.00
C323   C     0.11108   0.15527   0.95742   0.00000  Uiso   1.00
C324   C     0.12668   0.22961   0.98383   0.00000  Uiso   1.00
C325   C     0.11152   0.27737   0.91155   0.00000  Uiso   1.00
C326   C     0.12994   0.34272   0.95149   0.00000  Uiso   1.00
C327   C     0.14920   0.45558   0.97599   0.00000  Uiso   1.00
C328   C     0.05638   0.13641   0.95741   0.00000  Uiso   1.00
C329   C     0.98211   0.10579   0.86292   0.00000  Uiso   1.00
C330   C     0.94136   0.09268   0.88062   0.00000  Uiso   1.00
C331   C     0.85150   0.06080   0.86413   0.00000  Uiso   1.00
C332   C     0.19107   0.12113   0.06770   0.00000  Uiso   1.00
C333   C     0.23005   0.07765   0.06595   0.00000  Uiso   1.00
C334   C     0.30269   0.05167   0.17651   0.00000  Uiso   1.00
C335   C     0.42196   0.99607   0.33127   0.00000  Uiso   1.00
C336   C     0.17077   0.18641   0.15689   0.00000  Uiso   1.00
C337   C     0.15910   0.24652   0.09217   0.00000  Uiso   1.00
C338   C     0.17756   0.31182   0.13224   0.00000  Uiso   1.00
C339   C     0.16242   0.35966   0.06003   0.00000  Uiso   1.00
C340   C     0.08880   0.15332   0.06574   0.00000  Uiso   1.00
C341   C     0.04815   0.14025   0.08360   0.00000  Uiso   1.00
C342   C     0.97384   0.10962   0.98916   0.00000  Uiso   1.00
C343   C     0.22350   0.13805   0.17605   0.00000  Uiso   1.00
C344   C     0.29609   0.11211   0.28663   0.00000  Uiso   1.00
C345   C     0.33517   0.06861   0.28505   0.00000  Uiso   1.00
H346   H     0.08583   0.14210   0.87307   0.00000  Uiso   1.00
H347   H     0.08642   0.26426   0.82771   0.00000  Uiso   1.00
H348   H     0.95704   0.09270   0.77909   0.00000  Uiso   1.00
H349   H     0.20494   0.06458   0.98209   0.00000  Uiso   1.00
H350   H     0.10134   0.40715   0.82517   0.00000  Uiso   1.00
H351   H     0.82855   0.04541   0.72267   0.00000  Uiso   1.00
H352   H     0.35129   0.98609   0.15074   0.00000  Uiso   1.00
H353   H     0.19601   0.19958   0.24124   0.00000  Uiso   1.00
H354   H     0.20265   0.32489   0.21608   0.00000  Uiso   1.00
H355   H     0.07326   0.15334   0.16745   0.00000  Uiso   1.00
H356   H     0.32116   0.12521   0.37046   0.00000  Uiso   1.00
H357   H     0.19567   0.45637   0.14038   0.00000  Uiso   1.00
H358   H     0.92287   0.09462   0.03788   0.00000  Uiso   1.00
H359   H     0.44562   0.03530   0.46595   0.00000  Uiso   1.00
O360   O     0.15085   0.51316   0.95956   0.00000  Uiso   1.00
O361   O     0.79297   0.03855   0.82510   0.00000  Uiso   1.00
O362   O     0.47880   0.96073   0.38671   0.00000  Uiso   1.00
N363   N     0.12264   0.40154   0.90282   0.00000  Uiso   1.00
N364   N     0.86759   0.06333   0.80698   0.00000  Uiso   1.00
N365   N     0.35631   0.00786   0.20718   0.00000  Uiso   1.00
N366   N     0.17340   0.42802   0.07244   0.00000  Uiso   1.00
N367   N     0.91835   0.08982   0.97660   0.00000  Uiso   1.00
N368   N     0.40707   0.03435   0.37680   0.00000  Uiso   1.00
