data_job_06541
_audit_creation_date              2018-12-19
_audit_creation_method            'Materials Studio'
_symmetry_space_group_name_H-M    'P1'
_symmetry_Int_Tables_number       1
_symmetry_cell_setting            triclinic
loop_
_symmetry_equiv_pos_as_xyz
  x,y,z
_cell_length_a                    24.5379
_cell_length_b                    17.4037
_cell_length_c                    19.7720
_cell_angle_alpha                 78.8654
_cell_angle_beta                  73.9458
_cell_angle_gamma                 84.0850
loop_
_atom_site_label
_atom_site_type_symbol
_atom_site_fract_x
_atom_site_fract_y
_atom_site_fract_z
_atom_site_U_iso_or_equiv
_atom_site_adp_type
_atom_site_occupancy
C1     C     0.16974   0.19528   0.92155   0.00000  Uiso   1.00
C2     C     0.12001   0.14417   0.96164   0.00000  Uiso   1.00
C3     C     0.12120   0.07956   0.01487   0.00000  Uiso   1.00
C4     C     0.07127   0.04057   0.04495   0.00000  Uiso   1.00
C5     C     0.00155   0.95740   0.11058   0.00000  Uiso   1.00
C6     C     0.17784   0.19408   0.84245   0.00000  Uiso   1.00
C7     C     0.22765   0.17146   0.79547   0.00000  Uiso   1.00
C8     C     0.22640   0.17450   0.72522   0.00000  Uiso   1.00
C9     C     0.24648   0.16889   0.60580   0.00000  Uiso   1.00
C10    C     0.14917   0.27887   0.93229   0.00000  Uiso   1.00
C11    C     0.17489   0.32755   0.96083   0.00000  Uiso   1.00
C12    C     0.14951   0.40199   0.96621   0.00000  Uiso   1.00
C13    C     0.12508   0.52803   0.98628   0.00000  Uiso   1.00
C14    C     0.07896   0.24093   0.88033   0.00000  Uiso   1.00
C15    C     0.07070   0.16896   0.93925   0.00000  Uiso   1.00
C16    C     0.02075   0.13007   0.96926   0.00000  Uiso   1.00
C17    C     0.02187   0.06541   0.02252   0.00000  Uiso   1.00
C18    C     0.12853   0.21888   0.82006   0.00000  Uiso   1.00
C19    C     0.12720   0.22197   0.74986   0.00000  Uiso   1.00
C20    C     0.17700   0.19934   0.70279   0.00000  Uiso   1.00
C21    C     0.09986   0.30367   0.90991   0.00000  Uiso   1.00
C22    C     0.07444   0.37806   0.91523   0.00000  Uiso   1.00
C23    C     0.10011   0.42684   0.94377   0.00000  Uiso   1.00
H24    H     0.20814   0.17598   0.93897   0.00000  Uiso   1.00
H25    H     0.15937   0.06038   0.03217   0.00000  Uiso   1.00
H26    H     0.26581   0.15228   0.81281   0.00000  Uiso   1.00
H27    H     0.21305   0.30834   0.97815   0.00000  Uiso   1.00
H28    H     0.08356   0.94314   0.12561   0.00000  Uiso   1.00
H29    H     0.30799   0.13693   0.66307   0.00000  Uiso   1.00
H30    H     0.19675   0.46603   0.01172   0.00000  Uiso   1.00
H31    H     0.04056   0.26024   0.86289   0.00000  Uiso   1.00
H32    H     0.98260   0.14927   0.95192   0.00000  Uiso   1.00
H33    H     0.08904   0.24116   0.73256   0.00000  Uiso   1.00
H34    H     0.03628   0.39723   0.89790   0.00000  Uiso   1.00
H35    H     0.94009   0.01528   0.06047   0.00000  Uiso   1.00
H36    H     0.16452   0.20908   0.59793   0.00000  Uiso   1.00
H37    H     0.05327   0.53817   0.94658   0.00000  Uiso   1.00
O38    O     0.97672   0.90468   0.15296   0.00000  Uiso   1.00
O39    O     0.27117   0.15894   0.54612   0.00000  Uiso   1.00
O40    O     0.12522   0.59070   0.00355   0.00000  Uiso   1.00
N41    N     0.05775   0.97536   0.09807   0.00000  Uiso   1.00
N42    N     0.26757   0.15653   0.66562   0.00000  Uiso   1.00
N43    N     0.16358   0.46422   0.99157   0.00000  Uiso   1.00
N44    N     0.98055   0.01418   0.06302   0.00000  Uiso   1.00
N45    N     0.19037   0.19535   0.63058   0.00000  Uiso   1.00
N46    N     0.08638   0.50303   0.95652   0.00000  Uiso   1.00
C47    C     0.09054   0.10221   0.24388   0.00000  Uiso   1.00
C48    C     0.08049   0.01534   0.25306   0.00000  Uiso   1.00
C49    C     0.11925   0.95929   0.22318   0.00000  Uiso   1.00
C50    C     0.10194   0.88297   0.23795   0.00000  Uiso   1.00
C51    C     0.09456   0.75106   0.24562   0.00000  Uiso   1.00
C52    C     0.04306   0.14653   0.21384   0.00000  Uiso   1.00
C53    C     0.05036   0.20079   0.15100   0.00000  Uiso   1.00
C54    C     0.00154   0.23491   0.13275   0.00000  Uiso   1.00
C55    C     0.93605   0.30672   0.07956   0.00000  Uiso   1.00
C56    C     0.07975   0.12019   0.31910   0.00000  Uiso   1.00
C57    C     0.11789   0.15232   0.34477   0.00000  Uiso   1.00
C58    C     0.09995   0.16429   0.41515   0.00000  Uiso   1.00
C59    C     0.09143   0.19519   0.52540   0.00000  Uiso   1.00
C60    C     0.99085   0.06636   0.32322   0.00000  Uiso   1.00
C61    C     0.02634   0.99587   0.29615   0.00000  Uiso   1.00
C62    C     0.00896   0.91962   0.31097   0.00000  Uiso   1.00
C63    C     0.04769   0.86347   0.28112   0.00000  Uiso   1.00
C64    C     0.98892   0.12706   0.25693   0.00000  Uiso   1.00
C65    C     0.94007   0.16112   0.23878   0.00000  Uiso   1.00
C66    C     0.94729   0.21541   0.17593   0.00000  Uiso   1.00
C67    C     0.02560   0.10072   0.36220   0.00000  Uiso   1.00
C68    C     0.00760   0.11265   0.43255   0.00000  Uiso   1.00
C69    C     0.04570   0.14478   0.45832   0.00000  Uiso   1.00
H70    H     0.13269   0.11737   0.21032   0.00000  Uiso   1.00
H71    H     0.16115   0.97438   0.18983   0.00000  Uiso   1.00
H72    H     0.09227   0.21585   0.11766   0.00000  Uiso   1.00
H73    H     0.15978   0.16738   0.31140   0.00000  Uiso   1.00
H74    H     0.16881   0.80727   0.18609   0.00000  Uiso   1.00
H75    H     0.02357   0.31643   0.03393   0.00000  Uiso   1.00
H76    H     0.16595   0.21423   0.44247   0.00000  Uiso   1.00
H77    H     0.94870   0.05120   0.35678   0.00000  Uiso   1.00
H78    H     0.96706   0.90457   0.34432   0.00000  Uiso   1.00
H79    H     0.89818   0.14604   0.27215   0.00000  Uiso   1.00
H80    H     0.96570   0.09757   0.46589   0.00000  Uiso   1.00
H81    H     0.01128   0.75061   0.31148   0.00000  Uiso   1.00
H82    H     0.86604   0.25978   0.15932   0.00000  Uiso   1.00
H83    H     0.00842   0.15758   0.56786   0.00000  Uiso   1.00
O84    O     0.10544   0.68368   0.23793   0.00000  Uiso   1.00
O85    O     0.91489   0.35169   0.03831   0.00000  Uiso   1.00
O86    O     0.10169   0.21761   0.57430   0.00000  Uiso   1.00
N87    N     0.12922   0.81405   0.21732   0.00000  Uiso   1.00
N88    N     0.99343   0.29008   0.07506   0.00000  Uiso   1.00
N89    N     0.12654   0.19455   0.45700   0.00000  Uiso   1.00
N90    N     0.04446   0.78357   0.28480   0.00000  Uiso   1.00
N91    N     0.90867   0.25959   0.14253   0.00000  Uiso   1.00
N92    N     0.04177   0.16407   0.52447   0.00000  Uiso   1.00
C93    C     0.26481   0.87464   0.97822   0.00000  Uiso   1.00
C94    C     0.27245   0.88480   0.89785   0.00000  Uiso   1.00
C95    C     0.23802   0.93214   0.85984   0.00000  Uiso   1.00
C96    C     0.25210   0.93340   0.78663   0.00000  Uiso   1.00
C97    C     0.25682   0.95591   0.66699   0.00000  Uiso   1.00
C98    C     0.26043   0.78690   0.00637   0.00000  Uiso   1.00
C99    C     0.21589   0.75194   0.05962   0.00000  Uiso   1.00
C100   C     0.21986   0.67079   0.07777   0.00000  Uiso   1.00
C101   C     0.20594   0.54133   0.12665   0.00000  Uiso   1.00
C102   C     0.32065   0.89607   0.98767   0.00000  Uiso   1.00
C103   C     0.32675   0.95288   0.02521   0.00000  Uiso   1.00
C104   C     0.38142   0.96364   0.02764   0.00000  Uiso   1.00
C105   C     0.46100   0.00367   0.04749   0.00000  Uiso   1.00
C106   C     0.35105   0.79272   0.91580   0.00000  Uiso   1.00
C107   C     0.31929   0.84030   0.86395   0.00000  Uiso   1.00
C108   C     0.33343   0.84150   0.79077   0.00000  Uiso   1.00
C109   C     0.29903   0.88883   0.75266   0.00000  Uiso   1.00
C110   C     0.30727   0.74240   0.97247   0.00000  Uiso   1.00
C111   C     0.31131   0.66130   0.99055   0.00000  Uiso   1.00
C112   C     0.26679   0.62621   0.04380   0.00000  Uiso   1.00
C113   C     0.36749   0.85157   0.95377   0.00000  Uiso   1.00
C114   C     0.42216   0.86224   0.95614   0.00000  Uiso   1.00
C115   C     0.42835   0.91906   0.99367   0.00000  Uiso   1.00
H116   H     0.22834   0.90928   0.00462   0.00000  Uiso   1.00
H117   H     0.20177   0.96656   0.88610   0.00000  Uiso   1.00
H118   H     0.17965   0.78639   0.08585   0.00000  Uiso   1.00
H119   H     0.29049   0.98730   0.05144   0.00000  Uiso   1.00
H120   H     0.19295   0.01041   0.73975   0.00000  Uiso   1.00
H121   H     0.14633   0.63052   0.16094   0.00000  Uiso   1.00
H122   H     0.38005   0.05418   0.08840   0.00000  Uiso   1.00
H123   H     0.38752   0.75807   0.88940   0.00000  Uiso   1.00
H124   H     0.36968   0.80705   0.76455   0.00000  Uiso   1.00
H125   H     0.34757   0.62688   0.96430   0.00000  Uiso   1.00
H126   H     0.45840   0.82779   0.92990   0.00000  Uiso   1.00
H127   H     0.32924   0.88095   0.64109   0.00000  Uiso   1.00
H128   H     0.28261   0.50105   0.06230   0.00000  Uiso   1.00
H129   H     0.51634   0.92472   0.98975   0.00000  Uiso   1.00
O130   O     0.24648   0.98061   0.61037   0.00000  Uiso   1.00
O131   O     0.18531   0.48221   0.16298   0.00000  Uiso   1.00
O132   O     0.49195   0.03805   0.06779   0.00000  Uiso   1.00
N133   N     0.22748   0.97324   0.73366   0.00000  Uiso   1.00
N134   N     0.18389   0.61805   0.12745   0.00000  Uiso   1.00
N135   N     0.40240   0.01413   0.05964   0.00000  Uiso   1.00
N136   N     0.30081   0.90357   0.68058   0.00000  Uiso   1.00
N137   N     0.25722   0.54839   0.07436   0.00000  Uiso   1.00
N138   N     0.47573   0.94447   0.00655   0.00000  Uiso   1.00
C139   C     0.71472   0.45319   0.72668   0.00000  Uiso   1.00
C140   C     0.65872   0.44574   0.70972   0.00000  Uiso   1.00
C141   C     0.64911   0.46277   0.64233   0.00000  Uiso   1.00
C142   C     0.59495   0.45212   0.63801   0.00000  Uiso   1.00
C143   C     0.51454   0.44458   0.60241   0.00000  Uiso   1.00
C144   C     0.72977   0.37259   0.76541   0.00000  Uiso   1.00
C145   C     0.77990   0.32812   0.74484   0.00000  Uiso   1.00
C146   C     0.78554   0.25589   0.78742   0.00000  Uiso   1.00
C147   C     0.81546   0.13480   0.83830   0.00000  Uiso   1.00
C148   C     0.70145   0.50752   0.78177   0.00000  Uiso   1.00
C149   C     0.72779   0.57650   0.77498   0.00000  Uiso   1.00
C150   C     0.70961   0.61787   0.83134   0.00000  Uiso   1.00
C151   C     0.69556   0.70629   0.90763   0.00000  Uiso   1.00
C152   C     0.63562   0.40400   0.83886   0.00000  Uiso   1.00
C153   C     0.61576   0.41902   0.77065   0.00000  Uiso   1.00
C154   C     0.56159   0.40835   0.76644   0.00000  Uiso   1.00
C155   C     0.55190   0.42535   0.69905   0.00000  Uiso   1.00
C156   C     0.68681   0.34587   0.82634   0.00000  Uiso   1.00
C157   C     0.69238   0.27369   0.86896   0.00000  Uiso   1.00
C158   C     0.74250   0.22912   0.84846   0.00000  Uiso   1.00
C159   C     0.65849   0.48081   0.84271   0.00000  Uiso   1.00
C160   C     0.64027   0.52208   0.89909   0.00000  Uiso   1.00
C161   C     0.66656   0.59110   0.89238   0.00000  Uiso   1.00
H162   H     0.74817   0.47399   0.67924   0.00000  Uiso   1.00
H163   H     0.68237   0.48344   0.59518   0.00000  Uiso   1.00
H164   H     0.81314   0.34881   0.69769   0.00000  Uiso   1.00
H165   H     0.76103   0.59715   0.72782   0.00000  Uiso   1.00
H166   H     0.59048   0.48210   0.52886   0.00000  Uiso   1.00
H167   H     0.86622   0.19825   0.74502   0.00000  Uiso   1.00
H168   H     0.75635   0.72193   0.80855   0.00000  Uiso   1.00
H169   H     0.60217   0.38320   0.88630   0.00000  Uiso   1.00
H170   H     0.52835   0.38767   0.81360   0.00000  Uiso   1.00
H171   H     0.65912   0.25304   0.91611   0.00000  Uiso   1.00
H172   H     0.60702   0.50138   0.94623   0.00000  Uiso   1.00
H173   H     0.46548   0.40437   0.70613   0.00000  Uiso   1.00
H174   H     0.74122   0.12052   0.92229   0.00000  Uiso   1.00
H175   H     0.63135   0.64420   0.98582   0.00000  Uiso   1.00
O176   O     0.48207   0.44779   0.56593   0.00000  Uiso   1.00
O177   O     0.84383   0.07539   0.84953   0.00000  Uiso   1.00
O178   O     0.69968   0.76245   0.93288   0.00000  Uiso   1.00
N179   N     0.57119   0.46321   0.58056   0.00000  Uiso   1.00
N180   N     0.82899   0.19782   0.78265   0.00000  Uiso   1.00
N181   N     0.72628   0.68741   0.84205   0.00000  Uiso   1.00
N182   N     0.50393   0.42138   0.67595   0.00000  Uiso   1.00
N183   N     0.76172   0.15599   0.87803   0.00000  Uiso   1.00
N184   N     0.65901   0.64558   0.93744   0.00000  Uiso   1.00
C185   C     0.49191   0.76924   0.53360   0.00000  Uiso   1.00
C186   C     0.49837   0.75502   0.45799   0.00000  Uiso   1.00
C187   C     0.54911   0.73788   0.40974   0.00000  Uiso   1.00
C188   C     0.54605   0.72686   0.34321   0.00000  Uiso   1.00
C189   C     0.56398   0.70384   0.22848   0.00000  Uiso   1.00
C190   C     0.45026   0.71033   0.58293   0.00000  Uiso   1.00
C191   C     0.46055   0.65562   0.63973   0.00000  Uiso   1.00
C192   C     0.41699   0.60699   0.67839   0.00000  Uiso   1.00
C193   C     0.36021   0.51463   0.75767   0.00000  Uiso   1.00
C194   C     0.46154   0.84985   0.53773   0.00000  Uiso   1.00
C195   C     0.48131   0.91245   0.55654   0.00000  Uiso   1.00
C196   C     0.44724   0.98129   0.55716   0.00000  Uiso   1.00
C197   C     0.40798   0.10555   0.56625   0.00000  Uiso   1.00
C198   C     0.39624   0.78017   0.50125   0.00000  Uiso   1.00
C199   C     0.44640   0.76095   0.44042   0.00000  Uiso   1.00
C200   C     0.44326   0.74997   0.37394   0.00000  Uiso   1.00
C201   C     0.49400   0.73281   0.32560   0.00000  Uiso   1.00
C202   C     0.39829   0.71626   0.56536   0.00000  Uiso   1.00
C203   C     0.35470   0.66771   0.60394   0.00000  Uiso   1.00
C204   C     0.36493   0.61294   0.66079   0.00000  Uiso   1.00
C205   C     0.40958   0.85579   0.52015   0.00000  Uiso   1.00
C206   C     0.37547   0.92454   0.52075   0.00000  Uiso   1.00
C207   C     0.39518   0.98723   0.53956   0.00000  Uiso   1.00
H208   H     0.53236   0.76462   0.54729   0.00000  Uiso   1.00
H209   H     0.58932   0.73328   0.42336   0.00000  Uiso   1.00
H210   H     0.50076   0.65105   0.65332   0.00000  Uiso   1.00
H211   H     0.52153   0.90784   0.57014   0.00000  Uiso   1.00
H212   H     0.62954   0.70113   0.27822   0.00000  Uiso   1.00
H213   H     0.44282   0.52775   0.76313   0.00000  Uiso   1.00
H214   H     0.48660   0.06924   0.58772   0.00000  Uiso   1.00
H215   H     0.35578   0.78479   0.48757   0.00000  Uiso   1.00
H216   H     0.40305   0.75456   0.36036   0.00000  Uiso   1.00
H217   H     0.31450   0.67232   0.59033   0.00000  Uiso   1.00
H218   H     0.33526   0.92911   0.50715   0.00000  Uiso   1.00
H219   H     0.47836   0.71840   0.22709   0.00000  Uiso   1.00
H220   H     0.29164   0.54501   0.71201   0.00000  Uiso   1.00
H221   H     0.33541   0.08651   0.53660   0.00000  Uiso   1.00
O222   O     0.58822   0.68949   0.17006   0.00000  Uiso   1.00
O223   O     0.34325   0.46203   0.80625   0.00000  Uiso   1.00
O224   O     0.40069   0.17245   0.57612   0.00000  Uiso   1.00
N225   N     0.58747   0.70936   0.28364   0.00000  Uiso   1.00
N226   N     0.41291   0.54725   0.73699   0.00000  Uiso   1.00
N227   N     0.45383   0.05349   0.57302   0.00000  Uiso   1.00
N228   N     0.50612   0.71865   0.25613   0.00000  Uiso   1.00
N229   N     0.33155   0.55654   0.70948   0.00000  Uiso   1.00
N230   N     0.37248   0.06278   0.54551   0.00000  Uiso   1.00
C231   C     0.89026   0.45168   0.46076   0.00000  Uiso   1.00
C232   C     0.88071   0.36459   0.47034   0.00000  Uiso   1.00
C233   C     0.85976   0.31578   0.53496   0.00000  Uiso   1.00
C234   C     0.85414   0.23790   0.53242   0.00000  Uiso   1.00
C235   C     0.83704   0.10695   0.55716   0.00000  Uiso   1.00
C236   C     0.85616   0.49358   0.40930   0.00000  Uiso   1.00
C237   C     0.81459   0.55322   0.42260   0.00000  Uiso   1.00
C238   C     0.78830   0.58392   0.36866   0.00000  Uiso   1.00
C239   C     0.73312   0.65325   0.29862   0.00000  Uiso   1.00
C240   C     0.95257   0.46156   0.42080   0.00000  Uiso   1.00
C241   C     0.99205   0.49430   0.44375   0.00000  Uiso   1.00
C242   C     0.04693   0.49805   0.39949   0.00000  Uiso   1.00
C243   C     0.14143   0.51767   0.34730   0.00000  Uiso   1.00
C244   C     0.91751   0.40016   0.34133   0.00000  Uiso   1.00
C245   C     0.89551   0.33661   0.40547   0.00000  Uiso   1.00
C246   C     0.88992   0.25878   0.40283   0.00000  Uiso   1.00
C247   C     0.86897   0.20986   0.46744   0.00000  Uiso   1.00
C248   C     0.87096   0.46560   0.34443   0.00000  Uiso   1.00
C249   C     0.84474   0.49622   0.29046   0.00000  Uiso   1.00
C250   C     0.80313   0.55589   0.30368   0.00000  Uiso   1.00
C251   C     0.96737   0.43357   0.35593   0.00000  Uiso   1.00
C252   C     0.02220   0.43729   0.31162   0.00000  Uiso   1.00
C253   C     0.06176   0.47002   0.33451   0.00000  Uiso   1.00
H254   H     0.87873   0.47347   0.51126   0.00000  Uiso   1.00
H255   H     0.84831   0.33746   0.58515   0.00000  Uiso   1.00
H256   H     0.80314   0.57487   0.47280   0.00000  Uiso   1.00
H257   H     0.98058   0.51594   0.49395   0.00000  Uiso   1.00
H258   H     0.82109   0.17434   0.63846   0.00000  Uiso   1.00
H259   H     0.72587   0.67494   0.40155   0.00000  Uiso   1.00
H260   H     0.10003   0.55070   0.44616   0.00000  Uiso   1.00
H261   H     0.92903   0.37837   0.29083   0.00000  Uiso   1.00
H262   H     0.90138   0.23714   0.35262   0.00000  Uiso   1.00
H263   H     0.85621   0.47455   0.24027   0.00000  Uiso   1.00
H264   H     0.03364   0.41563   0.26143   0.00000  Uiso   1.00
H265   H     0.86416   0.09292   0.44973   0.00000  Uiso   1.00
H266   H     0.76894   0.59352   0.21283   0.00000  Uiso   1.00
H267   H     0.14310   0.46927   0.25743   0.00000  Uiso   1.00
O268   O     0.82350   0.04245   0.58872   0.00000  Uiso   1.00
O269   O     0.69858   0.69922   0.27791   0.00000  Uiso   1.00
O270   O     0.18947   0.53621   0.33643   0.00000  Uiso   1.00
N271   N     0.83503   0.17456   0.58556   0.00000  Uiso   1.00
N272   N     0.74600   0.64258   0.36407   0.00000  Uiso   1.00
N273   N     0.09580   0.52644   0.40577   0.00000  Uiso   1.00
N274   N     0.85821   0.13075   0.48401   0.00000  Uiso   1.00
N275   N     0.76917   0.59877   0.26252   0.00000  Uiso   1.00
N276   N     0.11898   0.48263   0.30422   0.00000  Uiso   1.00
C277   C     0.86552   0.78999   0.09211   0.00000  Uiso   1.00
C278   C     0.92459   0.81021   0.04493   0.00000  Uiso   1.00
C279   C     0.93789   0.87834   0.99541   0.00000  Uiso   1.00
C280   C     0.99444   0.88578   0.95755   0.00000  Uiso   1.00
C281   C     0.07982   0.92611   0.88259   0.00000  Uiso   1.00
C282   C     0.87046   0.77439   0.16883   0.00000  Uiso   1.00
C283   C     0.83824   0.81241   0.22349   0.00000  Uiso   1.00
C284   C     0.84922   0.78969   0.28993   0.00000  Uiso   1.00
C285   C     0.85054   0.77437   0.40735   0.00000  Uiso   1.00
C286   C     0.85411   0.71140   0.07684   0.00000  Uiso   1.00
C287   C     0.80815   0.69644   0.05417   0.00000  Uiso   1.00
C288   C     0.80536   0.62069   0.04317   0.00000  Uiso   1.00
C289   C     0.78130   0.50757   0.01776   0.00000  Uiso   1.00
C290   C     0.94228   0.68205   0.11293   0.00000  Uiso   1.00
C291   C     0.96628   0.75157   0.05624   0.00000  Uiso   1.00
C292   C     0.02282   0.75891   0.01844   0.00000  Uiso   1.00
C293   C     0.03621   0.82704   0.96887   0.00000  Uiso   1.00
C294   C     0.91215   0.71576   0.18014   0.00000  Uiso   1.00
C295   C     0.92317   0.69298   0.24652   0.00000  Uiso   1.00
C296   C     0.89099   0.73095   0.30126   0.00000  Uiso   1.00
C297   C     0.89581   0.65277   0.08815   0.00000  Uiso   1.00
C298   C     0.89308   0.57702   0.07719   0.00000  Uiso   1.00
C299   C     0.84713   0.56195   0.05450   0.00000  Uiso   1.00
H300   H     0.83305   0.83564   0.08331   0.00000  Uiso   1.00
H301   H     0.90561   0.92370   0.98668   0.00000  Uiso   1.00
H302   H     0.80598   0.85777   0.21472   0.00000  Uiso   1.00
H303   H     0.77589   0.74183   0.04542   0.00000  Uiso   1.00
H304   H     0.00445   0.99550   0.88455   0.00000  Uiso   1.00
H305   H     0.79435   0.85646   0.36540   0.00000  Uiso   1.00
H306   H     0.73090   0.61197   0.00840   0.00000  Uiso   1.00
H307   H     0.97474   0.63640   0.12174   0.00000  Uiso   1.00
H308   H     0.05508   0.71353   0.02720   0.00000  Uiso   1.00
H309   H     0.95544   0.64760   0.25525   0.00000  Uiso   1.00
H310   H     0.92536   0.53166   0.08595   0.00000  Uiso   1.00
H311   H     0.12576   0.82491   0.91744   0.00000  Uiso   1.00
H312   H     0.91566   0.68588   0.39829   0.00000  Uiso   1.00
H313   H     0.85222   0.44139   0.04129   0.00000  Uiso   1.00
O314   O     0.11540   0.96455   0.83813   0.00000  Uiso   1.00
O315   O     0.83975   0.78213   0.46899   0.00000  Uiso   1.00
O316   O     0.75651   0.46138   0.00061   0.00000  Uiso   1.00
N317   N     0.02197   0.94476   0.90525   0.00000  Uiso   1.00
N318   N     0.82555   0.81478   0.35482   0.00000  Uiso   1.00
N319   N     0.76622   0.58620   0.02107   0.00000  Uiso   1.00
N320   N     0.08725   0.85297   0.92295   0.00000  Uiso   1.00
N321   N     0.89082   0.72299   0.37252   0.00000  Uiso   1.00
N322   N     0.83150   0.49441   0.03877   0.00000  Uiso   1.00
C323   C     0.02908   0.81172   0.73264   0.00000  Uiso   1.00
C324   C     0.02668   0.90084   0.72458   0.00000  Uiso   1.00
C325   C     0.98509   0.94621   0.76484   0.00000  Uiso   1.00
C326   C     0.99050   0.02678   0.74924   0.00000  Uiso   1.00
C327   C     0.97989   0.16000   0.74495   0.00000  Uiso   1.00
C328   C     0.08667   0.78306   0.74595   0.00000  Uiso   1.00
C329   C     0.09552   0.72938   0.80417   0.00000  Uiso   1.00
C330   C     0.15144   0.71079   0.80656   0.00000  Uiso   1.00
C331   C     0.23397   0.66110   0.83542   0.00000  Uiso   1.00
C332   C     0.03114   0.79404   0.65935   0.00000  Uiso   1.00
C333   C     0.99331   0.74958   0.64477   0.00000  Uiso   1.00
C334   C     0.00247   0.74023   0.57425   0.00000  Uiso   1.00
C335   C     0.99878   0.70759   0.46866   0.00000  Uiso   1.00
C336   C     0.11264   0.87414   0.63335   0.00000  Uiso   1.00
C337   C     0.07207   0.93474   0.67065   0.00000  Uiso   1.00
C338   C     0.07755   0.01526   0.65498   0.00000  Uiso   1.00
C339   C     0.03597   0.06074   0.69521   0.00000  Uiso   1.00
C340   C     0.13206   0.81695   0.69202   0.00000  Uiso   1.00
C341   C     0.18798   0.79843   0.69432   0.00000  Uiso   1.00
C342   C     0.19691   0.74475   0.75253   0.00000  Uiso   1.00
C343   C     0.07653   0.82794   0.60542   0.00000  Uiso   1.00
C344   C     0.08576   0.81865   0.53491   0.00000  Uiso   1.00
C345   C     0.04795   0.77419   0.52022   0.00000  Uiso   1.00
H346   H     0.99374   0.78533   0.77463   0.00000  Uiso   1.00
H347   H     0.94997   0.91995   0.80657   0.00000  Uiso   1.00
H348   H     0.06039   0.70315   0.84589   0.00000  Uiso   1.00
H349   H     0.95819   0.72336   0.68651   0.00000  Uiso   1.00
H350   H     0.92148   0.08416   0.81823   0.00000  Uiso   1.00
H351   H     0.15430   0.62700   0.90112   0.00000  Uiso   1.00
H352   H     0.93878   0.66961   0.56504   0.00000  Uiso   1.00
H353   H     0.14798   0.90053   0.59136   0.00000  Uiso   1.00
H354   H     0.11268   0.04148   0.61324   0.00000  Uiso   1.00
H355   H     0.22309   0.82468   0.65257   0.00000  Uiso   1.00
H356   H     0.12089   0.84489   0.49319   0.00000  Uiso   1.00
H357   H     0.05354   0.18279   0.66132   0.00000  Uiso   1.00
H358   H     0.28635   0.72563   0.74421   0.00000  Uiso   1.00
H359   H     0.07084   0.76825   0.40813   0.00000  Uiso   1.00
O360   O     0.96151   0.22412   0.75749   0.00000  Uiso   1.00
O361   O     0.26696   0.62433   0.86624   0.00000  Uiso   1.00
O362   O     0.98421   0.68024   0.42531   0.00000  Uiso   1.00
N363   N     0.95740   0.08803   0.77828   0.00000  Uiso   1.00
N364   N     0.17507   0.66062   0.85579   0.00000  Uiso   1.00
N365   N     0.97359   0.70044   0.54159   0.00000  Uiso   1.00
N366   N     0.02846   0.14110   0.69385   0.00000  Uiso   1.00
N367   N     0.24613   0.71370   0.77136   0.00000  Uiso   1.00
N368   N     0.04465   0.75352   0.45716   0.00000  Uiso   1.00
C369   C     0.81640   0.05946   0.04610   0.00000  Uiso   1.00
C370   C     0.81069   0.06124   0.12457   0.00000  Uiso   1.00
C371   C     0.84514   0.01881   0.16528   0.00000  Uiso   1.00
C372   C     0.83298   0.02856   0.23608   0.00000  Uiso   1.00
C373   C     0.83097   0.02369   0.35352   0.00000  Uiso   1.00
C374   C     0.82269   0.14420   0.00768   0.00000  Uiso   1.00
C375   C     0.86722   0.17152   0.95010   0.00000  Uiso   1.00
C376   C     0.86515   0.25111   0.92250   0.00000  Uiso   1.00
C377   C     0.88175   0.37503   0.85842   0.00000  Uiso   1.00
C378   C     0.75905   0.03650   0.04260   0.00000  Uiso   1.00
C379   C     0.75008   0.97328   0.01436   0.00000  Uiso   1.00
C380   C     0.69444   0.96220   0.01613   0.00000  Uiso   1.00
C381   C     0.61224   0.91890   0.00626   0.00000  Uiso   1.00
C382   C     0.73354   0.15222   0.09944   0.00000  Uiso   1.00
C383   C     0.76568   0.11163   0.15354   0.00000  Uiso   1.00
C384   C     0.75346   0.12144   0.22430   0.00000  Uiso   1.00
C385   C     0.78789   0.07903   0.26511   0.00000  Uiso   1.00
C386   C     0.77768   0.19459   0.03665   0.00000  Uiso   1.00
C387   C     0.77554   0.27415   0.00912   0.00000  Uiso   1.00
C388   C     0.82006   0.30158   0.95152   0.00000  Uiso   1.00
C389   C     0.71404   0.08688   0.07157   0.00000  Uiso   1.00
C390   C     0.65840   0.07590   0.07338   0.00000  Uiso   1.00
C391   C     0.64935   0.01267   0.04516   0.00000  Uiso   1.00
H392   H     0.85144   0.02024   0.02354   0.00000  Uiso   1.00
H393   H     0.87997   0.97983   0.14284   0.00000  Uiso   1.00
H394   H     0.90204   0.13252   0.92769   0.00000  Uiso   1.00
H395   H     0.78492   0.93430   0.99194   0.00000  Uiso   1.00
H396   H     0.89176   0.95728   0.28788   0.00000  Uiso   1.00
H397   H     0.93829   0.27922   0.83421   0.00000  Uiso   1.00
H398   H     0.69132   0.86125   0.96969   0.00000  Uiso   1.00
H399   H     0.69850   0.19144   0.12200   0.00000  Uiso   1.00
H400   H     0.71863   0.16043   0.24671   0.00000  Uiso   1.00
H401   H     0.74070   0.31312   0.03155   0.00000  Uiso   1.00
H402   H     0.62359   0.11490   0.09580   0.00000  Uiso   1.00
H403   H     0.76081   0.10386   0.37218   0.00000  Uiso   1.00
H404   H     0.80734   0.42580   0.91850   0.00000  Uiso   1.00
H405   H     0.56037   0.00783   0.05399   0.00000  Uiso   1.00
O406   O     0.84230   0.00710   0.41028   0.00000  Uiso   1.00
O407   O     0.90334   0.42947   0.81508   0.00000  Uiso   1.00
O408   O     0.57933   0.88110   0.99283   0.00000  Uiso   1.00
N409   N     0.85817   0.99602   0.29061   0.00000  Uiso   1.00
N410   N     0.90168   0.29702   0.86646   0.00000  Uiso   1.00
N411   N     0.67079   0.90626   0.99310   0.00000  Uiso   1.00
N412   N     0.78771   0.07489   0.33597   0.00000  Uiso   1.00
N413   N     0.83122   0.37589   0.91182   0.00000  Uiso   1.00
N414   N     0.60032   0.98513   0.03847   0.00000  Uiso   1.00
C415   C     0.37421   0.47914   0.29494   0.00000  Uiso   1.00
C416   C     0.43178   0.48797   0.30715   0.00000  Uiso   1.00
C417   C     0.44394   0.47600   0.37302   0.00000  Uiso   1.00
C418   C     0.49920   0.48709   0.37288   0.00000  Uiso   1.00
C419   C     0.58226   0.49747   0.40155   0.00000  Uiso   1.00
C420   C     0.35886   0.55752   0.25282   0.00000  Uiso   1.00
C421   C     0.30970   0.60401   0.27300   0.00000  Uiso   1.00
C422   C     0.30358   0.67365   0.22711   0.00000  Uiso   1.00
C423   C     0.27341   0.79197   0.17139   0.00000  Uiso   1.00
C424   C     0.38442   0.42001   0.24441   0.00000  Uiso   1.00
C425   C     0.35675   0.35089   0.25751   0.00000  Uiso   1.00
C426   C     0.37213   0.30476   0.20454   0.00000  Uiso   1.00
C427   C     0.38166   0.20958   0.13576   0.00000  Uiso   1.00
C428   C     0.45073   0.52013   0.17756   0.00000  Uiso   1.00
C429   C     0.47334   0.51025   0.24339   0.00000  Uiso   1.00
C430   C     0.52860   0.52136   0.24315   0.00000  Uiso   1.00
C431   C     0.54084   0.50940   0.30901   0.00000  Uiso   1.00
C432   C     0.40042   0.57979   0.18906   0.00000  Uiso   1.00
C433   C     0.39436   0.64937   0.14313   0.00000  Uiso   1.00
C434   C     0.34521   0.69596   0.16324   0.00000  Uiso   1.00
C435   C     0.42598   0.44228   0.18065   0.00000  Uiso   1.00
C436   C     0.44141   0.39625   0.12764   0.00000  Uiso   1.00
C437   C     0.41377   0.32707   0.14066   0.00000  Uiso   1.00
H438   H     0.34185   0.46180   0.34458   0.00000  Uiso   1.00
H439   H     0.41176   0.45877   0.42236   0.00000  Uiso   1.00
H440   H     0.27754   0.58676   0.32234   0.00000  Uiso   1.00
H441   H     0.32459   0.33368   0.30686   0.00000  Uiso   1.00
H442   H     0.50759   0.46526   0.48047   0.00000  Uiso   1.00
H443   H     0.22459   0.73512   0.26958   0.00000  Uiso   1.00
H444   H     0.32378   0.20144   0.23692   0.00000  Uiso   1.00
H445   H     0.48309   0.53747   0.12791   0.00000  Uiso   1.00
H446   H     0.56075   0.53859   0.19380   0.00000  Uiso   1.00
H447   H     0.42653   0.66659   0.09379   0.00000  Uiso   1.00
H448   H     0.47358   0.41350   0.07831   0.00000  Uiso   1.00
H449   H     0.62852   0.53005   0.29497   0.00000  Uiso   1.00
H450   H     0.34551   0.79991   0.08407   0.00000  Uiso   1.00
H451   H     0.44471   0.26623   0.05142   0.00000  Uiso   1.00
O452   O     0.61659   0.49705   0.43497   0.00000  Uiso   1.00
O453   O     0.24529   0.85109   0.15828   0.00000  Uiso   1.00
O454   O     0.37544   0.15092   0.11545   0.00000  Uiso   1.00
N455   N     0.52540   0.48034   0.42777   0.00000  Uiso   1.00
N456   N     0.26081   0.73265   0.23060   0.00000  Uiso   1.00
N457   N     0.35353   0.23372   0.20006   0.00000  Uiso   1.00
N458   N     0.59047   0.51520   0.32795   0.00000  Uiso   1.00
N459   N     0.32588   0.76751   0.13078   0.00000  Uiso   1.00
N460   N     0.41860   0.26858   0.10025   0.00000  Uiso   1.00
C461   C     0.59718   0.15023   0.49700   0.00000  Uiso   1.00
C462   C     0.59187   0.16686   0.57157   0.00000  Uiso   1.00
C463   C     0.54149   0.18279   0.62100   0.00000  Uiso   1.00
C464   C     0.54563   0.19645   0.68626   0.00000  Uiso   1.00
C465   C     0.52938   0.22265   0.79972   0.00000  Uiso   1.00
C466   C     0.63671   0.21028   0.44534   0.00000  Uiso   1.00
C467   C     0.62403   0.26271   0.38862   0.00000  Uiso   1.00
C468   C     0.66592   0.31291   0.34761   0.00000  Uiso   1.00
C469   C     0.71930   0.40649   0.26505   0.00000  Uiso   1.00
C470   C     0.62939   0.07075   0.49329   0.00000  Uiso   1.00
C471   C     0.61057   0.00585   0.47688   0.00000  Uiso   1.00
C472   C     0.64630   0.93858   0.47622   0.00000  Uiso   1.00
C473   C     0.68831   0.81550   0.46812   0.00000  Uiso   1.00
C474   C     0.69412   0.14614   0.52501   0.00000  Uiso   1.00
C475   C     0.64452   0.16465   0.58678   0.00000  Uiso   1.00
C476   C     0.64874   0.17828   0.65199   0.00000  Uiso   1.00
C477   C     0.59838   0.19422   0.70150   0.00000  Uiso   1.00
C478   C     0.68936   0.20807   0.46054   0.00000  Uiso   1.00
C479   C     0.73128   0.25820   0.41960   0.00000  Uiso   1.00
C480   C     0.71867   0.31069   0.36285   0.00000  Uiso   1.00
C481   C     0.68204   0.06853   0.50850   0.00000  Uiso   1.00
C482   C     0.71781   0.00134   0.50787   0.00000  Uiso   1.00
C483   C     0.69905   0.93636   0.49146   0.00000  Uiso   1.00
H484   H     0.55619   0.15195   0.48516   0.00000  Uiso   1.00
H485   H     0.50076   0.18451   0.60921   0.00000  Uiso   1.00
H486   H     0.58329   0.26441   0.37686   0.00000  Uiso   1.00
H487   H     0.56982   0.00759   0.46511   0.00000  Uiso   1.00
H488   H     0.46252   0.21965   0.75344   0.00000  Uiso   1.00
H489   H     0.63654   0.38811   0.26350   0.00000  Uiso   1.00
H490   H     0.60815   0.84656   0.44959   0.00000  Uiso   1.00
H491   H     0.73511   0.14442   0.53685   0.00000  Uiso   1.00
H492   H     0.68949   0.17656   0.66374   0.00000  Uiso   1.00
H493   H     0.77202   0.25646   0.43139   0.00000  Uiso   1.00
H494   H     0.75855   0.99964   0.51964   0.00000  Uiso   1.00
H495   H     0.61570   0.21320   0.79770   0.00000  Uiso   1.00
H496   H     0.78972   0.38166   0.30776   0.00000  Uiso   1.00
H497   H     0.76133   0.84011   0.49385   0.00000  Uiso   1.00
O498   O     0.50587   0.23773   0.85810   0.00000  Uiso   1.00
O499   O     0.73419   0.45873   0.21531   0.00000  Uiso   1.00
O500   O     0.69694   0.74823   0.45946   0.00000  Uiso   1.00
N501   N     0.50483   0.21371   0.74644   0.00000  Uiso   1.00
N502   N     0.66753   0.37122   0.28839   0.00000  Uiso   1.00
N503   N     0.64099   0.86492   0.46235   0.00000  Uiso   1.00
N504   N     0.58725   0.21024   0.77026   0.00000  Uiso   1.00
N505   N     0.74995   0.36774   0.31221   0.00000  Uiso   1.00
N506   N     0.72342   0.86144   0.48617   0.00000  Uiso   1.00
C507   C     0.20785   0.44984   0.54833   0.00000  Uiso   1.00
C508   C     0.21358   0.53820   0.53618   0.00000  Uiso   1.00
C509   C     0.23575   0.58524   0.47094   0.00000  Uiso   1.00
C510   C     0.23732   0.66473   0.47102   0.00000  Uiso   1.00
C511   C     0.24927   0.79717   0.44257   0.00000  Uiso   1.00
C512   C     0.23964   0.41438   0.60424   0.00000  Uiso   1.00
C513   C     0.28371   0.35730   0.59622   0.00000  Uiso   1.00
C514   C     0.30722   0.33256   0.65361   0.00000  Uiso   1.00
C515   C     0.35960   0.27273   0.73083   0.00000  Uiso   1.00
C516   C     0.14525   0.43637   0.58418   0.00000  Uiso   1.00
C517   C     0.10996   0.39776   0.55932   0.00000  Uiso   1.00
C518   C     0.05399   0.39151   0.59983   0.00000  Uiso   1.00
C519   C     0.95981   0.36581   0.64592   0.00000  Uiso   1.00
C520   C     0.17122   0.50737   0.66450   0.00000  Uiso   1.00
C521   C     0.19368   0.56945   0.59928   0.00000  Uiso   1.00
C522   C     0.19522   0.64889   0.59947   0.00000  Uiso   1.00
C523   C     0.21739   0.69604   0.53424   0.00000  Uiso   1.00
C524   C     0.21975   0.44563   0.66734   0.00000  Uiso   1.00
C525   C     0.24319   0.42096   0.72475   0.00000  Uiso   1.00
C526   C     0.28729   0.36387   0.71682   0.00000  Uiso   1.00
C527   C     0.12535   0.46762   0.64728   0.00000  Uiso   1.00
C528   C     0.06943   0.46142   0.68785   0.00000  Uiso   1.00
C529   C     0.03406   0.42281   0.66305   0.00000  Uiso   1.00
H530   H     0.22334   0.42551   0.49920   0.00000  Uiso   1.00
H531   H     0.25114   0.56103   0.42211   0.00000  Uiso   1.00
H532   H     0.29910   0.33313   0.54738   0.00000  Uiso   1.00
H533   H     0.12537   0.37358   0.51048   0.00000  Uiso   1.00
H534   H     0.27321   0.72506   0.36448   0.00000  Uiso   1.00
H535   H     0.37431   0.24449   0.62863   0.00000  Uiso   1.00
H536   H     0.00797   0.32979   0.55081   0.00000  Uiso   1.00
H537   H     0.15574   0.53170   0.71363   0.00000  Uiso   1.00
H538   H     0.17983   0.67306   0.64831   0.00000  Uiso   1.00
H539   H     0.22778   0.44515   0.77358   0.00000  Uiso   1.00
H540   H     0.05405   0.48561   0.73668   0.00000  Uiso   1.00
H541   H     0.21533   0.81599   0.54807   0.00000  Uiso   1.00
H542   H     0.31643   0.33541   0.81221   0.00000  Uiso   1.00
H543   H     0.95009   0.42072   0.73440   0.00000  Uiso   1.00
O544   O     0.26136   0.86159   0.40944   0.00000  Uiso   1.00
O545   O     0.39399   0.23109   0.75599   0.00000  Uiso   1.00
O546   O     0.91335   0.34301   0.65390   0.00000  Uiso   1.00
N547   N     0.25627   0.72706   0.41665   0.00000  Uiso   1.00
N548   N     0.35080   0.27777   0.66361   0.00000  Uiso   1.00
N549   N     0.00830   0.35750   0.59087   0.00000  Uiso   1.00
N550   N     0.22513   0.77599   0.51544   0.00000  Uiso   1.00
N551   N     0.31966   0.32670   0.76239   0.00000  Uiso   1.00
N552   N     0.97716   0.40643   0.68966   0.00000  Uiso   1.00
