data_job_03205
_audit_creation_date              2018-12-19
_audit_creation_method            'Materials Studio'
_symmetry_space_group_name_H-M    'P1'
_symmetry_Int_Tables_number       1
_symmetry_cell_setting            triclinic
loop_
_symmetry_equiv_pos_as_xyz
  x,y,z
_cell_length_a                    17.3701
_cell_length_b                    16.2020
_cell_length_c                    17.5737
_cell_angle_alpha                 90.0000
_cell_angle_beta                  90.0000
_cell_angle_gamma                 90.0000
loop_
_atom_site_label
_atom_site_type_symbol
_atom_site_fract_x
_atom_site_fract_y
_atom_site_fract_z
_atom_site_U_iso_or_equiv
_atom_site_adp_type
_atom_site_occupancy
C1     C     0.94330   0.12143   0.26354   0.00000  Uiso   1.00
C2     C     0.00042   0.19017   0.28159   0.00000  Uiso   1.00
C3     C     0.07185   0.17991   0.31567   0.00000  Uiso   1.00
C4     C     0.11555   0.25053   0.32734   0.00000  Uiso   1.00
C5     C     0.20831   0.34540   0.35869   0.00000  Uiso   1.00
C6     C     0.86843   0.14507   0.30326   0.00000  Uiso   1.00
C7     C     0.82888   0.09689   0.35556   0.00000  Uiso   1.00
C8     C     0.76146   0.12956   0.38547   0.00000  Uiso   1.00
C9     C     0.64927   0.15439   0.45044   0.00000  Uiso   1.00
C10    C     0.92717   0.12751   0.17843   0.00000  Uiso   1.00
C11    C     0.93700   0.06456   0.12576   0.00000  Uiso   1.00
C12    C     0.91902   0.08243   0.05056   0.00000  Uiso   1.00
C13    C     0.89805   0.08000   0.92171   0.00000  Uiso   1.00
C14    C     0.89388   0.26511   0.22364   0.00000  Uiso   1.00
C15    C     0.97357   0.26821   0.25992   0.00000  Uiso   1.00
C16    C     0.01718   0.33887   0.27153   0.00000  Uiso   1.00
C17    C     0.08866   0.32872   0.30562   0.00000  Uiso   1.00
C18    C     0.84158   0.22311   0.28160   0.00000  Uiso   1.00
C19    C     0.77420   0.25586   0.31142   0.00000  Uiso   1.00
C20    C     0.73457   0.20774   0.36376   0.00000  Uiso   1.00
C21    C     0.90033   0.20555   0.15676   0.00000  Uiso   1.00
C22    C     0.88233   0.22353   0.08163   0.00000  Uiso   1.00
C23    C     0.89213   0.16062   0.02886   0.00000  Uiso   1.00
H24    H     0.96419   0.06067   0.28041   0.00000  Uiso   1.00
H25    H     0.09260   0.11950   0.33244   0.00000  Uiso   1.00
H26    H     0.84966   0.03649   0.37232   0.00000  Uiso   1.00
H27    H     0.95777   0.00417   0.14256   0.00000  Uiso   1.00
H28    H     0.22312   0.21914   0.38059   0.00000  Uiso   1.00
H29    H     0.71085   0.04411   0.46466   0.00000  Uiso   1.00
H30    H     0.93882   0.97595   0.98016   0.00000  Uiso   1.00
H31    H     0.87298   0.32587   0.20677   0.00000  Uiso   1.00
H32    H     0.99639   0.39926   0.25476   0.00000  Uiso   1.00
H33    H     0.75345   0.31625   0.29464   0.00000  Uiso   1.00
H34    H     0.86156   0.28393   0.06488   0.00000  Uiso   1.00
H35    H     0.14503   0.44621   0.31755   0.00000  Uiso   1.00
H36    H     0.63276   0.27117   0.40161   0.00000  Uiso   1.00
H37    H     0.86073   0.20301   0.91711   0.00000  Uiso   1.00
O38    O     0.26689   0.37617   0.38199   0.00000  Uiso   1.00
O39    O     0.59481   0.14652   0.49227   0.00000  Uiso   1.00
O40    O     0.89390   0.05710   0.85662   0.00000  Uiso   1.00
N41    N     0.18781   0.26251   0.35915   0.00000  Uiso   1.00
N42    N     0.70888   0.09887   0.43776   0.00000  Uiso   1.00
N43    N     0.92199   0.03514   0.98480   0.00000  Uiso   1.00
N44    N     0.14579   0.38469   0.32523   0.00000  Uiso   1.00
N45    N     0.66686   0.22105   0.40384   0.00000  Uiso   1.00
N46    N     0.87997   0.15732   0.95087   0.00000  Uiso   1.00
C47    C     0.55670   0.87857   0.76354   0.00000  Uiso   1.00
C48    C     0.49958   0.80983   0.78159   0.00000  Uiso   1.00
C49    C     0.42815   0.82009   0.81567   0.00000  Uiso   1.00
C50    C     0.38445   0.74947   0.82734   0.00000  Uiso   1.00
C51    C     0.29169   0.65460   0.85869   0.00000  Uiso   1.00
C52    C     0.63157   0.85493   0.80326   0.00000  Uiso   1.00
C53    C     0.67112   0.90311   0.85556   0.00000  Uiso   1.00
C54    C     0.73854   0.87044   0.88547   0.00000  Uiso   1.00
C55    C     0.85073   0.84561   0.95044   0.00000  Uiso   1.00
C56    C     0.57283   0.87249   0.67843   0.00000  Uiso   1.00
C57    C     0.56300   0.93544   0.62576   0.00000  Uiso   1.00
C58    C     0.58098   0.91757   0.55056   0.00000  Uiso   1.00
C59    C     0.60195   0.92000   0.42171   0.00000  Uiso   1.00
C60    C     0.60612   0.73489   0.72364   0.00000  Uiso   1.00
C61    C     0.52643   0.73179   0.75992   0.00000  Uiso   1.00
C62    C     0.48282   0.66113   0.77153   0.00000  Uiso   1.00
C63    C     0.41134   0.67128   0.80562   0.00000  Uiso   1.00
C64    C     0.65842   0.77689   0.78160   0.00000  Uiso   1.00
C65    C     0.72580   0.74414   0.81142   0.00000  Uiso   1.00
C66    C     0.76543   0.79226   0.86376   0.00000  Uiso   1.00
C67    C     0.59967   0.79445   0.65676   0.00000  Uiso   1.00
C68    C     0.61767   0.77647   0.58163   0.00000  Uiso   1.00
C69    C     0.60787   0.83938   0.52886   0.00000  Uiso   1.00
H70    H     0.53581   0.93933   0.78041   0.00000  Uiso   1.00
H71    H     0.40740   0.88050   0.83244   0.00000  Uiso   1.00
H72    H     0.65034   0.96351   0.87232   0.00000  Uiso   1.00
H73    H     0.54223   0.99583   0.64256   0.00000  Uiso   1.00
H74    H     0.27688   0.78086   0.88059   0.00000  Uiso   1.00
H75    H     0.78915   0.95589   0.96466   0.00000  Uiso   1.00
H76    H     0.56118   0.02405   0.48016   0.00000  Uiso   1.00
H77    H     0.62702   0.67413   0.70677   0.00000  Uiso   1.00
H78    H     0.50361   0.60074   0.75476   0.00000  Uiso   1.00
H79    H     0.74655   0.68375   0.79464   0.00000  Uiso   1.00
H80    H     0.63844   0.71607   0.56488   0.00000  Uiso   1.00
H81    H     0.35497   0.55379   0.81755   0.00000  Uiso   1.00
H82    H     0.86724   0.72883   0.90161   0.00000  Uiso   1.00
H83    H     0.63927   0.79699   0.41711   0.00000  Uiso   1.00
O84    O     0.23311   0.62383   0.88199   0.00000  Uiso   1.00
O85    O     0.90519   0.85348   0.99227   0.00000  Uiso   1.00
O86    O     0.60610   0.94290   0.35662   0.00000  Uiso   1.00
N87    N     0.31219   0.73749   0.85915   0.00000  Uiso   1.00
N88    N     0.79112   0.90113   0.93776   0.00000  Uiso   1.00
N89    N     0.57801   0.96486   0.48480   0.00000  Uiso   1.00
N90    N     0.35421   0.61531   0.82523   0.00000  Uiso   1.00
N91    N     0.83314   0.77895   0.90384   0.00000  Uiso   1.00
N92    N     0.62003   0.84268   0.45087   0.00000  Uiso   1.00
C93    C     0.05670   0.62143   0.23646   0.00000  Uiso   1.00
C94    C     0.99958   0.69017   0.21841   0.00000  Uiso   1.00
C95    C     0.92815   0.67991   0.18433   0.00000  Uiso   1.00
C96    C     0.88445   0.75053   0.17266   0.00000  Uiso   1.00
C97    C     0.79169   0.84540   0.14131   0.00000  Uiso   1.00
C98    C     0.13157   0.64507   0.19674   0.00000  Uiso   1.00
C99    C     0.17112   0.59689   0.14444   0.00000  Uiso   1.00
C100   C     0.23854   0.62956   0.11453   0.00000  Uiso   1.00
C101   C     0.35073   0.65439   0.04956   0.00000  Uiso   1.00
C102   C     0.07283   0.62751   0.32157   0.00000  Uiso   1.00
C103   C     0.06300   0.56456   0.37424   0.00000  Uiso   1.00
C104   C     0.08098   0.58243   0.44944   0.00000  Uiso   1.00
C105   C     0.10195   0.58000   0.57829   0.00000  Uiso   1.00
C106   C     0.10612   0.76511   0.27636   0.00000  Uiso   1.00
C107   C     0.02643   0.76821   0.24008   0.00000  Uiso   1.00
C108   C     0.98282   0.83887   0.22847   0.00000  Uiso   1.00
C109   C     0.91134   0.82872   0.19438   0.00000  Uiso   1.00
C110   C     0.15842   0.72311   0.21840   0.00000  Uiso   1.00
C111   C     0.22580   0.75586   0.18858   0.00000  Uiso   1.00
C112   C     0.26543   0.70774   0.13624   0.00000  Uiso   1.00
C113   C     0.09967   0.70555   0.34324   0.00000  Uiso   1.00
C114   C     0.11767   0.72353   0.41837   0.00000  Uiso   1.00
C115   C     0.10787   0.66062   0.47114   0.00000  Uiso   1.00
H116   H     0.03581   0.56067   0.21959   0.00000  Uiso   1.00
H117   H     0.90740   0.61950   0.16756   0.00000  Uiso   1.00
H118   H     0.15034   0.53649   0.12768   0.00000  Uiso   1.00
H119   H     0.04223   0.50417   0.35744   0.00000  Uiso   1.00
H120   H     0.77688   0.71914   0.11941   0.00000  Uiso   1.00
H121   H     0.28915   0.54411   0.03534   0.00000  Uiso   1.00
H122   H     0.06118   0.47595   0.51984   0.00000  Uiso   1.00
H123   H     0.12702   0.82587   0.29323   0.00000  Uiso   1.00
H124   H     0.00361   0.89926   0.24524   0.00000  Uiso   1.00
H125   H     0.24655   0.81625   0.20536   0.00000  Uiso   1.00
H126   H     0.13844   0.78393   0.43512   0.00000  Uiso   1.00
H127   H     0.85497   0.94621   0.18245   0.00000  Uiso   1.00
H128   H     0.36724   0.77117   0.09839   0.00000  Uiso   1.00
H129   H     0.13927   0.70301   0.58289   0.00000  Uiso   1.00
O130   O     0.73311   0.87617   0.11801   0.00000  Uiso   1.00
O131   O     0.40519   0.64652   0.00773   0.00000  Uiso   1.00
O132   O     0.10610   0.55710   0.64338   0.00000  Uiso   1.00
N133   N     0.81219   0.76251   0.14085   0.00000  Uiso   1.00
N134   N     0.29112   0.59887   0.06224   0.00000  Uiso   1.00
N135   N     0.07801   0.53514   0.51520   0.00000  Uiso   1.00
N136   N     0.85421   0.88469   0.17477   0.00000  Uiso   1.00
N137   N     0.33314   0.72105   0.09616   0.00000  Uiso   1.00
N138   N     0.12003   0.65732   0.54913   0.00000  Uiso   1.00
C139   C     0.44330   0.37857   0.73646   0.00000  Uiso   1.00
C140   C     0.50042   0.30983   0.71841   0.00000  Uiso   1.00
C141   C     0.57185   0.32009   0.68433   0.00000  Uiso   1.00
C142   C     0.61555   0.24947   0.67266   0.00000  Uiso   1.00
C143   C     0.70831   0.15460   0.64131   0.00000  Uiso   1.00
C144   C     0.36843   0.35493   0.69674   0.00000  Uiso   1.00
C145   C     0.32888   0.40311   0.64444   0.00000  Uiso   1.00
C146   C     0.26146   0.37044   0.61453   0.00000  Uiso   1.00
C147   C     0.14927   0.34561   0.54956   0.00000  Uiso   1.00
C148   C     0.42717   0.37249   0.82157   0.00000  Uiso   1.00
C149   C     0.43700   0.43544   0.87424   0.00000  Uiso   1.00
C150   C     0.41902   0.41757   0.94944   0.00000  Uiso   1.00
C151   C     0.39805   0.42000   0.07829   0.00000  Uiso   1.00
C152   C     0.39388   0.23489   0.77636   0.00000  Uiso   1.00
C153   C     0.47357   0.23179   0.74008   0.00000  Uiso   1.00
C154   C     0.51718   0.16113   0.72847   0.00000  Uiso   1.00
C155   C     0.58866   0.17128   0.69438   0.00000  Uiso   1.00
C156   C     0.34158   0.27689   0.71840   0.00000  Uiso   1.00
C157   C     0.27420   0.24414   0.68858   0.00000  Uiso   1.00
C158   C     0.23457   0.29226   0.63624   0.00000  Uiso   1.00
C159   C     0.40033   0.29445   0.84324   0.00000  Uiso   1.00
C160   C     0.38233   0.27647   0.91837   0.00000  Uiso   1.00
C161   C     0.39213   0.33938   0.97114   0.00000  Uiso   1.00
H162   H     0.46419   0.43933   0.71959   0.00000  Uiso   1.00
H163   H     0.59260   0.38050   0.66756   0.00000  Uiso   1.00
H164   H     0.34966   0.46351   0.62768   0.00000  Uiso   1.00
H165   H     0.45777   0.49583   0.85744   0.00000  Uiso   1.00
H166   H     0.72312   0.28086   0.61941   0.00000  Uiso   1.00
H167   H     0.21085   0.45589   0.53534   0.00000  Uiso   1.00
H168   H     0.43882   0.52405   0.01984   0.00000  Uiso   1.00
H169   H     0.37298   0.17413   0.79323   0.00000  Uiso   1.00
H170   H     0.49639   0.10074   0.74524   0.00000  Uiso   1.00
H171   H     0.25345   0.18375   0.70536   0.00000  Uiso   1.00
H172   H     0.36156   0.21607   0.93512   0.00000  Uiso   1.00
H173   H     0.64503   0.05379   0.68245   0.00000  Uiso   1.00
H174   H     0.13276   0.22883   0.59839   0.00000  Uiso   1.00
H175   H     0.36073   0.29699   0.08289   0.00000  Uiso   1.00
O176   O     0.76689   0.12383   0.61801   0.00000  Uiso   1.00
O177   O     0.09481   0.35348   0.50773   0.00000  Uiso   1.00
O178   O     0.39390   0.44290   0.14338   0.00000  Uiso   1.00
N179   N     0.68781   0.23749   0.64085   0.00000  Uiso   1.00
N180   N     0.20888   0.40113   0.56224   0.00000  Uiso   1.00
N181   N     0.42199   0.46486   0.01520   0.00000  Uiso   1.00
N182   N     0.64579   0.11531   0.67477   0.00000  Uiso   1.00
N183   N     0.16686   0.27895   0.59616   0.00000  Uiso   1.00
N184   N     0.37997   0.34268   0.04913   0.00000  Uiso   1.00
C185   C     0.05670   0.87857   0.73646   0.00000  Uiso   1.00
C186   C     0.99958   0.80983   0.71841   0.00000  Uiso   1.00
C187   C     0.92815   0.82009   0.68433   0.00000  Uiso   1.00
C188   C     0.88445   0.74947   0.67266   0.00000  Uiso   1.00
C189   C     0.79169   0.65460   0.64131   0.00000  Uiso   1.00
C190   C     0.13157   0.85493   0.69674   0.00000  Uiso   1.00
C191   C     0.17112   0.90311   0.64444   0.00000  Uiso   1.00
C192   C     0.23854   0.87044   0.61453   0.00000  Uiso   1.00
C193   C     0.35073   0.84561   0.54956   0.00000  Uiso   1.00
C194   C     0.07283   0.87249   0.82157   0.00000  Uiso   1.00
C195   C     0.06300   0.93544   0.87424   0.00000  Uiso   1.00
C196   C     0.08098   0.91757   0.94944   0.00000  Uiso   1.00
C197   C     0.10195   0.92000   0.07829   0.00000  Uiso   1.00
C198   C     0.10612   0.73489   0.77636   0.00000  Uiso   1.00
C199   C     0.02643   0.73179   0.74008   0.00000  Uiso   1.00
C200   C     0.98282   0.66113   0.72847   0.00000  Uiso   1.00
C201   C     0.91134   0.67128   0.69438   0.00000  Uiso   1.00
C202   C     0.15842   0.77689   0.71840   0.00000  Uiso   1.00
C203   C     0.22580   0.74414   0.68858   0.00000  Uiso   1.00
C204   C     0.26543   0.79226   0.63624   0.00000  Uiso   1.00
C205   C     0.09967   0.79445   0.84324   0.00000  Uiso   1.00
C206   C     0.11767   0.77647   0.91837   0.00000  Uiso   1.00
C207   C     0.10787   0.83938   0.97114   0.00000  Uiso   1.00
H208   H     0.03581   0.93933   0.71959   0.00000  Uiso   1.00
H209   H     0.90740   0.88050   0.66756   0.00000  Uiso   1.00
H210   H     0.15034   0.96351   0.62768   0.00000  Uiso   1.00
H211   H     0.04223   0.99583   0.85744   0.00000  Uiso   1.00
H212   H     0.77688   0.78086   0.61941   0.00000  Uiso   1.00
H213   H     0.28915   0.95589   0.53534   0.00000  Uiso   1.00
H214   H     0.06118   0.02405   0.01984   0.00000  Uiso   1.00
H215   H     0.12702   0.67413   0.79323   0.00000  Uiso   1.00
H216   H     0.00361   0.60074   0.74524   0.00000  Uiso   1.00
H217   H     0.24655   0.68375   0.70536   0.00000  Uiso   1.00
H218   H     0.13844   0.71607   0.93512   0.00000  Uiso   1.00
H219   H     0.85497   0.55379   0.68245   0.00000  Uiso   1.00
H220   H     0.36724   0.72883   0.59839   0.00000  Uiso   1.00
H221   H     0.13927   0.79699   0.08289   0.00000  Uiso   1.00
O222   O     0.73311   0.62383   0.61801   0.00000  Uiso   1.00
O223   O     0.40519   0.85348   0.50773   0.00000  Uiso   1.00
O224   O     0.10610   0.94290   0.14338   0.00000  Uiso   1.00
N225   N     0.81219   0.73749   0.64085   0.00000  Uiso   1.00
N226   N     0.29112   0.90113   0.56224   0.00000  Uiso   1.00
N227   N     0.07801   0.96486   0.01520   0.00000  Uiso   1.00
N228   N     0.85421   0.61531   0.67477   0.00000  Uiso   1.00
N229   N     0.33314   0.77895   0.59616   0.00000  Uiso   1.00
N230   N     0.12003   0.84268   0.04913   0.00000  Uiso   1.00
C231   C     0.44330   0.12143   0.23646   0.00000  Uiso   1.00
C232   C     0.50042   0.19017   0.21841   0.00000  Uiso   1.00
C233   C     0.57185   0.17991   0.18433   0.00000  Uiso   1.00
C234   C     0.61555   0.25053   0.17266   0.00000  Uiso   1.00
C235   C     0.70831   0.34540   0.14131   0.00000  Uiso   1.00
C236   C     0.36843   0.14507   0.19674   0.00000  Uiso   1.00
C237   C     0.32888   0.09689   0.14444   0.00000  Uiso   1.00
C238   C     0.26146   0.12956   0.11453   0.00000  Uiso   1.00
C239   C     0.14927   0.15439   0.04956   0.00000  Uiso   1.00
C240   C     0.42717   0.12751   0.32157   0.00000  Uiso   1.00
C241   C     0.43700   0.06456   0.37424   0.00000  Uiso   1.00
C242   C     0.41902   0.08243   0.44944   0.00000  Uiso   1.00
C243   C     0.39805   0.08000   0.57829   0.00000  Uiso   1.00
C244   C     0.39388   0.26511   0.27636   0.00000  Uiso   1.00
C245   C     0.47357   0.26821   0.24008   0.00000  Uiso   1.00
C246   C     0.51718   0.33887   0.22847   0.00000  Uiso   1.00
C247   C     0.58866   0.32872   0.19438   0.00000  Uiso   1.00
C248   C     0.34158   0.22311   0.21840   0.00000  Uiso   1.00
C249   C     0.27420   0.25586   0.18858   0.00000  Uiso   1.00
C250   C     0.23457   0.20774   0.13624   0.00000  Uiso   1.00
C251   C     0.40033   0.20555   0.34324   0.00000  Uiso   1.00
C252   C     0.38233   0.22353   0.41837   0.00000  Uiso   1.00
C253   C     0.39213   0.16062   0.47114   0.00000  Uiso   1.00
H254   H     0.46419   0.06067   0.21959   0.00000  Uiso   1.00
H255   H     0.59260   0.11950   0.16756   0.00000  Uiso   1.00
H256   H     0.34966   0.03649   0.12768   0.00000  Uiso   1.00
H257   H     0.45777   0.00417   0.35744   0.00000  Uiso   1.00
H258   H     0.72312   0.21914   0.11941   0.00000  Uiso   1.00
H259   H     0.21085   0.04411   0.03534   0.00000  Uiso   1.00
H260   H     0.43882   0.97595   0.51984   0.00000  Uiso   1.00
H261   H     0.37298   0.32587   0.29323   0.00000  Uiso   1.00
H262   H     0.49639   0.39926   0.24524   0.00000  Uiso   1.00
H263   H     0.25345   0.31625   0.20536   0.00000  Uiso   1.00
H264   H     0.36156   0.28393   0.43512   0.00000  Uiso   1.00
H265   H     0.64503   0.44621   0.18245   0.00000  Uiso   1.00
H266   H     0.13276   0.27117   0.09839   0.00000  Uiso   1.00
H267   H     0.36073   0.20301   0.58289   0.00000  Uiso   1.00
O268   O     0.76689   0.37617   0.11801   0.00000  Uiso   1.00
O269   O     0.09481   0.14652   0.00773   0.00000  Uiso   1.00
O270   O     0.39390   0.05710   0.64338   0.00000  Uiso   1.00
N271   N     0.68781   0.26251   0.14085   0.00000  Uiso   1.00
N272   N     0.20888   0.09887   0.06224   0.00000  Uiso   1.00
N273   N     0.42199   0.03514   0.51520   0.00000  Uiso   1.00
N274   N     0.64579   0.38469   0.17477   0.00000  Uiso   1.00
N275   N     0.16686   0.22105   0.09616   0.00000  Uiso   1.00
N276   N     0.37997   0.15732   0.54913   0.00000  Uiso   1.00
C277   C     0.94330   0.37857   0.76354   0.00000  Uiso   1.00
C278   C     0.00042   0.30983   0.78159   0.00000  Uiso   1.00
C279   C     0.07185   0.32009   0.81567   0.00000  Uiso   1.00
C280   C     0.11555   0.24947   0.82734   0.00000  Uiso   1.00
C281   C     0.20831   0.15460   0.85869   0.00000  Uiso   1.00
C282   C     0.86843   0.35493   0.80326   0.00000  Uiso   1.00
C283   C     0.82888   0.40311   0.85556   0.00000  Uiso   1.00
C284   C     0.76146   0.37044   0.88547   0.00000  Uiso   1.00
C285   C     0.64927   0.34561   0.95044   0.00000  Uiso   1.00
C286   C     0.92717   0.37249   0.67843   0.00000  Uiso   1.00
C287   C     0.93700   0.43544   0.62576   0.00000  Uiso   1.00
C288   C     0.91902   0.41757   0.55056   0.00000  Uiso   1.00
C289   C     0.89805   0.42000   0.42171   0.00000  Uiso   1.00
C290   C     0.89388   0.23489   0.72364   0.00000  Uiso   1.00
C291   C     0.97357   0.23179   0.75992   0.00000  Uiso   1.00
C292   C     0.01718   0.16113   0.77153   0.00000  Uiso   1.00
C293   C     0.08866   0.17128   0.80562   0.00000  Uiso   1.00
C294   C     0.84158   0.27689   0.78160   0.00000  Uiso   1.00
C295   C     0.77420   0.24414   0.81142   0.00000  Uiso   1.00
C296   C     0.73457   0.29226   0.86376   0.00000  Uiso   1.00
C297   C     0.90033   0.29445   0.65676   0.00000  Uiso   1.00
C298   C     0.88233   0.27647   0.58163   0.00000  Uiso   1.00
C299   C     0.89213   0.33938   0.52886   0.00000  Uiso   1.00
H300   H     0.96419   0.43933   0.78041   0.00000  Uiso   1.00
H301   H     0.09260   0.38050   0.83244   0.00000  Uiso   1.00
H302   H     0.84966   0.46351   0.87232   0.00000  Uiso   1.00
H303   H     0.95777   0.49583   0.64256   0.00000  Uiso   1.00
H304   H     0.22312   0.28086   0.88059   0.00000  Uiso   1.00
H305   H     0.71085   0.45589   0.96466   0.00000  Uiso   1.00
H306   H     0.93882   0.52405   0.48016   0.00000  Uiso   1.00
H307   H     0.87298   0.17413   0.70677   0.00000  Uiso   1.00
H308   H     0.99639   0.10074   0.75476   0.00000  Uiso   1.00
H309   H     0.75345   0.18375   0.79464   0.00000  Uiso   1.00
H310   H     0.86156   0.21607   0.56488   0.00000  Uiso   1.00
H311   H     0.14503   0.05379   0.81755   0.00000  Uiso   1.00
H312   H     0.63276   0.22883   0.90161   0.00000  Uiso   1.00
H313   H     0.86073   0.29699   0.41711   0.00000  Uiso   1.00
O314   O     0.26689   0.12383   0.88199   0.00000  Uiso   1.00
O315   O     0.59481   0.35348   0.99227   0.00000  Uiso   1.00
O316   O     0.89390   0.44290   0.35662   0.00000  Uiso   1.00
N317   N     0.18781   0.23749   0.85915   0.00000  Uiso   1.00
N318   N     0.70888   0.40113   0.93776   0.00000  Uiso   1.00
N319   N     0.92199   0.46486   0.48480   0.00000  Uiso   1.00
N320   N     0.14579   0.11531   0.82523   0.00000  Uiso   1.00
N321   N     0.66686   0.27895   0.90384   0.00000  Uiso   1.00
N322   N     0.87997   0.34268   0.45087   0.00000  Uiso   1.00
C323   C     0.55670   0.62143   0.26354   0.00000  Uiso   1.00
C324   C     0.49958   0.69017   0.28159   0.00000  Uiso   1.00
C325   C     0.42815   0.67991   0.31567   0.00000  Uiso   1.00
C326   C     0.38445   0.75053   0.32734   0.00000  Uiso   1.00
C327   C     0.29169   0.84540   0.35869   0.00000  Uiso   1.00
C328   C     0.63157   0.64507   0.30326   0.00000  Uiso   1.00
C329   C     0.67112   0.59689   0.35556   0.00000  Uiso   1.00
C330   C     0.73854   0.62956   0.38547   0.00000  Uiso   1.00
C331   C     0.85073   0.65439   0.45044   0.00000  Uiso   1.00
C332   C     0.57283   0.62751   0.17843   0.00000  Uiso   1.00
C333   C     0.56300   0.56456   0.12576   0.00000  Uiso   1.00
C334   C     0.58098   0.58243   0.05056   0.00000  Uiso   1.00
C335   C     0.60195   0.58000   0.92171   0.00000  Uiso   1.00
C336   C     0.60612   0.76511   0.22364   0.00000  Uiso   1.00
C337   C     0.52643   0.76821   0.25992   0.00000  Uiso   1.00
C338   C     0.48282   0.83887   0.27153   0.00000  Uiso   1.00
C339   C     0.41134   0.82872   0.30562   0.00000  Uiso   1.00
C340   C     0.65842   0.72311   0.28160   0.00000  Uiso   1.00
C341   C     0.72580   0.75586   0.31142   0.00000  Uiso   1.00
C342   C     0.76543   0.70774   0.36376   0.00000  Uiso   1.00
C343   C     0.59967   0.70555   0.15676   0.00000  Uiso   1.00
C344   C     0.61767   0.72353   0.08163   0.00000  Uiso   1.00
C345   C     0.60787   0.66062   0.02886   0.00000  Uiso   1.00
H346   H     0.53581   0.56067   0.28041   0.00000  Uiso   1.00
H347   H     0.40740   0.61950   0.33244   0.00000  Uiso   1.00
H348   H     0.65034   0.53649   0.37232   0.00000  Uiso   1.00
H349   H     0.54223   0.50417   0.14256   0.00000  Uiso   1.00
H350   H     0.27688   0.71914   0.38059   0.00000  Uiso   1.00
H351   H     0.78915   0.54411   0.46466   0.00000  Uiso   1.00
H352   H     0.56118   0.47595   0.98016   0.00000  Uiso   1.00
H353   H     0.62702   0.82587   0.20677   0.00000  Uiso   1.00
H354   H     0.50361   0.89926   0.25476   0.00000  Uiso   1.00
H355   H     0.74655   0.81625   0.29464   0.00000  Uiso   1.00
H356   H     0.63844   0.78393   0.06488   0.00000  Uiso   1.00
H357   H     0.35497   0.94621   0.31755   0.00000  Uiso   1.00
H358   H     0.86724   0.77117   0.40161   0.00000  Uiso   1.00
H359   H     0.63927   0.70301   0.91711   0.00000  Uiso   1.00
O360   O     0.23311   0.87617   0.38199   0.00000  Uiso   1.00
O361   O     0.90519   0.64652   0.49227   0.00000  Uiso   1.00
O362   O     0.60610   0.55710   0.85662   0.00000  Uiso   1.00
N363   N     0.31219   0.76251   0.35915   0.00000  Uiso   1.00
N364   N     0.79112   0.59887   0.43776   0.00000  Uiso   1.00
N365   N     0.57801   0.53514   0.98480   0.00000  Uiso   1.00
N366   N     0.35421   0.88469   0.32523   0.00000  Uiso   1.00
N367   N     0.83314   0.72105   0.40384   0.00000  Uiso   1.00
N368   N     0.62003   0.65732   0.95087   0.00000  Uiso   1.00
