data_job_03443
_audit_creation_date              2018-12-19
_audit_creation_method            'Materials Studio'
_symmetry_space_group_name_H-M    'P1'
_symmetry_Int_Tables_number       1
_symmetry_cell_setting            triclinic
loop_
_symmetry_equiv_pos_as_xyz
  x,y,z
_cell_length_a                    19.1538
_cell_length_b                    47.7274
_cell_length_c                    7.2698
_cell_angle_alpha                 90.0000
_cell_angle_beta                  90.0000
_cell_angle_gamma                 90.0000
loop_
_atom_site_label
_atom_site_type_symbol
_atom_site_fract_x
_atom_site_fract_y
_atom_site_fract_z
_atom_site_U_iso_or_equiv
_atom_site_adp_type
_atom_site_occupancy
C1     C     0.32160   0.62438   0.35397   0.00000  Uiso   1.00
C2     C     0.35740   0.59764   0.28854   0.00000  Uiso   1.00
C3     C     0.39371   0.57892   0.39888   0.00000  Uiso   1.00
C4     C     0.42270   0.55570   0.31280   0.00000  Uiso   1.00
C5     C     0.47940   0.51484   0.24004   0.00000  Uiso   1.00
C6     C     0.35286   0.64812   0.24027   0.00000  Uiso   1.00
C7     C     0.38535   0.67184   0.31004   0.00000  Uiso   1.00
C8     C     0.41050   0.69112   0.18331   0.00000  Uiso   1.00
C9     C     0.46011   0.72865   0.03561   0.00000  Uiso   1.00
C10    C     0.24557   0.62195   0.29384   0.00000  Uiso   1.00
C11    C     0.18784   0.62368   0.40865   0.00000  Uiso   1.00
C12    C     0.12266   0.62093   0.32702   0.00000  Uiso   1.00
C13    C     0.00568   0.61782   0.26251   0.00000  Uiso   1.00
C14    C     0.30850   0.61645   0.00485   0.00000  Uiso   1.00
C15    C     0.35029   0.59333   0.09891   0.00000  Uiso   1.00
C16    C     0.37923   0.57014   0.01263   0.00000  Uiso   1.00
C17    C     0.41557   0.55139   0.12283   0.00000  Uiso   1.00
C18    C     0.34575   0.64381   0.05065   0.00000  Uiso   1.00
C19    C     0.37086   0.66307   0.92378   0.00000  Uiso   1.00
C20    C     0.40338   0.68681   0.99334   0.00000  Uiso   1.00
C21    C     0.23845   0.61764   0.10422   0.00000  Uiso   1.00
C22    C     0.17335   0.61490   0.02239   0.00000  Uiso   1.00
C23    C     0.11554   0.61661   0.13705   0.00000  Uiso   1.00
H24    H     0.32714   0.62774   0.50159   0.00000  Uiso   1.00
H25    H     0.39921   0.58226   0.54563   0.00000  Uiso   1.00
H26    H     0.39084   0.67517   0.45679   0.00000  Uiso   1.00
H27    H     0.19336   0.62701   0.55538   0.00000  Uiso   1.00
H28    H     0.47600   0.52995   0.51081   0.00000  Uiso   1.00
H29    H     0.45833   0.72586   0.32349   0.00000  Uiso   1.00
H30    H     0.04191   0.62430   0.53141   0.00000  Uiso   1.00
H31    H     0.30297   0.61310   0.85721   0.00000  Uiso   1.00
H32    H     0.37371   0.56681   0.86588   0.00000  Uiso   1.00
H33    H     0.36534   0.65972   0.77705   0.00000  Uiso   1.00
H34    H     0.16787   0.61156   0.87565   0.00000  Uiso   1.00
H35    H     0.45531   0.51741   0.95911   0.00000  Uiso   1.00
H36    H     0.43763   0.71332   0.77179   0.00000  Uiso   1.00
H37    H     0.02122   0.61176   0.97970   0.00000  Uiso   1.00
O38    O     0.51265   0.49350   0.25228   0.00000  Uiso   1.00
O39    O     0.48945   0.75053   0.00653   0.00000  Uiso   1.00
O40    O     0.94312   0.61729   0.27931   0.00000  Uiso   1.00
N41    N     0.46141   0.53334   0.37978   0.00000  Uiso   1.00
N42    N     0.44490   0.71651   0.20465   0.00000  Uiso   1.00
N43    N     0.05558   0.62157   0.39903   0.00000  Uiso   1.00
N44    N     0.45028   0.52660   0.08292   0.00000  Uiso   1.00
N45    N     0.43376   0.70976   0.90778   0.00000  Uiso   1.00
N46    N     0.04445   0.61482   0.10216   0.00000  Uiso   1.00
C47    C     0.17840   0.37562   0.35397   0.00000  Uiso   1.00
C48    C     0.14260   0.40236   0.28854   0.00000  Uiso   1.00
C49    C     0.10629   0.42108   0.39888   0.00000  Uiso   1.00
C50    C     0.07730   0.44430   0.31280   0.00000  Uiso   1.00
C51    C     0.02060   0.48516   0.24004   0.00000  Uiso   1.00
C52    C     0.14714   0.35188   0.24027   0.00000  Uiso   1.00
C53    C     0.11465   0.32816   0.31004   0.00000  Uiso   1.00
C54    C     0.08950   0.30888   0.18331   0.00000  Uiso   1.00
C55    C     0.03989   0.27135   0.03561   0.00000  Uiso   1.00
C56    C     0.25443   0.37805   0.29384   0.00000  Uiso   1.00
C57    C     0.31216   0.37632   0.40865   0.00000  Uiso   1.00
C58    C     0.37734   0.37907   0.32702   0.00000  Uiso   1.00
C59    C     0.49432   0.38218   0.26251   0.00000  Uiso   1.00
C60    C     0.19150   0.38355   0.00485   0.00000  Uiso   1.00
C61    C     0.14971   0.40667   0.09891   0.00000  Uiso   1.00
C62    C     0.12077   0.42986   0.01263   0.00000  Uiso   1.00
C63    C     0.08443   0.44861   0.12283   0.00000  Uiso   1.00
C64    C     0.15425   0.35619   0.05065   0.00000  Uiso   1.00
C65    C     0.12914   0.33693   0.92378   0.00000  Uiso   1.00
C66    C     0.09662   0.31319   0.99334   0.00000  Uiso   1.00
C67    C     0.26155   0.38236   0.10422   0.00000  Uiso   1.00
C68    C     0.32665   0.38510   0.02239   0.00000  Uiso   1.00
C69    C     0.38446   0.38339   0.13705   0.00000  Uiso   1.00
H70    H     0.17286   0.37226   0.50159   0.00000  Uiso   1.00
H71    H     0.10079   0.41774   0.54563   0.00000  Uiso   1.00
H72    H     0.10916   0.32483   0.45679   0.00000  Uiso   1.00
H73    H     0.30664   0.37299   0.55538   0.00000  Uiso   1.00
H74    H     0.02400   0.47005   0.51081   0.00000  Uiso   1.00
H75    H     0.04167   0.27414   0.32349   0.00000  Uiso   1.00
H76    H     0.45809   0.37570   0.53141   0.00000  Uiso   1.00
H77    H     0.19703   0.38690   0.85721   0.00000  Uiso   1.00
H78    H     0.12629   0.43319   0.86588   0.00000  Uiso   1.00
H79    H     0.13466   0.34028   0.77705   0.00000  Uiso   1.00
H80    H     0.33213   0.38844   0.87565   0.00000  Uiso   1.00
H81    H     0.04469   0.48259   0.95911   0.00000  Uiso   1.00
H82    H     0.06237   0.28668   0.77179   0.00000  Uiso   1.00
H83    H     0.47878   0.38824   0.97970   0.00000  Uiso   1.00
O84    O     0.98735   0.50650   0.25228   0.00000  Uiso   1.00
O85    O     0.01055   0.24947   0.00653   0.00000  Uiso   1.00
O86    O     0.55688   0.38271   0.27931   0.00000  Uiso   1.00
N87    N     0.03859   0.46666   0.37978   0.00000  Uiso   1.00
N88    N     0.05510   0.28349   0.20465   0.00000  Uiso   1.00
N89    N     0.44442   0.37843   0.39903   0.00000  Uiso   1.00
N90    N     0.04972   0.47340   0.08292   0.00000  Uiso   1.00
N91    N     0.06624   0.29024   0.90778   0.00000  Uiso   1.00
N92    N     0.45555   0.38518   0.10216   0.00000  Uiso   1.00
C93    C     0.17840   0.12438   0.14603   0.00000  Uiso   1.00
C94    C     0.14260   0.09764   0.21146   0.00000  Uiso   1.00
C95    C     0.10629   0.07892   0.10112   0.00000  Uiso   1.00
C96    C     0.07730   0.05570   0.18720   0.00000  Uiso   1.00
C97    C     0.02060   0.01484   0.25996   0.00000  Uiso   1.00
C98    C     0.14714   0.14812   0.25973   0.00000  Uiso   1.00
C99    C     0.11465   0.17184   0.18996   0.00000  Uiso   1.00
C100   C     0.08950   0.19112   0.31669   0.00000  Uiso   1.00
C101   C     0.03989   0.22865   0.46439   0.00000  Uiso   1.00
C102   C     0.25443   0.12195   0.20616   0.00000  Uiso   1.00
C103   C     0.31216   0.12368   0.09135   0.00000  Uiso   1.00
C104   C     0.37734   0.12093   0.17298   0.00000  Uiso   1.00
C105   C     0.49432   0.11782   0.23749   0.00000  Uiso   1.00
C106   C     0.19150   0.11645   0.49515   0.00000  Uiso   1.00
C107   C     0.14971   0.09333   0.40109   0.00000  Uiso   1.00
C108   C     0.12077   0.07014   0.48737   0.00000  Uiso   1.00
C109   C     0.08443   0.05139   0.37717   0.00000  Uiso   1.00
C110   C     0.15425   0.14381   0.44935   0.00000  Uiso   1.00
C111   C     0.12914   0.16307   0.57622   0.00000  Uiso   1.00
C112   C     0.09662   0.18681   0.50666   0.00000  Uiso   1.00
C113   C     0.26155   0.11764   0.39578   0.00000  Uiso   1.00
C114   C     0.32665   0.11490   0.47761   0.00000  Uiso   1.00
C115   C     0.38446   0.11661   0.36295   0.00000  Uiso   1.00
H116   H     0.17286   0.12774   0.99841   0.00000  Uiso   1.00
H117   H     0.10079   0.08226   0.95437   0.00000  Uiso   1.00
H118   H     0.10916   0.17517   0.04321   0.00000  Uiso   1.00
H119   H     0.30664   0.12701   0.94462   0.00000  Uiso   1.00
H120   H     0.02400   0.02995   0.98919   0.00000  Uiso   1.00
H121   H     0.04167   0.22586   0.17651   0.00000  Uiso   1.00
H122   H     0.45809   0.12430   0.96859   0.00000  Uiso   1.00
H123   H     0.19703   0.11310   0.64279   0.00000  Uiso   1.00
H124   H     0.12629   0.06681   0.63412   0.00000  Uiso   1.00
H125   H     0.13466   0.15972   0.72295   0.00000  Uiso   1.00
H126   H     0.33213   0.11156   0.62435   0.00000  Uiso   1.00
H127   H     0.04469   0.01741   0.54089   0.00000  Uiso   1.00
H128   H     0.06237   0.21332   0.72821   0.00000  Uiso   1.00
H129   H     0.47878   0.11176   0.52030   0.00000  Uiso   1.00
O130   O     0.98735   0.99350   0.24772   0.00000  Uiso   1.00
O131   O     0.01055   0.25053   0.49347   0.00000  Uiso   1.00
O132   O     0.55688   0.11729   0.22069   0.00000  Uiso   1.00
N133   N     0.03859   0.03334   0.12022   0.00000  Uiso   1.00
N134   N     0.05510   0.21651   0.29535   0.00000  Uiso   1.00
N135   N     0.44442   0.12157   0.10097   0.00000  Uiso   1.00
N136   N     0.04972   0.02660   0.41708   0.00000  Uiso   1.00
N137   N     0.06624   0.20976   0.59222   0.00000  Uiso   1.00
N138   N     0.45555   0.11482   0.39784   0.00000  Uiso   1.00
C139   C     0.32160   0.87562   0.14603   0.00000  Uiso   1.00
C140   C     0.35740   0.90236   0.21146   0.00000  Uiso   1.00
C141   C     0.39371   0.92108   0.10112   0.00000  Uiso   1.00
C142   C     0.42270   0.94430   0.18720   0.00000  Uiso   1.00
C143   C     0.47940   0.98516   0.25996   0.00000  Uiso   1.00
C144   C     0.35286   0.85188   0.25973   0.00000  Uiso   1.00
C145   C     0.38535   0.82816   0.18996   0.00000  Uiso   1.00
C146   C     0.41050   0.80888   0.31669   0.00000  Uiso   1.00
C147   C     0.46011   0.77135   0.46439   0.00000  Uiso   1.00
C148   C     0.24557   0.87805   0.20616   0.00000  Uiso   1.00
C149   C     0.18784   0.87632   0.09135   0.00000  Uiso   1.00
C150   C     0.12266   0.87907   0.17298   0.00000  Uiso   1.00
C151   C     0.00568   0.88218   0.23749   0.00000  Uiso   1.00
C152   C     0.30850   0.88355   0.49515   0.00000  Uiso   1.00
C153   C     0.35029   0.90667   0.40109   0.00000  Uiso   1.00
C154   C     0.37923   0.92986   0.48737   0.00000  Uiso   1.00
C155   C     0.41557   0.94861   0.37717   0.00000  Uiso   1.00
C156   C     0.34575   0.85619   0.44935   0.00000  Uiso   1.00
C157   C     0.37086   0.83693   0.57622   0.00000  Uiso   1.00
C158   C     0.40338   0.81319   0.50666   0.00000  Uiso   1.00
C159   C     0.23845   0.88236   0.39578   0.00000  Uiso   1.00
C160   C     0.17335   0.88510   0.47761   0.00000  Uiso   1.00
C161   C     0.11554   0.88339   0.36295   0.00000  Uiso   1.00
H162   H     0.32714   0.87226   0.99841   0.00000  Uiso   1.00
H163   H     0.39921   0.91774   0.95437   0.00000  Uiso   1.00
H164   H     0.39084   0.82483   0.04321   0.00000  Uiso   1.00
H165   H     0.19336   0.87299   0.94462   0.00000  Uiso   1.00
H166   H     0.47600   0.97005   0.98919   0.00000  Uiso   1.00
H167   H     0.45833   0.77414   0.17651   0.00000  Uiso   1.00
H168   H     0.04191   0.87570   0.96859   0.00000  Uiso   1.00
H169   H     0.30297   0.88690   0.64279   0.00000  Uiso   1.00
H170   H     0.37371   0.93319   0.63412   0.00000  Uiso   1.00
H171   H     0.36534   0.84028   0.72295   0.00000  Uiso   1.00
H172   H     0.16787   0.88844   0.62435   0.00000  Uiso   1.00
H173   H     0.45531   0.98259   0.54089   0.00000  Uiso   1.00
H174   H     0.43763   0.78668   0.72821   0.00000  Uiso   1.00
H175   H     0.02122   0.88824   0.52030   0.00000  Uiso   1.00
O176   O     0.51265   0.00650   0.24772   0.00000  Uiso   1.00
O177   O     0.48945   0.74947   0.49347   0.00000  Uiso   1.00
O178   O     0.94312   0.88271   0.22069   0.00000  Uiso   1.00
N179   N     0.46141   0.96666   0.12022   0.00000  Uiso   1.00
N180   N     0.44490   0.78349   0.29535   0.00000  Uiso   1.00
N181   N     0.05558   0.87843   0.10097   0.00000  Uiso   1.00
N182   N     0.45028   0.97340   0.41708   0.00000  Uiso   1.00
N183   N     0.43376   0.79024   0.59222   0.00000  Uiso   1.00
N184   N     0.04445   0.88518   0.39784   0.00000  Uiso   1.00
C185   C     0.67840   0.37562   0.64603   0.00000  Uiso   1.00
C186   C     0.64260   0.40236   0.71146   0.00000  Uiso   1.00
C187   C     0.60629   0.42108   0.60112   0.00000  Uiso   1.00
C188   C     0.57730   0.44430   0.68720   0.00000  Uiso   1.00
C189   C     0.52060   0.48516   0.75996   0.00000  Uiso   1.00
C190   C     0.64714   0.35188   0.75973   0.00000  Uiso   1.00
C191   C     0.61465   0.32816   0.68996   0.00000  Uiso   1.00
C192   C     0.58950   0.30888   0.81669   0.00000  Uiso   1.00
C193   C     0.53989   0.27135   0.96439   0.00000  Uiso   1.00
C194   C     0.75443   0.37805   0.70616   0.00000  Uiso   1.00
C195   C     0.81216   0.37632   0.59135   0.00000  Uiso   1.00
C196   C     0.87734   0.37907   0.67298   0.00000  Uiso   1.00
C197   C     0.99432   0.38218   0.73749   0.00000  Uiso   1.00
C198   C     0.69150   0.38355   0.99515   0.00000  Uiso   1.00
C199   C     0.64971   0.40667   0.90109   0.00000  Uiso   1.00
C200   C     0.62077   0.42986   0.98737   0.00000  Uiso   1.00
C201   C     0.58443   0.44861   0.87717   0.00000  Uiso   1.00
C202   C     0.65425   0.35619   0.94935   0.00000  Uiso   1.00
C203   C     0.62914   0.33693   0.07622   0.00000  Uiso   1.00
C204   C     0.59662   0.31319   0.00666   0.00000  Uiso   1.00
C205   C     0.76155   0.38236   0.89578   0.00000  Uiso   1.00
C206   C     0.82665   0.38510   0.97761   0.00000  Uiso   1.00
C207   C     0.88446   0.38339   0.86295   0.00000  Uiso   1.00
H208   H     0.67286   0.37226   0.49841   0.00000  Uiso   1.00
H209   H     0.60079   0.41774   0.45437   0.00000  Uiso   1.00
H210   H     0.60916   0.32483   0.54321   0.00000  Uiso   1.00
H211   H     0.80664   0.37299   0.44462   0.00000  Uiso   1.00
H212   H     0.52400   0.47005   0.48919   0.00000  Uiso   1.00
H213   H     0.54167   0.27414   0.67651   0.00000  Uiso   1.00
H214   H     0.95809   0.37570   0.46859   0.00000  Uiso   1.00
H215   H     0.69703   0.38690   0.14279   0.00000  Uiso   1.00
H216   H     0.62629   0.43319   0.13412   0.00000  Uiso   1.00
H217   H     0.63466   0.34028   0.22295   0.00000  Uiso   1.00
H218   H     0.83213   0.38844   0.12435   0.00000  Uiso   1.00
H219   H     0.54469   0.48259   0.04089   0.00000  Uiso   1.00
H220   H     0.56237   0.28668   0.22821   0.00000  Uiso   1.00
H221   H     0.97878   0.38824   0.02030   0.00000  Uiso   1.00
O222   O     0.48735   0.50650   0.74772   0.00000  Uiso   1.00
O223   O     0.51055   0.24947   0.99347   0.00000  Uiso   1.00
O224   O     0.05688   0.38271   0.72069   0.00000  Uiso   1.00
N225   N     0.53859   0.46666   0.62022   0.00000  Uiso   1.00
N226   N     0.55510   0.28349   0.79535   0.00000  Uiso   1.00
N227   N     0.94442   0.37843   0.60097   0.00000  Uiso   1.00
N228   N     0.54972   0.47340   0.91708   0.00000  Uiso   1.00
N229   N     0.56624   0.29024   0.09222   0.00000  Uiso   1.00
N230   N     0.95555   0.38518   0.89784   0.00000  Uiso   1.00
C231   C     0.82160   0.62438   0.64603   0.00000  Uiso   1.00
C232   C     0.85740   0.59764   0.71146   0.00000  Uiso   1.00
C233   C     0.89371   0.57892   0.60112   0.00000  Uiso   1.00
C234   C     0.92270   0.55570   0.68720   0.00000  Uiso   1.00
C235   C     0.97940   0.51484   0.75996   0.00000  Uiso   1.00
C236   C     0.85286   0.64812   0.75973   0.00000  Uiso   1.00
C237   C     0.88535   0.67184   0.68996   0.00000  Uiso   1.00
C238   C     0.91050   0.69112   0.81669   0.00000  Uiso   1.00
C239   C     0.96011   0.72865   0.96439   0.00000  Uiso   1.00
C240   C     0.74557   0.62195   0.70616   0.00000  Uiso   1.00
C241   C     0.68784   0.62368   0.59135   0.00000  Uiso   1.00
C242   C     0.62266   0.62093   0.67298   0.00000  Uiso   1.00
C243   C     0.50568   0.61782   0.73749   0.00000  Uiso   1.00
C244   C     0.80850   0.61645   0.99515   0.00000  Uiso   1.00
C245   C     0.85029   0.59333   0.90109   0.00000  Uiso   1.00
C246   C     0.87923   0.57014   0.98737   0.00000  Uiso   1.00
C247   C     0.91557   0.55139   0.87717   0.00000  Uiso   1.00
C248   C     0.84575   0.64381   0.94935   0.00000  Uiso   1.00
C249   C     0.87086   0.66307   0.07622   0.00000  Uiso   1.00
C250   C     0.90338   0.68681   0.00666   0.00000  Uiso   1.00
C251   C     0.73845   0.61764   0.89578   0.00000  Uiso   1.00
C252   C     0.67335   0.61490   0.97761   0.00000  Uiso   1.00
C253   C     0.61554   0.61661   0.86295   0.00000  Uiso   1.00
H254   H     0.82714   0.62774   0.49841   0.00000  Uiso   1.00
H255   H     0.89921   0.58226   0.45437   0.00000  Uiso   1.00
H256   H     0.89084   0.67517   0.54321   0.00000  Uiso   1.00
H257   H     0.69336   0.62701   0.44462   0.00000  Uiso   1.00
H258   H     0.97600   0.52995   0.48919   0.00000  Uiso   1.00
H259   H     0.95833   0.72586   0.67651   0.00000  Uiso   1.00
H260   H     0.54191   0.62430   0.46859   0.00000  Uiso   1.00
H261   H     0.80297   0.61310   0.14279   0.00000  Uiso   1.00
H262   H     0.87371   0.56681   0.13412   0.00000  Uiso   1.00
H263   H     0.86534   0.65972   0.22295   0.00000  Uiso   1.00
H264   H     0.66787   0.61156   0.12435   0.00000  Uiso   1.00
H265   H     0.95531   0.51741   0.04089   0.00000  Uiso   1.00
H266   H     0.93763   0.71332   0.22821   0.00000  Uiso   1.00
H267   H     0.52122   0.61176   0.02030   0.00000  Uiso   1.00
O268   O     0.01265   0.49350   0.74772   0.00000  Uiso   1.00
O269   O     0.98945   0.75053   0.99347   0.00000  Uiso   1.00
O270   O     0.44312   0.61729   0.72069   0.00000  Uiso   1.00
N271   N     0.96141   0.53334   0.62022   0.00000  Uiso   1.00
N272   N     0.94490   0.71651   0.79535   0.00000  Uiso   1.00
N273   N     0.55558   0.62157   0.60097   0.00000  Uiso   1.00
N274   N     0.95028   0.52660   0.91708   0.00000  Uiso   1.00
N275   N     0.93376   0.70976   0.09222   0.00000  Uiso   1.00
N276   N     0.54445   0.61482   0.89784   0.00000  Uiso   1.00
C277   C     0.82160   0.87562   0.85397   0.00000  Uiso   1.00
C278   C     0.85740   0.90236   0.78854   0.00000  Uiso   1.00
C279   C     0.89371   0.92108   0.89888   0.00000  Uiso   1.00
C280   C     0.92270   0.94430   0.81280   0.00000  Uiso   1.00
C281   C     0.97940   0.98516   0.74004   0.00000  Uiso   1.00
C282   C     0.85286   0.85188   0.74027   0.00000  Uiso   1.00
C283   C     0.88535   0.82816   0.81004   0.00000  Uiso   1.00
C284   C     0.91050   0.80888   0.68331   0.00000  Uiso   1.00
C285   C     0.96011   0.77135   0.53561   0.00000  Uiso   1.00
C286   C     0.74557   0.87805   0.79384   0.00000  Uiso   1.00
C287   C     0.68784   0.87632   0.90865   0.00000  Uiso   1.00
C288   C     0.62266   0.87907   0.82702   0.00000  Uiso   1.00
C289   C     0.50568   0.88218   0.76251   0.00000  Uiso   1.00
C290   C     0.80850   0.88355   0.50485   0.00000  Uiso   1.00
C291   C     0.85029   0.90667   0.59891   0.00000  Uiso   1.00
C292   C     0.87923   0.92986   0.51263   0.00000  Uiso   1.00
C293   C     0.91557   0.94861   0.62283   0.00000  Uiso   1.00
C294   C     0.84575   0.85619   0.55065   0.00000  Uiso   1.00
C295   C     0.87086   0.83693   0.42378   0.00000  Uiso   1.00
C296   C     0.90338   0.81319   0.49334   0.00000  Uiso   1.00
C297   C     0.73845   0.88236   0.60422   0.00000  Uiso   1.00
C298   C     0.67335   0.88510   0.52239   0.00000  Uiso   1.00
C299   C     0.61554   0.88339   0.63705   0.00000  Uiso   1.00
H300   H     0.82714   0.87226   0.00159   0.00000  Uiso   1.00
H301   H     0.89921   0.91774   0.04563   0.00000  Uiso   1.00
H302   H     0.89084   0.82483   0.95679   0.00000  Uiso   1.00
H303   H     0.69336   0.87299   0.05538   0.00000  Uiso   1.00
H304   H     0.97600   0.97005   0.01081   0.00000  Uiso   1.00
H305   H     0.95833   0.77414   0.82349   0.00000  Uiso   1.00
H306   H     0.54191   0.87570   0.03141   0.00000  Uiso   1.00
H307   H     0.80297   0.88690   0.35721   0.00000  Uiso   1.00
H308   H     0.87371   0.93319   0.36588   0.00000  Uiso   1.00
H309   H     0.86534   0.84028   0.27705   0.00000  Uiso   1.00
H310   H     0.66787   0.88844   0.37565   0.00000  Uiso   1.00
H311   H     0.95531   0.98259   0.45911   0.00000  Uiso   1.00
H312   H     0.93763   0.78668   0.27179   0.00000  Uiso   1.00
H313   H     0.52122   0.88824   0.47970   0.00000  Uiso   1.00
O314   O     0.01265   0.00650   0.75228   0.00000  Uiso   1.00
O315   O     0.98945   0.74947   0.50653   0.00000  Uiso   1.00
O316   O     0.44312   0.88271   0.77931   0.00000  Uiso   1.00
N317   N     0.96141   0.96666   0.87978   0.00000  Uiso   1.00
N318   N     0.94490   0.78349   0.70465   0.00000  Uiso   1.00
N319   N     0.55558   0.87843   0.89903   0.00000  Uiso   1.00
N320   N     0.95028   0.97340   0.58292   0.00000  Uiso   1.00
N321   N     0.93376   0.79024   0.40778   0.00000  Uiso   1.00
N322   N     0.54445   0.88518   0.60216   0.00000  Uiso   1.00
C323   C     0.67840   0.12438   0.85397   0.00000  Uiso   1.00
C324   C     0.64260   0.09764   0.78854   0.00000  Uiso   1.00
C325   C     0.60629   0.07892   0.89888   0.00000  Uiso   1.00
C326   C     0.57730   0.05570   0.81280   0.00000  Uiso   1.00
C327   C     0.52060   0.01484   0.74004   0.00000  Uiso   1.00
C328   C     0.64714   0.14812   0.74027   0.00000  Uiso   1.00
C329   C     0.61465   0.17184   0.81004   0.00000  Uiso   1.00
C330   C     0.58950   0.19112   0.68331   0.00000  Uiso   1.00
C331   C     0.53989   0.22865   0.53561   0.00000  Uiso   1.00
C332   C     0.75443   0.12195   0.79384   0.00000  Uiso   1.00
C333   C     0.81216   0.12368   0.90865   0.00000  Uiso   1.00
C334   C     0.87734   0.12093   0.82702   0.00000  Uiso   1.00
C335   C     0.99432   0.11782   0.76251   0.00000  Uiso   1.00
C336   C     0.69150   0.11645   0.50485   0.00000  Uiso   1.00
C337   C     0.64971   0.09333   0.59891   0.00000  Uiso   1.00
C338   C     0.62077   0.07014   0.51263   0.00000  Uiso   1.00
C339   C     0.58443   0.05139   0.62283   0.00000  Uiso   1.00
C340   C     0.65425   0.14381   0.55065   0.00000  Uiso   1.00
C341   C     0.62914   0.16307   0.42378   0.00000  Uiso   1.00
C342   C     0.59662   0.18681   0.49334   0.00000  Uiso   1.00
C343   C     0.76155   0.11764   0.60422   0.00000  Uiso   1.00
C344   C     0.82665   0.11490   0.52239   0.00000  Uiso   1.00
C345   C     0.88446   0.11661   0.63705   0.00000  Uiso   1.00
H346   H     0.67286   0.12774   0.00159   0.00000  Uiso   1.00
H347   H     0.60079   0.08226   0.04563   0.00000  Uiso   1.00
H348   H     0.60916   0.17517   0.95679   0.00000  Uiso   1.00
H349   H     0.80664   0.12701   0.05538   0.00000  Uiso   1.00
H350   H     0.52400   0.02995   0.01081   0.00000  Uiso   1.00
H351   H     0.54167   0.22586   0.82349   0.00000  Uiso   1.00
H352   H     0.95809   0.12430   0.03141   0.00000  Uiso   1.00
H353   H     0.69703   0.11310   0.35721   0.00000  Uiso   1.00
H354   H     0.62629   0.06681   0.36588   0.00000  Uiso   1.00
H355   H     0.63466   0.15972   0.27705   0.00000  Uiso   1.00
H356   H     0.83213   0.11156   0.37565   0.00000  Uiso   1.00
H357   H     0.54469   0.01741   0.45911   0.00000  Uiso   1.00
H358   H     0.56237   0.21332   0.27179   0.00000  Uiso   1.00
H359   H     0.97878   0.11176   0.47970   0.00000  Uiso   1.00
O360   O     0.48735   0.99350   0.75228   0.00000  Uiso   1.00
O361   O     0.51055   0.25053   0.50653   0.00000  Uiso   1.00
O362   O     0.05688   0.11729   0.77931   0.00000  Uiso   1.00
N363   N     0.53859   0.03334   0.87978   0.00000  Uiso   1.00
N364   N     0.55510   0.21651   0.70465   0.00000  Uiso   1.00
N365   N     0.94442   0.12157   0.89903   0.00000  Uiso   1.00
N366   N     0.54972   0.02660   0.58292   0.00000  Uiso   1.00
N367   N     0.56624   0.20976   0.40778   0.00000  Uiso   1.00
N368   N     0.95555   0.11482   0.60216   0.00000  Uiso   1.00
