data_job_03116
_audit_creation_date              2018-12-19
_audit_creation_method            'Materials Studio'
_symmetry_space_group_name_H-M    'P1'
_symmetry_Int_Tables_number       1
_symmetry_cell_setting            triclinic
loop_
_symmetry_equiv_pos_as_xyz
  x,y,z
_cell_length_a                    22.1761
_cell_length_b                    22.5162
_cell_length_c                    12.3111
_cell_angle_alpha                 90.0000
_cell_angle_beta                  90.0000
_cell_angle_gamma                 90.0000
loop_
_atom_site_label
_atom_site_type_symbol
_atom_site_fract_x
_atom_site_fract_y
_atom_site_fract_z
_atom_site_U_iso_or_equiv
_atom_site_adp_type
_atom_site_occupancy
C1     C     0.00142   0.92795   0.16459   0.00000  Uiso   1.00
C2     C     0.04411   0.89529   0.08803   0.00000  Uiso   1.00
C3     C     0.07044   0.91897   0.99539   0.00000  Uiso   1.00
C4     C     0.10817   0.88188   0.93622   0.00000  Uiso   1.00
C5     C     0.17277   0.84009   0.81239   0.00000  Uiso   1.00
C6     C     0.94410   0.89062   0.16950   0.00000  Uiso   1.00
C7     C     0.88635   0.91037   0.14537   0.00000  Uiso   1.00
C8     C     0.83990   0.86935   0.15480   0.00000  Uiso   1.00
C9     C     0.74923   0.82031   0.15752   0.00000  Uiso   1.00
C10    C     0.02985   0.92396   0.27712   0.00000  Uiso   1.00
C11    C     0.04419   0.97173   0.34350   0.00000  Uiso   1.00
C12    C     0.06991   0.95879   0.44356   0.00000  Uiso   1.00
C13    C     0.11239   0.96151   0.61339   0.00000  Uiso   1.00
C14    C     0.02159   0.82000   0.22426   0.00000  Uiso   1.00
C15    C     0.05507   0.83666   0.12044   0.00000  Uiso   1.00
C16    C     0.09277   0.79953   0.06141   0.00000  Uiso   1.00
C17    C     0.11915   0.82315   0.96870   0.00000  Uiso   1.00
C18    C     0.95506   0.83199   0.20191   0.00000  Uiso   1.00
C19    C     0.90868   0.79094   0.21139   0.00000  Uiso   1.00
C20    C     0.85087   0.81061   0.18727   0.00000  Uiso   1.00
C21    C     0.04082   0.86532   0.30954   0.00000  Uiso   1.00
C22    C     0.06652   0.85230   0.40952   0.00000  Uiso   1.00
C23    C     0.08089   0.90005   0.47603   0.00000  Uiso   1.00
H24    H     0.99288   0.97360   0.13935   0.00000  Uiso   1.00
H25    H     0.06195   0.96434   0.97033   0.00000  Uiso   1.00
H26    H     0.87789   0.95575   0.12029   0.00000  Uiso   1.00
H27    H     0.03570   0.01710   0.31839   0.00000  Uiso   1.00
H28    H     0.14334   0.92822   0.79720   0.00000  Uiso   1.00
H29    H     0.75523   0.91010   0.11345   0.00000  Uiso   1.00
H30    H     0.08801   0.03948   0.53118   0.00000  Uiso   1.00
H31    H     0.03012   0.77435   0.24950   0.00000  Uiso   1.00
H32    H     0.10124   0.75416   0.08651   0.00000  Uiso   1.00
H33    H     0.91718   0.74557   0.23648   0.00000  Uiso   1.00
H34    H     0.07499   0.80692   0.43457   0.00000  Uiso   1.00
H35    H     0.17523   0.75763   0.89149   0.00000  Uiso   1.00
H36    H     0.78712   0.73951   0.20775   0.00000  Uiso   1.00
H37    H     0.11990   0.86889   0.62548   0.00000  Uiso   1.00
O38    O     0.20537   0.83323   0.73512   0.00000  Uiso   1.00
O39    O     0.69620   0.80946   0.15005   0.00000  Uiso   1.00
O40    O     0.13280   0.97920   0.69810   0.00000  Uiso   1.00
N41    N     0.14109   0.89084   0.84177   0.00000  Uiso   1.00
N42    N     0.77824   0.87390   0.13743   0.00000  Uiso   1.00
N43    N     0.08934   0.99486   0.52799   0.00000  Uiso   1.00
N44    N     0.15825   0.79905   0.89251   0.00000  Uiso   1.00
N45    N     0.79540   0.78211   0.18817   0.00000  Uiso   1.00
N46    N     0.10650   0.90307   0.57873   0.00000  Uiso   1.00
C47    C     0.49858   0.07205   0.66459   0.00000  Uiso   1.00
C48    C     0.45589   0.10471   0.58803   0.00000  Uiso   1.00
C49    C     0.42956   0.08103   0.49539   0.00000  Uiso   1.00
C50    C     0.39183   0.11812   0.43622   0.00000  Uiso   1.00
C51    C     0.32723   0.15991   0.31239   0.00000  Uiso   1.00
C52    C     0.55590   0.10938   0.66950   0.00000  Uiso   1.00
C53    C     0.61365   0.08963   0.64537   0.00000  Uiso   1.00
C54    C     0.66010   0.13065   0.65480   0.00000  Uiso   1.00
C55    C     0.75077   0.17969   0.65752   0.00000  Uiso   1.00
C56    C     0.47015   0.07604   0.77712   0.00000  Uiso   1.00
C57    C     0.45581   0.02827   0.84350   0.00000  Uiso   1.00
C58    C     0.43009   0.04121   0.94356   0.00000  Uiso   1.00
C59    C     0.38761   0.03849   0.11339   0.00000  Uiso   1.00
C60    C     0.47841   0.18000   0.72426   0.00000  Uiso   1.00
C61    C     0.44493   0.16334   0.62044   0.00000  Uiso   1.00
C62    C     0.40723   0.20047   0.56141   0.00000  Uiso   1.00
C63    C     0.38085   0.17685   0.46870   0.00000  Uiso   1.00
C64    C     0.54494   0.16801   0.70191   0.00000  Uiso   1.00
C65    C     0.59132   0.20906   0.71139   0.00000  Uiso   1.00
C66    C     0.64913   0.18939   0.68727   0.00000  Uiso   1.00
C67    C     0.45918   0.13468   0.80954   0.00000  Uiso   1.00
C68    C     0.43348   0.14770   0.90952   0.00000  Uiso   1.00
C69    C     0.41911   0.09995   0.97603   0.00000  Uiso   1.00
H70    H     0.50712   0.02640   0.63935   0.00000  Uiso   1.00
H71    H     0.43805   0.03566   0.47033   0.00000  Uiso   1.00
H72    H     0.62211   0.04425   0.62029   0.00000  Uiso   1.00
H73    H     0.46430   0.98290   0.81839   0.00000  Uiso   1.00
H74    H     0.35666   0.07178   0.29720   0.00000  Uiso   1.00
H75    H     0.74477   0.08990   0.61345   0.00000  Uiso   1.00
H76    H     0.41199   0.96052   0.03118   0.00000  Uiso   1.00
H77    H     0.46988   0.22565   0.74950   0.00000  Uiso   1.00
H78    H     0.39876   0.24584   0.58651   0.00000  Uiso   1.00
H79    H     0.58282   0.25443   0.73648   0.00000  Uiso   1.00
H80    H     0.42501   0.19308   0.93457   0.00000  Uiso   1.00
H81    H     0.32477   0.24237   0.39149   0.00000  Uiso   1.00
H82    H     0.71288   0.26049   0.70775   0.00000  Uiso   1.00
H83    H     0.38010   0.13111   0.12548   0.00000  Uiso   1.00
O84    O     0.29463   0.16677   0.23512   0.00000  Uiso   1.00
O85    O     0.80380   0.19054   0.65005   0.00000  Uiso   1.00
O86    O     0.36720   0.02080   0.19810   0.00000  Uiso   1.00
N87    N     0.35891   0.10916   0.34177   0.00000  Uiso   1.00
N88    N     0.72176   0.12610   0.63743   0.00000  Uiso   1.00
N89    N     0.41066   0.00514   0.02799   0.00000  Uiso   1.00
N90    N     0.34175   0.20095   0.39251   0.00000  Uiso   1.00
N91    N     0.70460   0.21789   0.68817   0.00000  Uiso   1.00
N92    N     0.39350   0.09693   0.07873   0.00000  Uiso   1.00
C93    C     0.99858   0.42795   0.33541   0.00000  Uiso   1.00
C94    C     0.95589   0.39529   0.41197   0.00000  Uiso   1.00
C95    C     0.92956   0.41897   0.50461   0.00000  Uiso   1.00
C96    C     0.89183   0.38188   0.56378   0.00000  Uiso   1.00
C97    C     0.82723   0.34009   0.68761   0.00000  Uiso   1.00
C98    C     0.05590   0.39062   0.33050   0.00000  Uiso   1.00
C99    C     0.11365   0.41037   0.35463   0.00000  Uiso   1.00
C100   C     0.16010   0.36935   0.34520   0.00000  Uiso   1.00
C101   C     0.25077   0.32031   0.34248   0.00000  Uiso   1.00
C102   C     0.97015   0.42396   0.22288   0.00000  Uiso   1.00
C103   C     0.95581   0.47173   0.15650   0.00000  Uiso   1.00
C104   C     0.93009   0.45879   0.05644   0.00000  Uiso   1.00
C105   C     0.88761   0.46151   0.88661   0.00000  Uiso   1.00
C106   C     0.97841   0.32000   0.27574   0.00000  Uiso   1.00
C107   C     0.94493   0.33666   0.37956   0.00000  Uiso   1.00
C108   C     0.90723   0.29953   0.43859   0.00000  Uiso   1.00
C109   C     0.88085   0.32315   0.53130   0.00000  Uiso   1.00
C110   C     0.04494   0.33199   0.29809   0.00000  Uiso   1.00
C111   C     0.09132   0.29094   0.28861   0.00000  Uiso   1.00
C112   C     0.14913   0.31061   0.31273   0.00000  Uiso   1.00
C113   C     0.95918   0.36532   0.19046   0.00000  Uiso   1.00
C114   C     0.93348   0.35230   0.09048   0.00000  Uiso   1.00
C115   C     0.91911   0.40005   0.02397   0.00000  Uiso   1.00
H116   H     0.00712   0.47360   0.36065   0.00000  Uiso   1.00
H117   H     0.93805   0.46434   0.52967   0.00000  Uiso   1.00
H118   H     0.12211   0.45575   0.37971   0.00000  Uiso   1.00
H119   H     0.96430   0.51710   0.18161   0.00000  Uiso   1.00
H120   H     0.85666   0.42822   0.70280   0.00000  Uiso   1.00
H121   H     0.24477   0.41010   0.38655   0.00000  Uiso   1.00
H122   H     0.91199   0.53948   0.96882   0.00000  Uiso   1.00
H123   H     0.96988   0.27435   0.25050   0.00000  Uiso   1.00
H124   H     0.89876   0.25416   0.41349   0.00000  Uiso   1.00
H125   H     0.08282   0.24557   0.26352   0.00000  Uiso   1.00
H126   H     0.92501   0.30692   0.06543   0.00000  Uiso   1.00
H127   H     0.82477   0.25763   0.60851   0.00000  Uiso   1.00
H128   H     0.21288   0.23951   0.29225   0.00000  Uiso   1.00
H129   H     0.88010   0.36889   0.87452   0.00000  Uiso   1.00
O130   O     0.79463   0.33323   0.76488   0.00000  Uiso   1.00
O131   O     0.30380   0.30946   0.34995   0.00000  Uiso   1.00
O132   O     0.86720   0.47920   0.80190   0.00000  Uiso   1.00
N133   N     0.85891   0.39084   0.65823   0.00000  Uiso   1.00
N134   N     0.22176   0.37390   0.36257   0.00000  Uiso   1.00
N135   N     0.91066   0.49486   0.97201   0.00000  Uiso   1.00
N136   N     0.84175   0.29905   0.60749   0.00000  Uiso   1.00
N137   N     0.20460   0.28211   0.31183   0.00000  Uiso   1.00
N138   N     0.89350   0.40307   0.92127   0.00000  Uiso   1.00
C139   C     0.50142   0.57205   0.83541   0.00000  Uiso   1.00
C140   C     0.54411   0.60471   0.91197   0.00000  Uiso   1.00
C141   C     0.57044   0.58103   0.00461   0.00000  Uiso   1.00
C142   C     0.60817   0.61812   0.06378   0.00000  Uiso   1.00
C143   C     0.67277   0.65991   0.18761   0.00000  Uiso   1.00
C144   C     0.44410   0.60938   0.83050   0.00000  Uiso   1.00
C145   C     0.38635   0.58963   0.85463   0.00000  Uiso   1.00
C146   C     0.33990   0.63065   0.84520   0.00000  Uiso   1.00
C147   C     0.24923   0.67969   0.84248   0.00000  Uiso   1.00
C148   C     0.52985   0.57604   0.72288   0.00000  Uiso   1.00
C149   C     0.54419   0.52827   0.65650   0.00000  Uiso   1.00
C150   C     0.56991   0.54121   0.55644   0.00000  Uiso   1.00
C151   C     0.61239   0.53849   0.38661   0.00000  Uiso   1.00
C152   C     0.52159   0.68000   0.77574   0.00000  Uiso   1.00
C153   C     0.55507   0.66334   0.87956   0.00000  Uiso   1.00
C154   C     0.59277   0.70047   0.93859   0.00000  Uiso   1.00
C155   C     0.61915   0.67685   0.03130   0.00000  Uiso   1.00
C156   C     0.45506   0.66801   0.79809   0.00000  Uiso   1.00
C157   C     0.40868   0.70906   0.78861   0.00000  Uiso   1.00
C158   C     0.35087   0.68939   0.81273   0.00000  Uiso   1.00
C159   C     0.54082   0.63468   0.69046   0.00000  Uiso   1.00
C160   C     0.56652   0.64770   0.59048   0.00000  Uiso   1.00
C161   C     0.58089   0.59995   0.52397   0.00000  Uiso   1.00
H162   H     0.49288   0.52640   0.86065   0.00000  Uiso   1.00
H163   H     0.56195   0.53566   0.02967   0.00000  Uiso   1.00
H164   H     0.37789   0.54425   0.87971   0.00000  Uiso   1.00
H165   H     0.53570   0.48290   0.68161   0.00000  Uiso   1.00
H166   H     0.64334   0.57178   0.20280   0.00000  Uiso   1.00
H167   H     0.25523   0.58990   0.88655   0.00000  Uiso   1.00
H168   H     0.58801   0.46052   0.46882   0.00000  Uiso   1.00
H169   H     0.53012   0.72565   0.75050   0.00000  Uiso   1.00
H170   H     0.60124   0.74584   0.91349   0.00000  Uiso   1.00
H171   H     0.41718   0.75443   0.76352   0.00000  Uiso   1.00
H172   H     0.57499   0.69308   0.56543   0.00000  Uiso   1.00
H173   H     0.67523   0.74237   0.10851   0.00000  Uiso   1.00
H174   H     0.28712   0.76049   0.79225   0.00000  Uiso   1.00
H175   H     0.61990   0.63111   0.37452   0.00000  Uiso   1.00
O176   O     0.70537   0.66677   0.26488   0.00000  Uiso   1.00
O177   O     0.19620   0.69054   0.84995   0.00000  Uiso   1.00
O178   O     0.63280   0.52080   0.30190   0.00000  Uiso   1.00
N179   N     0.64109   0.60916   0.15823   0.00000  Uiso   1.00
N180   N     0.27824   0.62610   0.86257   0.00000  Uiso   1.00
N181   N     0.58934   0.50514   0.47201   0.00000  Uiso   1.00
N182   N     0.65825   0.70095   0.10749   0.00000  Uiso   1.00
N183   N     0.29540   0.71789   0.81183   0.00000  Uiso   1.00
N184   N     0.60650   0.59693   0.42127   0.00000  Uiso   1.00
C185   C     0.99858   0.07205   0.83541   0.00000  Uiso   1.00
C186   C     0.95589   0.10471   0.91197   0.00000  Uiso   1.00
C187   C     0.92956   0.08103   0.00461   0.00000  Uiso   1.00
C188   C     0.89183   0.11812   0.06378   0.00000  Uiso   1.00
C189   C     0.82723   0.15991   0.18761   0.00000  Uiso   1.00
C190   C     0.05590   0.10938   0.83050   0.00000  Uiso   1.00
C191   C     0.11365   0.08963   0.85463   0.00000  Uiso   1.00
C192   C     0.16010   0.13065   0.84520   0.00000  Uiso   1.00
C193   C     0.25077   0.17969   0.84248   0.00000  Uiso   1.00
C194   C     0.97015   0.07604   0.72288   0.00000  Uiso   1.00
C195   C     0.95581   0.02827   0.65650   0.00000  Uiso   1.00
C196   C     0.93009   0.04121   0.55644   0.00000  Uiso   1.00
C197   C     0.88761   0.03849   0.38661   0.00000  Uiso   1.00
C198   C     0.97841   0.18000   0.77574   0.00000  Uiso   1.00
C199   C     0.94493   0.16334   0.87956   0.00000  Uiso   1.00
C200   C     0.90723   0.20047   0.93859   0.00000  Uiso   1.00
C201   C     0.88085   0.17685   0.03130   0.00000  Uiso   1.00
C202   C     0.04494   0.16801   0.79809   0.00000  Uiso   1.00
C203   C     0.09132   0.20906   0.78861   0.00000  Uiso   1.00
C204   C     0.14913   0.18939   0.81273   0.00000  Uiso   1.00
C205   C     0.95918   0.13468   0.69046   0.00000  Uiso   1.00
C206   C     0.93348   0.14770   0.59048   0.00000  Uiso   1.00
C207   C     0.91911   0.09995   0.52397   0.00000  Uiso   1.00
H208   H     0.00712   0.02640   0.86065   0.00000  Uiso   1.00
H209   H     0.93805   0.03566   0.02967   0.00000  Uiso   1.00
H210   H     0.12211   0.04425   0.87971   0.00000  Uiso   1.00
H211   H     0.96430   0.98290   0.68161   0.00000  Uiso   1.00
H212   H     0.85666   0.07178   0.20280   0.00000  Uiso   1.00
H213   H     0.24477   0.08990   0.88655   0.00000  Uiso   1.00
H214   H     0.91199   0.96052   0.46882   0.00000  Uiso   1.00
H215   H     0.96988   0.22565   0.75050   0.00000  Uiso   1.00
H216   H     0.89876   0.24584   0.91349   0.00000  Uiso   1.00
H217   H     0.08282   0.25443   0.76352   0.00000  Uiso   1.00
H218   H     0.92501   0.19308   0.56543   0.00000  Uiso   1.00
H219   H     0.82477   0.24237   0.10851   0.00000  Uiso   1.00
H220   H     0.21288   0.26049   0.79225   0.00000  Uiso   1.00
H221   H     0.88010   0.13111   0.37452   0.00000  Uiso   1.00
O222   O     0.79463   0.16677   0.26488   0.00000  Uiso   1.00
O223   O     0.30380   0.19054   0.84995   0.00000  Uiso   1.00
O224   O     0.86720   0.02080   0.30190   0.00000  Uiso   1.00
N225   N     0.85891   0.10916   0.15823   0.00000  Uiso   1.00
N226   N     0.22176   0.12610   0.86257   0.00000  Uiso   1.00
N227   N     0.91066   0.00514   0.47201   0.00000  Uiso   1.00
N228   N     0.84175   0.20095   0.10749   0.00000  Uiso   1.00
N229   N     0.20460   0.21789   0.81183   0.00000  Uiso   1.00
N230   N     0.89350   0.09693   0.42127   0.00000  Uiso   1.00
C231   C     0.50142   0.92795   0.33541   0.00000  Uiso   1.00
C232   C     0.54411   0.89529   0.41197   0.00000  Uiso   1.00
C233   C     0.57044   0.91897   0.50461   0.00000  Uiso   1.00
C234   C     0.60817   0.88188   0.56378   0.00000  Uiso   1.00
C235   C     0.67277   0.84009   0.68761   0.00000  Uiso   1.00
C236   C     0.44410   0.89062   0.33050   0.00000  Uiso   1.00
C237   C     0.38635   0.91037   0.35463   0.00000  Uiso   1.00
C238   C     0.33990   0.86935   0.34520   0.00000  Uiso   1.00
C239   C     0.24923   0.82031   0.34248   0.00000  Uiso   1.00
C240   C     0.52985   0.92396   0.22288   0.00000  Uiso   1.00
C241   C     0.54419   0.97173   0.15650   0.00000  Uiso   1.00
C242   C     0.56991   0.95879   0.05644   0.00000  Uiso   1.00
C243   C     0.61239   0.96151   0.88661   0.00000  Uiso   1.00
C244   C     0.52159   0.82000   0.27574   0.00000  Uiso   1.00
C245   C     0.55507   0.83666   0.37956   0.00000  Uiso   1.00
C246   C     0.59277   0.79953   0.43859   0.00000  Uiso   1.00
C247   C     0.61915   0.82315   0.53130   0.00000  Uiso   1.00
C248   C     0.45506   0.83199   0.29809   0.00000  Uiso   1.00
C249   C     0.40868   0.79094   0.28861   0.00000  Uiso   1.00
C250   C     0.35087   0.81061   0.31273   0.00000  Uiso   1.00
C251   C     0.54082   0.86532   0.19046   0.00000  Uiso   1.00
C252   C     0.56652   0.85230   0.09048   0.00000  Uiso   1.00
C253   C     0.58089   0.90005   0.02397   0.00000  Uiso   1.00
H254   H     0.49288   0.97360   0.36065   0.00000  Uiso   1.00
H255   H     0.56195   0.96434   0.52967   0.00000  Uiso   1.00
H256   H     0.37789   0.95575   0.37971   0.00000  Uiso   1.00
H257   H     0.53570   0.01710   0.18161   0.00000  Uiso   1.00
H258   H     0.64334   0.92822   0.70280   0.00000  Uiso   1.00
H259   H     0.25523   0.91010   0.38655   0.00000  Uiso   1.00
H260   H     0.58801   0.03948   0.96882   0.00000  Uiso   1.00
H261   H     0.53012   0.77435   0.25050   0.00000  Uiso   1.00
H262   H     0.60124   0.75416   0.41349   0.00000  Uiso   1.00
H263   H     0.41718   0.74557   0.26352   0.00000  Uiso   1.00
H264   H     0.57499   0.80692   0.06543   0.00000  Uiso   1.00
H265   H     0.67523   0.75763   0.60851   0.00000  Uiso   1.00
H266   H     0.28712   0.73951   0.29225   0.00000  Uiso   1.00
H267   H     0.61990   0.86889   0.87452   0.00000  Uiso   1.00
O268   O     0.70537   0.83323   0.76488   0.00000  Uiso   1.00
O269   O     0.19620   0.80946   0.34995   0.00000  Uiso   1.00
O270   O     0.63280   0.97920   0.80190   0.00000  Uiso   1.00
N271   N     0.64109   0.89084   0.65823   0.00000  Uiso   1.00
N272   N     0.27824   0.87390   0.36257   0.00000  Uiso   1.00
N273   N     0.58934   0.99486   0.97201   0.00000  Uiso   1.00
N274   N     0.65825   0.79905   0.60749   0.00000  Uiso   1.00
N275   N     0.29540   0.78211   0.31183   0.00000  Uiso   1.00
N276   N     0.60650   0.90307   0.92127   0.00000  Uiso   1.00
C277   C     0.00142   0.57205   0.66459   0.00000  Uiso   1.00
C278   C     0.04411   0.60471   0.58803   0.00000  Uiso   1.00
C279   C     0.07044   0.58103   0.49539   0.00000  Uiso   1.00
C280   C     0.10817   0.61812   0.43622   0.00000  Uiso   1.00
C281   C     0.17277   0.65991   0.31239   0.00000  Uiso   1.00
C282   C     0.94410   0.60938   0.66950   0.00000  Uiso   1.00
C283   C     0.88635   0.58963   0.64537   0.00000  Uiso   1.00
C284   C     0.83990   0.63065   0.65480   0.00000  Uiso   1.00
C285   C     0.74923   0.67969   0.65752   0.00000  Uiso   1.00
C286   C     0.02985   0.57604   0.77712   0.00000  Uiso   1.00
C287   C     0.04419   0.52827   0.84350   0.00000  Uiso   1.00
C288   C     0.06991   0.54121   0.94356   0.00000  Uiso   1.00
C289   C     0.11239   0.53849   0.11339   0.00000  Uiso   1.00
C290   C     0.02159   0.68000   0.72426   0.00000  Uiso   1.00
C291   C     0.05507   0.66334   0.62044   0.00000  Uiso   1.00
C292   C     0.09277   0.70047   0.56141   0.00000  Uiso   1.00
C293   C     0.11915   0.67685   0.46870   0.00000  Uiso   1.00
C294   C     0.95506   0.66801   0.70191   0.00000  Uiso   1.00
C295   C     0.90868   0.70906   0.71139   0.00000  Uiso   1.00
C296   C     0.85087   0.68939   0.68727   0.00000  Uiso   1.00
C297   C     0.04082   0.63468   0.80954   0.00000  Uiso   1.00
C298   C     0.06652   0.64770   0.90952   0.00000  Uiso   1.00
C299   C     0.08089   0.59995   0.97603   0.00000  Uiso   1.00
H300   H     0.99288   0.52640   0.63935   0.00000  Uiso   1.00
H301   H     0.06195   0.53566   0.47033   0.00000  Uiso   1.00
H302   H     0.87789   0.54425   0.62029   0.00000  Uiso   1.00
H303   H     0.03570   0.48290   0.81839   0.00000  Uiso   1.00
H304   H     0.14334   0.57178   0.29720   0.00000  Uiso   1.00
H305   H     0.75523   0.58990   0.61345   0.00000  Uiso   1.00
H306   H     0.08801   0.46052   0.03118   0.00000  Uiso   1.00
H307   H     0.03012   0.72565   0.74950   0.00000  Uiso   1.00
H308   H     0.10124   0.74584   0.58651   0.00000  Uiso   1.00
H309   H     0.91718   0.75443   0.73648   0.00000  Uiso   1.00
H310   H     0.07499   0.69308   0.93457   0.00000  Uiso   1.00
H311   H     0.17523   0.74237   0.39149   0.00000  Uiso   1.00
H312   H     0.78712   0.76049   0.70775   0.00000  Uiso   1.00
H313   H     0.11990   0.63111   0.12548   0.00000  Uiso   1.00
O314   O     0.20537   0.66677   0.23512   0.00000  Uiso   1.00
O315   O     0.69620   0.69054   0.65005   0.00000  Uiso   1.00
O316   O     0.13280   0.52080   0.19810   0.00000  Uiso   1.00
N317   N     0.14109   0.60916   0.34177   0.00000  Uiso   1.00
N318   N     0.77824   0.62610   0.63743   0.00000  Uiso   1.00
N319   N     0.08934   0.50514   0.02799   0.00000  Uiso   1.00
N320   N     0.15825   0.70095   0.39251   0.00000  Uiso   1.00
N321   N     0.79540   0.71789   0.68817   0.00000  Uiso   1.00
N322   N     0.10650   0.59693   0.07873   0.00000  Uiso   1.00
C323   C     0.49858   0.42795   0.16459   0.00000  Uiso   1.00
C324   C     0.45589   0.39529   0.08803   0.00000  Uiso   1.00
C325   C     0.42956   0.41897   0.99539   0.00000  Uiso   1.00
C326   C     0.39183   0.38188   0.93622   0.00000  Uiso   1.00
C327   C     0.32723   0.34009   0.81239   0.00000  Uiso   1.00
C328   C     0.55590   0.39062   0.16950   0.00000  Uiso   1.00
C329   C     0.61365   0.41037   0.14537   0.00000  Uiso   1.00
C330   C     0.66010   0.36935   0.15480   0.00000  Uiso   1.00
C331   C     0.75077   0.32031   0.15752   0.00000  Uiso   1.00
C332   C     0.47015   0.42396   0.27712   0.00000  Uiso   1.00
C333   C     0.45581   0.47173   0.34350   0.00000  Uiso   1.00
C334   C     0.43009   0.45879   0.44356   0.00000  Uiso   1.00
C335   C     0.38761   0.46151   0.61339   0.00000  Uiso   1.00
C336   C     0.47841   0.32000   0.22426   0.00000  Uiso   1.00
C337   C     0.44493   0.33666   0.12044   0.00000  Uiso   1.00
C338   C     0.40723   0.29953   0.06141   0.00000  Uiso   1.00
C339   C     0.38085   0.32315   0.96870   0.00000  Uiso   1.00
C340   C     0.54494   0.33199   0.20191   0.00000  Uiso   1.00
C341   C     0.59132   0.29094   0.21139   0.00000  Uiso   1.00
C342   C     0.64913   0.31061   0.18727   0.00000  Uiso   1.00
C343   C     0.45918   0.36532   0.30954   0.00000  Uiso   1.00
C344   C     0.43348   0.35230   0.40952   0.00000  Uiso   1.00
C345   C     0.41911   0.40005   0.47603   0.00000  Uiso   1.00
H346   H     0.50712   0.47360   0.13935   0.00000  Uiso   1.00
H347   H     0.43805   0.46434   0.97033   0.00000  Uiso   1.00
H348   H     0.62211   0.45575   0.12029   0.00000  Uiso   1.00
H349   H     0.46430   0.51710   0.31839   0.00000  Uiso   1.00
H350   H     0.35666   0.42822   0.79720   0.00000  Uiso   1.00
H351   H     0.74477   0.41010   0.11345   0.00000  Uiso   1.00
H352   H     0.41199   0.53948   0.53118   0.00000  Uiso   1.00
H353   H     0.46988   0.27435   0.24950   0.00000  Uiso   1.00
H354   H     0.39876   0.25416   0.08651   0.00000  Uiso   1.00
H355   H     0.58282   0.24557   0.23648   0.00000  Uiso   1.00
H356   H     0.42501   0.30692   0.43457   0.00000  Uiso   1.00
H357   H     0.32477   0.25763   0.89149   0.00000  Uiso   1.00
H358   H     0.71288   0.23951   0.20775   0.00000  Uiso   1.00
H359   H     0.38010   0.36889   0.62548   0.00000  Uiso   1.00
O360   O     0.29463   0.33323   0.73512   0.00000  Uiso   1.00
O361   O     0.80380   0.30946   0.15005   0.00000  Uiso   1.00
O362   O     0.36720   0.47920   0.69810   0.00000  Uiso   1.00
N363   N     0.35891   0.39084   0.84177   0.00000  Uiso   1.00
N364   N     0.72176   0.37390   0.13743   0.00000  Uiso   1.00
N365   N     0.41066   0.49486   0.52799   0.00000  Uiso   1.00
N366   N     0.34175   0.29905   0.89251   0.00000  Uiso   1.00
N367   N     0.70460   0.28211   0.18817   0.00000  Uiso   1.00
N368   N     0.39350   0.40307   0.57873   0.00000  Uiso   1.00
