data_job_02124
_audit_creation_date              2018-12-19
_audit_creation_method            'Materials Studio'
_symmetry_space_group_name_H-M    'P1'
_symmetry_Int_Tables_number       1
_symmetry_cell_setting            triclinic
loop_
_symmetry_equiv_pos_as_xyz
  x,y,z
_cell_length_a                    39.4494
_cell_length_b                    7.1204
_cell_length_c                    10.2212
_cell_angle_alpha                 90.0000
_cell_angle_beta                  97.0595
_cell_angle_gamma                 90.0000
loop_
_atom_site_label
_atom_site_type_symbol
_atom_site_fract_x
_atom_site_fract_y
_atom_site_fract_z
_atom_site_U_iso_or_equiv
_atom_site_adp_type
_atom_site_occupancy
C1     C     0.89734   0.13909   0.41997   0.00000  Uiso   1.00
C2     C     0.86822   0.05956   0.32401   0.00000  Uiso   1.00
C3     C     0.83834   0.15335   0.27715   0.00000  Uiso   1.00
C4     C     0.81484   0.05627   0.19004   0.00000  Uiso   1.00
C5     C     0.76867   0.96078   0.04699   0.00000  Uiso   1.00
C6     C     0.90221   0.00278   0.53584   0.00000  Uiso   1.00
C7     C     0.90092   0.04885   0.66706   0.00000  Uiso   1.00
C8     C     0.90603   0.90397   0.75827   0.00000  Uiso   1.00
C9     C     0.91266   0.72036   0.94409   0.00000  Uiso   1.00
C10    C     0.92939   0.12245   0.35118   0.00000  Uiso   1.00
C11    C     0.95095   0.26914   0.32718   0.00000  Uiso   1.00
C12    C     0.97895   0.22500   0.26295   0.00000  Uiso   1.00
C13    C     0.02778   0.22720   0.16206   0.00000  Uiso   1.00
C14    C     0.90872   0.79987   0.34862   0.00000  Uiso   1.00
C15    C     0.87440   0.87531   0.28527   0.00000  Uiso   1.00
C16    C     0.85093   0.77806   0.19820   0.00000  Uiso   1.00
C17    C     0.82103   0.87170   0.15121   0.00000  Uiso   1.00
C18    C     0.90839   0.81854   0.49709   0.00000  Uiso   1.00
C19    C     0.91351   0.67356   0.58812   0.00000  Uiso   1.00
C20    C     0.91222   0.71939   0.71945   0.00000  Uiso   1.00
C21    C     0.93557   0.93821   0.31242   0.00000  Uiso   1.00
C22    C     0.96354   0.89384   0.24823   0.00000  Uiso   1.00
C23    C     0.98514   0.04042   0.22413   0.00000  Uiso   1.00
H24    H     0.89253   0.28252   0.45015   0.00000  Uiso   1.00
H25    H     0.83357   0.29594   0.30717   0.00000  Uiso   1.00
H26    H     0.89614   0.19145   0.69703   0.00000  Uiso   1.00
H27    H     0.94616   0.41170   0.35719   0.00000  Uiso   1.00
H28    H     0.77092   0.22953   0.13160   0.00000  Uiso   1.00
H29    H     0.90286   0.00923   0.95363   0.00000  Uiso   1.00
H30    H     0.00835   0.47366   0.23702   0.00000  Uiso   1.00
H31    H     0.91353   0.65642   0.31845   0.00000  Uiso   1.00
H32    H     0.85572   0.63548   0.16823   0.00000  Uiso   1.00
H33    H     0.91829   0.53099   0.55809   0.00000  Uiso   1.00
H34    H     0.96832   0.75124   0.21825   0.00000  Uiso   1.00
H35    H     0.78890   0.69347   0.01883   0.00000  Uiso   1.00
H36    H     0.92085   0.47317   0.84087   0.00000  Uiso   1.00
H37    H     0.02633   0.93761   0.12425   0.00000  Uiso   1.00
O38    O     0.74150   0.95899   0.97881   0.00000  Uiso   1.00
O39    O     0.91461   0.66998   0.05729   0.00000  Uiso   1.00
O40    O     0.05300   0.27931   0.11710   0.00000  Uiso   1.00
N41    N     0.78309   0.10625   0.12565   0.00000  Uiso   1.00
N42    N     0.90644   0.90028   0.89420   0.00000  Uiso   1.00
N43    N     0.00507   0.33448   0.22426   0.00000  Uiso   1.00
N44    N     0.79276   0.81781   0.06497   0.00000  Uiso   1.00
N45    N     0.91612   0.61184   0.83353   0.00000  Uiso   1.00
N46    N     0.01474   0.04604   0.16358   0.00000  Uiso   1.00
C47    C     0.39734   0.63909   0.41997   0.00000  Uiso   1.00
C48    C     0.36822   0.55956   0.32401   0.00000  Uiso   1.00
C49    C     0.33834   0.65335   0.27715   0.00000  Uiso   1.00
C50    C     0.31484   0.55627   0.19004   0.00000  Uiso   1.00
C51    C     0.26867   0.46078   0.04699   0.00000  Uiso   1.00
C52    C     0.40221   0.50278   0.53584   0.00000  Uiso   1.00
C53    C     0.40092   0.54885   0.66706   0.00000  Uiso   1.00
C54    C     0.40603   0.40397   0.75827   0.00000  Uiso   1.00
C55    C     0.41266   0.22036   0.94409   0.00000  Uiso   1.00
C56    C     0.42939   0.62245   0.35118   0.00000  Uiso   1.00
C57    C     0.45095   0.76914   0.32718   0.00000  Uiso   1.00
C58    C     0.47895   0.72500   0.26295   0.00000  Uiso   1.00
C59    C     0.52778   0.72720   0.16206   0.00000  Uiso   1.00
C60    C     0.40872   0.29987   0.34862   0.00000  Uiso   1.00
C61    C     0.37440   0.37531   0.28527   0.00000  Uiso   1.00
C62    C     0.35093   0.27806   0.19820   0.00000  Uiso   1.00
C63    C     0.32103   0.37170   0.15121   0.00000  Uiso   1.00
C64    C     0.40839   0.31854   0.49709   0.00000  Uiso   1.00
C65    C     0.41351   0.17356   0.58812   0.00000  Uiso   1.00
C66    C     0.41222   0.21939   0.71945   0.00000  Uiso   1.00
C67    C     0.43557   0.43821   0.31242   0.00000  Uiso   1.00
C68    C     0.46354   0.39384   0.24823   0.00000  Uiso   1.00
C69    C     0.48514   0.54042   0.22413   0.00000  Uiso   1.00
H70    H     0.39253   0.78252   0.45015   0.00000  Uiso   1.00
H71    H     0.33357   0.79594   0.30717   0.00000  Uiso   1.00
H72    H     0.39614   0.69145   0.69703   0.00000  Uiso   1.00
H73    H     0.44616   0.91170   0.35719   0.00000  Uiso   1.00
H74    H     0.27092   0.72953   0.13160   0.00000  Uiso   1.00
H75    H     0.40286   0.50923   0.95363   0.00000  Uiso   1.00
H76    H     0.50835   0.97366   0.23702   0.00000  Uiso   1.00
H77    H     0.41353   0.15642   0.31845   0.00000  Uiso   1.00
H78    H     0.35572   0.13548   0.16823   0.00000  Uiso   1.00
H79    H     0.41829   0.03099   0.55809   0.00000  Uiso   1.00
H80    H     0.46832   0.25124   0.21825   0.00000  Uiso   1.00
H81    H     0.28890   0.19347   0.01883   0.00000  Uiso   1.00
H82    H     0.42085   0.97317   0.84087   0.00000  Uiso   1.00
H83    H     0.52633   0.43761   0.12425   0.00000  Uiso   1.00
O84    O     0.24150   0.45899   0.97881   0.00000  Uiso   1.00
O85    O     0.41461   0.16998   0.05729   0.00000  Uiso   1.00
O86    O     0.55300   0.77931   0.11710   0.00000  Uiso   1.00
N87    N     0.28309   0.60625   0.12565   0.00000  Uiso   1.00
N88    N     0.40644   0.40028   0.89420   0.00000  Uiso   1.00
N89    N     0.50507   0.83448   0.22426   0.00000  Uiso   1.00
N90    N     0.29276   0.31781   0.06497   0.00000  Uiso   1.00
N91    N     0.41612   0.11184   0.83353   0.00000  Uiso   1.00
N92    N     0.51474   0.54604   0.16358   0.00000  Uiso   1.00
C93    C     0.10266   0.13909   0.58003   0.00000  Uiso   1.00
C94    C     0.13178   0.05956   0.67599   0.00000  Uiso   1.00
C95    C     0.16166   0.15335   0.72285   0.00000  Uiso   1.00
C96    C     0.18516   0.05627   0.80996   0.00000  Uiso   1.00
C97    C     0.23133   0.96078   0.95301   0.00000  Uiso   1.00
C98    C     0.09779   0.00278   0.46416   0.00000  Uiso   1.00
C99    C     0.09908   0.04885   0.33294   0.00000  Uiso   1.00
C100   C     0.09397   0.90397   0.24173   0.00000  Uiso   1.00
C101   C     0.08734   0.72036   0.05591   0.00000  Uiso   1.00
C102   C     0.07061   0.12245   0.64882   0.00000  Uiso   1.00
C103   C     0.04905   0.26914   0.67282   0.00000  Uiso   1.00
C104   C     0.02105   0.22500   0.73705   0.00000  Uiso   1.00
C105   C     0.97222   0.22720   0.83794   0.00000  Uiso   1.00
C106   C     0.09128   0.79987   0.65138   0.00000  Uiso   1.00
C107   C     0.12560   0.87531   0.71473   0.00000  Uiso   1.00
C108   C     0.14907   0.77806   0.80180   0.00000  Uiso   1.00
C109   C     0.17897   0.87170   0.84879   0.00000  Uiso   1.00
C110   C     0.09161   0.81854   0.50291   0.00000  Uiso   1.00
C111   C     0.08649   0.67356   0.41188   0.00000  Uiso   1.00
C112   C     0.08778   0.71939   0.28055   0.00000  Uiso   1.00
C113   C     0.06443   0.93821   0.68758   0.00000  Uiso   1.00
C114   C     0.03646   0.89384   0.75177   0.00000  Uiso   1.00
C115   C     0.01486   0.04042   0.77587   0.00000  Uiso   1.00
H116   H     0.10747   0.28252   0.54985   0.00000  Uiso   1.00
H117   H     0.16643   0.29594   0.69283   0.00000  Uiso   1.00
H118   H     0.10386   0.19145   0.30297   0.00000  Uiso   1.00
H119   H     0.05384   0.41170   0.64281   0.00000  Uiso   1.00
H120   H     0.22908   0.22953   0.86840   0.00000  Uiso   1.00
H121   H     0.09714   0.00923   0.04637   0.00000  Uiso   1.00
H122   H     0.99165   0.47366   0.76298   0.00000  Uiso   1.00
H123   H     0.08647   0.65642   0.68155   0.00000  Uiso   1.00
H124   H     0.14428   0.63548   0.83177   0.00000  Uiso   1.00
H125   H     0.08171   0.53099   0.44191   0.00000  Uiso   1.00
H126   H     0.03168   0.75124   0.78175   0.00000  Uiso   1.00
H127   H     0.21110   0.69347   0.98117   0.00000  Uiso   1.00
H128   H     0.07915   0.47317   0.15913   0.00000  Uiso   1.00
H129   H     0.97367   0.93761   0.87575   0.00000  Uiso   1.00
O130   O     0.25850   0.95899   0.02119   0.00000  Uiso   1.00
O131   O     0.08539   0.66998   0.94271   0.00000  Uiso   1.00
O132   O     0.94700   0.27931   0.88290   0.00000  Uiso   1.00
N133   N     0.21691   0.10625   0.87435   0.00000  Uiso   1.00
N134   N     0.09356   0.90028   0.10580   0.00000  Uiso   1.00
N135   N     0.99493   0.33448   0.77574   0.00000  Uiso   1.00
N136   N     0.20724   0.81781   0.93503   0.00000  Uiso   1.00
N137   N     0.08388   0.61184   0.16647   0.00000  Uiso   1.00
N138   N     0.98526   0.04604   0.83642   0.00000  Uiso   1.00
C139   C     0.60266   0.63909   0.58003   0.00000  Uiso   1.00
C140   C     0.63178   0.55956   0.67599   0.00000  Uiso   1.00
C141   C     0.66166   0.65335   0.72285   0.00000  Uiso   1.00
C142   C     0.68516   0.55627   0.80996   0.00000  Uiso   1.00
C143   C     0.73133   0.46078   0.95301   0.00000  Uiso   1.00
C144   C     0.59779   0.50278   0.46416   0.00000  Uiso   1.00
C145   C     0.59908   0.54885   0.33294   0.00000  Uiso   1.00
C146   C     0.59397   0.40397   0.24173   0.00000  Uiso   1.00
C147   C     0.58734   0.22036   0.05591   0.00000  Uiso   1.00
C148   C     0.57061   0.62245   0.64882   0.00000  Uiso   1.00
C149   C     0.54905   0.76914   0.67282   0.00000  Uiso   1.00
C150   C     0.52105   0.72500   0.73705   0.00000  Uiso   1.00
C151   C     0.47222   0.72720   0.83794   0.00000  Uiso   1.00
C152   C     0.59128   0.29987   0.65138   0.00000  Uiso   1.00
C153   C     0.62560   0.37531   0.71473   0.00000  Uiso   1.00
C154   C     0.64907   0.27806   0.80180   0.00000  Uiso   1.00
C155   C     0.67897   0.37170   0.84879   0.00000  Uiso   1.00
C156   C     0.59161   0.31854   0.50291   0.00000  Uiso   1.00
C157   C     0.58649   0.17356   0.41188   0.00000  Uiso   1.00
C158   C     0.58778   0.21939   0.28055   0.00000  Uiso   1.00
C159   C     0.56443   0.43821   0.68758   0.00000  Uiso   1.00
C160   C     0.53646   0.39384   0.75177   0.00000  Uiso   1.00
C161   C     0.51486   0.54042   0.77587   0.00000  Uiso   1.00
H162   H     0.60747   0.78252   0.54985   0.00000  Uiso   1.00
H163   H     0.66643   0.79594   0.69283   0.00000  Uiso   1.00
H164   H     0.60386   0.69145   0.30297   0.00000  Uiso   1.00
H165   H     0.55384   0.91170   0.64281   0.00000  Uiso   1.00
H166   H     0.72908   0.72953   0.86840   0.00000  Uiso   1.00
H167   H     0.59714   0.50923   0.04637   0.00000  Uiso   1.00
H168   H     0.49165   0.97366   0.76298   0.00000  Uiso   1.00
H169   H     0.58647   0.15642   0.68155   0.00000  Uiso   1.00
H170   H     0.64428   0.13548   0.83177   0.00000  Uiso   1.00
H171   H     0.58171   0.03099   0.44191   0.00000  Uiso   1.00
H172   H     0.53168   0.25124   0.78175   0.00000  Uiso   1.00
H173   H     0.71110   0.19347   0.98117   0.00000  Uiso   1.00
H174   H     0.57915   0.97317   0.15913   0.00000  Uiso   1.00
H175   H     0.47367   0.43761   0.87575   0.00000  Uiso   1.00
O176   O     0.75850   0.45899   0.02119   0.00000  Uiso   1.00
O177   O     0.58539   0.16998   0.94271   0.00000  Uiso   1.00
O178   O     0.44700   0.77931   0.88290   0.00000  Uiso   1.00
N179   N     0.71691   0.60625   0.87435   0.00000  Uiso   1.00
N180   N     0.59356   0.40028   0.10580   0.00000  Uiso   1.00
N181   N     0.49493   0.83448   0.77574   0.00000  Uiso   1.00
N182   N     0.70724   0.31781   0.93503   0.00000  Uiso   1.00
N183   N     0.58388   0.11184   0.16647   0.00000  Uiso   1.00
N184   N     0.48526   0.54604   0.83642   0.00000  Uiso   1.00
