data_job_03186
_audit_creation_date              2018-12-19
_audit_creation_method            'Materials Studio'
_symmetry_space_group_name_H-M    'P1'
_symmetry_Int_Tables_number       1
_symmetry_cell_setting            triclinic
loop_
_symmetry_equiv_pos_as_xyz
  x,y,z
_cell_length_a                    21.2450
_cell_length_b                    12.5899
_cell_length_c                    23.6021
_cell_angle_alpha                 90.0000
_cell_angle_beta                  90.0000
_cell_angle_gamma                 90.0000
loop_
_atom_site_label
_atom_site_type_symbol
_atom_site_fract_x
_atom_site_fract_y
_atom_site_fract_z
_atom_site_U_iso_or_equiv
_atom_site_adp_type
_atom_site_occupancy
C1     C     0.87145   0.01450   0.89748   0.00000  Uiso   1.00
C2     C     0.83883   0.06351   0.94875   0.00000  Uiso   1.00
C3     C     0.85025   0.16404   0.97057   0.00000  Uiso   1.00
C4     C     0.81552   0.19418   0.01773   0.00000  Uiso   1.00
C5     C     0.77167   0.28061   0.09365   0.00000  Uiso   1.00
C6     C     0.90019   0.91046   0.91811   0.00000  Uiso   1.00
C7     C     0.96319   0.88231   0.91414   0.00000  Uiso   1.00
C8     C     0.98011   0.78360   0.93550   0.00000  Uiso   1.00
C9     C     0.03151   0.63238   0.96380   0.00000  Uiso   1.00
C10    C     0.81914   0.98369   0.85641   0.00000  Uiso   1.00
C11    C     0.81401   0.01707   0.80056   0.00000  Uiso   1.00
C12    C     0.76270   0.97999   0.76996   0.00000  Uiso   1.00
C13    C     0.68827   0.94247   0.70246   0.00000  Uiso   1.00
C14    C     0.78945   0.88925   0.94245   0.00000  Uiso   1.00
C15    C     0.79430   0.99548   0.97318   0.00000  Uiso   1.00
C16    C     0.75953   0.02547   0.02032   0.00000  Uiso   1.00
C17    C     0.77090   0.12603   0.04220   0.00000  Uiso   1.00
C18    C     0.85565   0.84243   0.94253   0.00000  Uiso   1.00
C19    C     0.87248   0.74373   0.96390   0.00000  Uiso   1.00
C20    C     0.93549   0.71544   0.95997   0.00000  Uiso   1.00
C21    C     0.77461   0.91565   0.88083   0.00000  Uiso   1.00
C22    C     0.72329   0.87850   0.85031   0.00000  Uiso   1.00
C23    C     0.71808   0.91183   0.79443   0.00000  Uiso   1.00
H24    H     0.90612   0.06746   0.87847   0.00000  Uiso   1.00
H25    H     0.88472   0.21667   0.95166   0.00000  Uiso   1.00
H26    H     0.99765   0.93497   0.89523   0.00000  Uiso   1.00
H27    H     0.84849   0.06972   0.78167   0.00000  Uiso   1.00
H28    H     0.84137   0.35207   0.04359   0.00000  Uiso   1.00
H29    H     0.07947   0.75808   0.92460   0.00000  Uiso   1.00
H30    H     0.76494   0.04223   0.68512   0.00000  Uiso   1.00
H31    H     0.75478   0.83628   0.96147   0.00000  Uiso   1.00
H32    H     0.72507   0.97280   0.03922   0.00000  Uiso   1.00
H33    H     0.83800   0.69110   0.98279   0.00000  Uiso   1.00
H34    H     0.68884   0.82585   0.86923   0.00000  Uiso   1.00
H35    H     0.71180   0.15414   0.11465   0.00000  Uiso   1.00
H36    H     0.94990   0.56015   0.99566   0.00000  Uiso   1.00
H37    H     0.63537   0.84430   0.75619   0.00000  Uiso   1.00
O38    O     0.75979   0.34707   0.12878   0.00000  Uiso   1.00
O39    O     0.07216   0.56778   0.97266   0.00000  Uiso   1.00
O40    O     0.65951   0.94058   0.65848   0.00000  Uiso   1.00
N41    N     0.81495   0.28676   0.04964   0.00000  Uiso   1.00
N42    N     0.03756   0.73142   0.93840   0.00000  Uiso   1.00
N43    N     0.74351   0.99705   0.71450   0.00000  Uiso   1.00
N44    N     0.74522   0.18026   0.08788   0.00000  Uiso   1.00
N45    N     0.96783   0.62492   0.97664   0.00000  Uiso   1.00
N46    N     0.67378   0.89055   0.75275   0.00000  Uiso   1.00
C47    C     0.62855   0.48550   0.39748   0.00000  Uiso   1.00
C48    C     0.66117   0.43649   0.44875   0.00000  Uiso   1.00
C49    C     0.64975   0.33596   0.47057   0.00000  Uiso   1.00
C50    C     0.68448   0.30582   0.51773   0.00000  Uiso   1.00
C51    C     0.72833   0.21939   0.59365   0.00000  Uiso   1.00
C52    C     0.59981   0.58954   0.41811   0.00000  Uiso   1.00
C53    C     0.53681   0.61769   0.41414   0.00000  Uiso   1.00
C54    C     0.51989   0.71640   0.43550   0.00000  Uiso   1.00
C55    C     0.46849   0.86762   0.46380   0.00000  Uiso   1.00
C56    C     0.68086   0.51631   0.35641   0.00000  Uiso   1.00
C57    C     0.68599   0.48293   0.30056   0.00000  Uiso   1.00
C58    C     0.73730   0.52001   0.26996   0.00000  Uiso   1.00
C59    C     0.81173   0.55753   0.20246   0.00000  Uiso   1.00
C60    C     0.71055   0.61075   0.44245   0.00000  Uiso   1.00
C61    C     0.70570   0.50452   0.47318   0.00000  Uiso   1.00
C62    C     0.74047   0.47453   0.52032   0.00000  Uiso   1.00
C63    C     0.72910   0.37397   0.54220   0.00000  Uiso   1.00
C64    C     0.64435   0.65757   0.44253   0.00000  Uiso   1.00
C65    C     0.62752   0.75627   0.46390   0.00000  Uiso   1.00
C66    C     0.56451   0.78456   0.45997   0.00000  Uiso   1.00
C67    C     0.72539   0.58435   0.38083   0.00000  Uiso   1.00
C68    C     0.77671   0.62150   0.35031   0.00000  Uiso   1.00
C69    C     0.78192   0.58817   0.29443   0.00000  Uiso   1.00
H70    H     0.59388   0.43254   0.37847   0.00000  Uiso   1.00
H71    H     0.61528   0.28333   0.45166   0.00000  Uiso   1.00
H72    H     0.50235   0.56503   0.39523   0.00000  Uiso   1.00
H73    H     0.65151   0.43028   0.28167   0.00000  Uiso   1.00
H74    H     0.65863   0.14793   0.54359   0.00000  Uiso   1.00
H75    H     0.42053   0.74192   0.42460   0.00000  Uiso   1.00
H76    H     0.73506   0.45777   0.18512   0.00000  Uiso   1.00
H77    H     0.74522   0.66372   0.46147   0.00000  Uiso   1.00
H78    H     0.77493   0.52720   0.53922   0.00000  Uiso   1.00
H79    H     0.66200   0.80890   0.48279   0.00000  Uiso   1.00
H80    H     0.81116   0.67415   0.36923   0.00000  Uiso   1.00
H81    H     0.78820   0.34586   0.61465   0.00000  Uiso   1.00
H82    H     0.55010   0.93985   0.49566   0.00000  Uiso   1.00
H83    H     0.86463   0.65570   0.25619   0.00000  Uiso   1.00
O84    O     0.74021   0.15293   0.62878   0.00000  Uiso   1.00
O85    O     0.42784   0.93222   0.47266   0.00000  Uiso   1.00
O86    O     0.84049   0.55942   0.15848   0.00000  Uiso   1.00
N87    N     0.68505   0.21324   0.54964   0.00000  Uiso   1.00
N88    N     0.46244   0.76858   0.43840   0.00000  Uiso   1.00
N89    N     0.75649   0.50295   0.21450   0.00000  Uiso   1.00
N90    N     0.75478   0.31974   0.58788   0.00000  Uiso   1.00
N91    N     0.53217   0.87508   0.47664   0.00000  Uiso   1.00
N92    N     0.82622   0.60945   0.25275   0.00000  Uiso   1.00
C93    C     0.12855   0.01450   0.60252   0.00000  Uiso   1.00
C94    C     0.16117   0.06351   0.55125   0.00000  Uiso   1.00
C95    C     0.14975   0.16404   0.52943   0.00000  Uiso   1.00
C96    C     0.18448   0.19418   0.48227   0.00000  Uiso   1.00
C97    C     0.22833   0.28061   0.40635   0.00000  Uiso   1.00
C98    C     0.09981   0.91046   0.58189   0.00000  Uiso   1.00
C99    C     0.03681   0.88231   0.58586   0.00000  Uiso   1.00
C100   C     0.01989   0.78360   0.56450   0.00000  Uiso   1.00
C101   C     0.96849   0.63238   0.53620   0.00000  Uiso   1.00
C102   C     0.18086   0.98369   0.64359   0.00000  Uiso   1.00
C103   C     0.18599   0.01707   0.69944   0.00000  Uiso   1.00
C104   C     0.23730   0.97999   0.73004   0.00000  Uiso   1.00
C105   C     0.31173   0.94247   0.79754   0.00000  Uiso   1.00
C106   C     0.21055   0.88925   0.55755   0.00000  Uiso   1.00
C107   C     0.20570   0.99548   0.52682   0.00000  Uiso   1.00
C108   C     0.24047   0.02547   0.47968   0.00000  Uiso   1.00
C109   C     0.22910   0.12603   0.45780   0.00000  Uiso   1.00
C110   C     0.14435   0.84243   0.55747   0.00000  Uiso   1.00
C111   C     0.12752   0.74373   0.53610   0.00000  Uiso   1.00
C112   C     0.06451   0.71544   0.54003   0.00000  Uiso   1.00
C113   C     0.22539   0.91565   0.61917   0.00000  Uiso   1.00
C114   C     0.27671   0.87850   0.64969   0.00000  Uiso   1.00
C115   C     0.28192   0.91183   0.70557   0.00000  Uiso   1.00
H116   H     0.09388   0.06746   0.62153   0.00000  Uiso   1.00
H117   H     0.11528   0.21667   0.54834   0.00000  Uiso   1.00
H118   H     0.00235   0.93497   0.60477   0.00000  Uiso   1.00
H119   H     0.15151   0.06972   0.71833   0.00000  Uiso   1.00
H120   H     0.15863   0.35207   0.45641   0.00000  Uiso   1.00
H121   H     0.92053   0.75808   0.57540   0.00000  Uiso   1.00
H122   H     0.23506   0.04223   0.81488   0.00000  Uiso   1.00
H123   H     0.24522   0.83628   0.53853   0.00000  Uiso   1.00
H124   H     0.27493   0.97280   0.46078   0.00000  Uiso   1.00
H125   H     0.16200   0.69110   0.51721   0.00000  Uiso   1.00
H126   H     0.31116   0.82585   0.63077   0.00000  Uiso   1.00
H127   H     0.28820   0.15414   0.38535   0.00000  Uiso   1.00
H128   H     0.05010   0.56015   0.50434   0.00000  Uiso   1.00
H129   H     0.36463   0.84430   0.74381   0.00000  Uiso   1.00
O130   O     0.24021   0.34707   0.37122   0.00000  Uiso   1.00
O131   O     0.92784   0.56778   0.52734   0.00000  Uiso   1.00
O132   O     0.34049   0.94058   0.84152   0.00000  Uiso   1.00
N133   N     0.18505   0.28676   0.45036   0.00000  Uiso   1.00
N134   N     0.96244   0.73142   0.56160   0.00000  Uiso   1.00
N135   N     0.25649   0.99705   0.78550   0.00000  Uiso   1.00
N136   N     0.25478   0.18026   0.41212   0.00000  Uiso   1.00
N137   N     0.03217   0.62492   0.52336   0.00000  Uiso   1.00
N138   N     0.32622   0.89055   0.74725   0.00000  Uiso   1.00
C139   C     0.37145   0.48550   0.10252   0.00000  Uiso   1.00
C140   C     0.33883   0.43649   0.05125   0.00000  Uiso   1.00
C141   C     0.35025   0.33596   0.02943   0.00000  Uiso   1.00
C142   C     0.31552   0.30582   0.98227   0.00000  Uiso   1.00
C143   C     0.27167   0.21939   0.90635   0.00000  Uiso   1.00
C144   C     0.40019   0.58954   0.08189   0.00000  Uiso   1.00
C145   C     0.46319   0.61769   0.08586   0.00000  Uiso   1.00
C146   C     0.48011   0.71640   0.06450   0.00000  Uiso   1.00
C147   C     0.53151   0.86762   0.03620   0.00000  Uiso   1.00
C148   C     0.31914   0.51631   0.14359   0.00000  Uiso   1.00
C149   C     0.31401   0.48293   0.19944   0.00000  Uiso   1.00
C150   C     0.26270   0.52001   0.23004   0.00000  Uiso   1.00
C151   C     0.18827   0.55753   0.29754   0.00000  Uiso   1.00
C152   C     0.28945   0.61075   0.05755   0.00000  Uiso   1.00
C153   C     0.29430   0.50452   0.02682   0.00000  Uiso   1.00
C154   C     0.25953   0.47453   0.97968   0.00000  Uiso   1.00
C155   C     0.27090   0.37397   0.95780   0.00000  Uiso   1.00
C156   C     0.35565   0.65757   0.05747   0.00000  Uiso   1.00
C157   C     0.37248   0.75627   0.03610   0.00000  Uiso   1.00
C158   C     0.43549   0.78456   0.04003   0.00000  Uiso   1.00
C159   C     0.27461   0.58435   0.11917   0.00000  Uiso   1.00
C160   C     0.22329   0.62150   0.14969   0.00000  Uiso   1.00
C161   C     0.21808   0.58817   0.20557   0.00000  Uiso   1.00
H162   H     0.40612   0.43254   0.12153   0.00000  Uiso   1.00
H163   H     0.38472   0.28333   0.04834   0.00000  Uiso   1.00
H164   H     0.49765   0.56503   0.10477   0.00000  Uiso   1.00
H165   H     0.34849   0.43028   0.21833   0.00000  Uiso   1.00
H166   H     0.34137   0.14793   0.95641   0.00000  Uiso   1.00
H167   H     0.57947   0.74192   0.07540   0.00000  Uiso   1.00
H168   H     0.26494   0.45777   0.31488   0.00000  Uiso   1.00
H169   H     0.25478   0.66372   0.03853   0.00000  Uiso   1.00
H170   H     0.22507   0.52720   0.96078   0.00000  Uiso   1.00
H171   H     0.33800   0.80890   0.01721   0.00000  Uiso   1.00
H172   H     0.18884   0.67415   0.13077   0.00000  Uiso   1.00
H173   H     0.21180   0.34586   0.88535   0.00000  Uiso   1.00
H174   H     0.44990   0.93985   0.00434   0.00000  Uiso   1.00
H175   H     0.13537   0.65570   0.24381   0.00000  Uiso   1.00
O176   O     0.25979   0.15293   0.87122   0.00000  Uiso   1.00
O177   O     0.57216   0.93222   0.02734   0.00000  Uiso   1.00
O178   O     0.15951   0.55942   0.34152   0.00000  Uiso   1.00
N179   N     0.31495   0.21324   0.95036   0.00000  Uiso   1.00
N180   N     0.53756   0.76858   0.06160   0.00000  Uiso   1.00
N181   N     0.24351   0.50295   0.28550   0.00000  Uiso   1.00
N182   N     0.24522   0.31974   0.91212   0.00000  Uiso   1.00
N183   N     0.46783   0.87508   0.02336   0.00000  Uiso   1.00
N184   N     0.17378   0.60945   0.24725   0.00000  Uiso   1.00
C185   C     0.12855   0.98550   0.10252   0.00000  Uiso   1.00
C186   C     0.16117   0.93649   0.05125   0.00000  Uiso   1.00
C187   C     0.14975   0.83596   0.02943   0.00000  Uiso   1.00
C188   C     0.18448   0.80582   0.98227   0.00000  Uiso   1.00
C189   C     0.22833   0.71939   0.90635   0.00000  Uiso   1.00
C190   C     0.09981   0.08954   0.08189   0.00000  Uiso   1.00
C191   C     0.03681   0.11769   0.08586   0.00000  Uiso   1.00
C192   C     0.01989   0.21640   0.06450   0.00000  Uiso   1.00
C193   C     0.96849   0.36762   0.03620   0.00000  Uiso   1.00
C194   C     0.18086   0.01631   0.14359   0.00000  Uiso   1.00
C195   C     0.18599   0.98293   0.19944   0.00000  Uiso   1.00
C196   C     0.23730   0.02001   0.23004   0.00000  Uiso   1.00
C197   C     0.31173   0.05753   0.29754   0.00000  Uiso   1.00
C198   C     0.21055   0.11075   0.05755   0.00000  Uiso   1.00
C199   C     0.20570   0.00452   0.02682   0.00000  Uiso   1.00
C200   C     0.24047   0.97453   0.97968   0.00000  Uiso   1.00
C201   C     0.22910   0.87397   0.95780   0.00000  Uiso   1.00
C202   C     0.14435   0.15757   0.05747   0.00000  Uiso   1.00
C203   C     0.12752   0.25627   0.03610   0.00000  Uiso   1.00
C204   C     0.06451   0.28456   0.04003   0.00000  Uiso   1.00
C205   C     0.22539   0.08435   0.11917   0.00000  Uiso   1.00
C206   C     0.27671   0.12150   0.14969   0.00000  Uiso   1.00
C207   C     0.28192   0.08817   0.20557   0.00000  Uiso   1.00
H208   H     0.09388   0.93254   0.12153   0.00000  Uiso   1.00
H209   H     0.11528   0.78333   0.04834   0.00000  Uiso   1.00
H210   H     0.00235   0.06503   0.10477   0.00000  Uiso   1.00
H211   H     0.15151   0.93028   0.21833   0.00000  Uiso   1.00
H212   H     0.15863   0.64793   0.95641   0.00000  Uiso   1.00
H213   H     0.92053   0.24192   0.07540   0.00000  Uiso   1.00
H214   H     0.23506   0.95777   0.31488   0.00000  Uiso   1.00
H215   H     0.24522   0.16372   0.03853   0.00000  Uiso   1.00
H216   H     0.27493   0.02720   0.96078   0.00000  Uiso   1.00
H217   H     0.16200   0.30890   0.01721   0.00000  Uiso   1.00
H218   H     0.31116   0.17415   0.13077   0.00000  Uiso   1.00
H219   H     0.28820   0.84586   0.88535   0.00000  Uiso   1.00
H220   H     0.05010   0.43985   0.00434   0.00000  Uiso   1.00
H221   H     0.36463   0.15570   0.24381   0.00000  Uiso   1.00
O222   O     0.24021   0.65293   0.87122   0.00000  Uiso   1.00
O223   O     0.92784   0.43222   0.02734   0.00000  Uiso   1.00
O224   O     0.34049   0.05942   0.34152   0.00000  Uiso   1.00
N225   N     0.18505   0.71324   0.95036   0.00000  Uiso   1.00
N226   N     0.96244   0.26858   0.06160   0.00000  Uiso   1.00
N227   N     0.25649   0.00295   0.28550   0.00000  Uiso   1.00
N228   N     0.25478   0.81974   0.91212   0.00000  Uiso   1.00
N229   N     0.03217   0.37508   0.02336   0.00000  Uiso   1.00
N230   N     0.32622   0.10945   0.24725   0.00000  Uiso   1.00
C231   C     0.37145   0.51450   0.60252   0.00000  Uiso   1.00
C232   C     0.33883   0.56351   0.55125   0.00000  Uiso   1.00
C233   C     0.35025   0.66404   0.52943   0.00000  Uiso   1.00
C234   C     0.31552   0.69418   0.48227   0.00000  Uiso   1.00
C235   C     0.27167   0.78061   0.40635   0.00000  Uiso   1.00
C236   C     0.40019   0.41046   0.58189   0.00000  Uiso   1.00
C237   C     0.46319   0.38231   0.58586   0.00000  Uiso   1.00
C238   C     0.48011   0.28360   0.56450   0.00000  Uiso   1.00
C239   C     0.53151   0.13238   0.53620   0.00000  Uiso   1.00
C240   C     0.31914   0.48369   0.64359   0.00000  Uiso   1.00
C241   C     0.31401   0.51707   0.69944   0.00000  Uiso   1.00
C242   C     0.26270   0.47999   0.73004   0.00000  Uiso   1.00
C243   C     0.18827   0.44247   0.79754   0.00000  Uiso   1.00
C244   C     0.28945   0.38925   0.55755   0.00000  Uiso   1.00
C245   C     0.29430   0.49548   0.52682   0.00000  Uiso   1.00
C246   C     0.25953   0.52547   0.47968   0.00000  Uiso   1.00
C247   C     0.27090   0.62603   0.45780   0.00000  Uiso   1.00
C248   C     0.35565   0.34243   0.55747   0.00000  Uiso   1.00
C249   C     0.37248   0.24373   0.53610   0.00000  Uiso   1.00
C250   C     0.43549   0.21544   0.54003   0.00000  Uiso   1.00
C251   C     0.27461   0.41565   0.61917   0.00000  Uiso   1.00
C252   C     0.22329   0.37850   0.64969   0.00000  Uiso   1.00
C253   C     0.21808   0.41183   0.70557   0.00000  Uiso   1.00
H254   H     0.40612   0.56746   0.62153   0.00000  Uiso   1.00
H255   H     0.38472   0.71667   0.54834   0.00000  Uiso   1.00
H256   H     0.49765   0.43497   0.60477   0.00000  Uiso   1.00
H257   H     0.34849   0.56972   0.71833   0.00000  Uiso   1.00
H258   H     0.34137   0.85207   0.45641   0.00000  Uiso   1.00
H259   H     0.57947   0.25808   0.57540   0.00000  Uiso   1.00
H260   H     0.26494   0.54223   0.81488   0.00000  Uiso   1.00
H261   H     0.25478   0.33628   0.53853   0.00000  Uiso   1.00
H262   H     0.22507   0.47280   0.46078   0.00000  Uiso   1.00
H263   H     0.33800   0.19110   0.51721   0.00000  Uiso   1.00
H264   H     0.18884   0.32585   0.63077   0.00000  Uiso   1.00
H265   H     0.21180   0.65414   0.38535   0.00000  Uiso   1.00
H266   H     0.44990   0.06015   0.50434   0.00000  Uiso   1.00
H267   H     0.13537   0.34430   0.74381   0.00000  Uiso   1.00
O268   O     0.25979   0.84707   0.37122   0.00000  Uiso   1.00
O269   O     0.57216   0.06778   0.52734   0.00000  Uiso   1.00
O270   O     0.15951   0.44058   0.84152   0.00000  Uiso   1.00
N271   N     0.31495   0.78676   0.45036   0.00000  Uiso   1.00
N272   N     0.53756   0.23142   0.56160   0.00000  Uiso   1.00
N273   N     0.24351   0.49705   0.78550   0.00000  Uiso   1.00
N274   N     0.24522   0.68026   0.41212   0.00000  Uiso   1.00
N275   N     0.46783   0.12492   0.52336   0.00000  Uiso   1.00
N276   N     0.17378   0.39055   0.74725   0.00000  Uiso   1.00
C277   C     0.87145   0.98550   0.39748   0.00000  Uiso   1.00
C278   C     0.83883   0.93649   0.44875   0.00000  Uiso   1.00
C279   C     0.85025   0.83596   0.47057   0.00000  Uiso   1.00
C280   C     0.81552   0.80582   0.51773   0.00000  Uiso   1.00
C281   C     0.77167   0.71939   0.59365   0.00000  Uiso   1.00
C282   C     0.90019   0.08954   0.41811   0.00000  Uiso   1.00
C283   C     0.96319   0.11769   0.41414   0.00000  Uiso   1.00
C284   C     0.98011   0.21640   0.43550   0.00000  Uiso   1.00
C285   C     0.03151   0.36762   0.46380   0.00000  Uiso   1.00
C286   C     0.81914   0.01631   0.35641   0.00000  Uiso   1.00
C287   C     0.81401   0.98293   0.30056   0.00000  Uiso   1.00
C288   C     0.76270   0.02001   0.26996   0.00000  Uiso   1.00
C289   C     0.68827   0.05753   0.20246   0.00000  Uiso   1.00
C290   C     0.78945   0.11075   0.44245   0.00000  Uiso   1.00
C291   C     0.79430   0.00452   0.47318   0.00000  Uiso   1.00
C292   C     0.75953   0.97453   0.52032   0.00000  Uiso   1.00
C293   C     0.77090   0.87397   0.54220   0.00000  Uiso   1.00
C294   C     0.85565   0.15757   0.44253   0.00000  Uiso   1.00
C295   C     0.87248   0.25627   0.46390   0.00000  Uiso   1.00
C296   C     0.93549   0.28456   0.45997   0.00000  Uiso   1.00
C297   C     0.77461   0.08435   0.38083   0.00000  Uiso   1.00
C298   C     0.72329   0.12150   0.35031   0.00000  Uiso   1.00
C299   C     0.71808   0.08817   0.29443   0.00000  Uiso   1.00
H300   H     0.90612   0.93254   0.37847   0.00000  Uiso   1.00
H301   H     0.88472   0.78333   0.45166   0.00000  Uiso   1.00
H302   H     0.99765   0.06503   0.39523   0.00000  Uiso   1.00
H303   H     0.84849   0.93028   0.28167   0.00000  Uiso   1.00
H304   H     0.84137   0.64793   0.54359   0.00000  Uiso   1.00
H305   H     0.07947   0.24192   0.42460   0.00000  Uiso   1.00
H306   H     0.76494   0.95777   0.18512   0.00000  Uiso   1.00
H307   H     0.75478   0.16372   0.46147   0.00000  Uiso   1.00
H308   H     0.72507   0.02720   0.53922   0.00000  Uiso   1.00
H309   H     0.83800   0.30890   0.48279   0.00000  Uiso   1.00
H310   H     0.68884   0.17415   0.36923   0.00000  Uiso   1.00
H311   H     0.71180   0.84586   0.61465   0.00000  Uiso   1.00
H312   H     0.94990   0.43985   0.49566   0.00000  Uiso   1.00
H313   H     0.63537   0.15570   0.25619   0.00000  Uiso   1.00
O314   O     0.75979   0.65293   0.62878   0.00000  Uiso   1.00
O315   O     0.07216   0.43222   0.47266   0.00000  Uiso   1.00
O316   O     0.65951   0.05942   0.15848   0.00000  Uiso   1.00
N317   N     0.81495   0.71324   0.54964   0.00000  Uiso   1.00
N318   N     0.03756   0.26858   0.43840   0.00000  Uiso   1.00
N319   N     0.74351   0.00295   0.21450   0.00000  Uiso   1.00
N320   N     0.74522   0.81974   0.58788   0.00000  Uiso   1.00
N321   N     0.96783   0.37508   0.47664   0.00000  Uiso   1.00
N322   N     0.67378   0.10945   0.25275   0.00000  Uiso   1.00
C323   C     0.62855   0.51450   0.89748   0.00000  Uiso   1.00
C324   C     0.66117   0.56351   0.94875   0.00000  Uiso   1.00
C325   C     0.64975   0.66404   0.97057   0.00000  Uiso   1.00
C326   C     0.68448   0.69418   0.01773   0.00000  Uiso   1.00
C327   C     0.72833   0.78061   0.09365   0.00000  Uiso   1.00
C328   C     0.59981   0.41046   0.91811   0.00000  Uiso   1.00
C329   C     0.53681   0.38231   0.91414   0.00000  Uiso   1.00
C330   C     0.51989   0.28360   0.93550   0.00000  Uiso   1.00
C331   C     0.46849   0.13238   0.96380   0.00000  Uiso   1.00
C332   C     0.68086   0.48369   0.85641   0.00000  Uiso   1.00
C333   C     0.68599   0.51707   0.80056   0.00000  Uiso   1.00
C334   C     0.73730   0.47999   0.76996   0.00000  Uiso   1.00
C335   C     0.81173   0.44247   0.70246   0.00000  Uiso   1.00
C336   C     0.71055   0.38925   0.94245   0.00000  Uiso   1.00
C337   C     0.70570   0.49548   0.97318   0.00000  Uiso   1.00
C338   C     0.74047   0.52547   0.02032   0.00000  Uiso   1.00
C339   C     0.72910   0.62603   0.04220   0.00000  Uiso   1.00
C340   C     0.64435   0.34243   0.94253   0.00000  Uiso   1.00
C341   C     0.62752   0.24373   0.96390   0.00000  Uiso   1.00
C342   C     0.56451   0.21544   0.95997   0.00000  Uiso   1.00
C343   C     0.72539   0.41565   0.88083   0.00000  Uiso   1.00
C344   C     0.77671   0.37850   0.85031   0.00000  Uiso   1.00
C345   C     0.78192   0.41183   0.79443   0.00000  Uiso   1.00
H346   H     0.59388   0.56746   0.87847   0.00000  Uiso   1.00
H347   H     0.61528   0.71667   0.95166   0.00000  Uiso   1.00
H348   H     0.50235   0.43497   0.89523   0.00000  Uiso   1.00
H349   H     0.65151   0.56972   0.78167   0.00000  Uiso   1.00
H350   H     0.65863   0.85207   0.04359   0.00000  Uiso   1.00
H351   H     0.42053   0.25808   0.92460   0.00000  Uiso   1.00
H352   H     0.73506   0.54223   0.68512   0.00000  Uiso   1.00
H353   H     0.74522   0.33628   0.96147   0.00000  Uiso   1.00
H354   H     0.77493   0.47280   0.03922   0.00000  Uiso   1.00
H355   H     0.66200   0.19110   0.98279   0.00000  Uiso   1.00
H356   H     0.81116   0.32585   0.86923   0.00000  Uiso   1.00
H357   H     0.78820   0.65414   0.11465   0.00000  Uiso   1.00
H358   H     0.55010   0.06015   0.99566   0.00000  Uiso   1.00
H359   H     0.86463   0.34430   0.75619   0.00000  Uiso   1.00
O360   O     0.74021   0.84707   0.12878   0.00000  Uiso   1.00
O361   O     0.42784   0.06778   0.97266   0.00000  Uiso   1.00
O362   O     0.84049   0.44058   0.65848   0.00000  Uiso   1.00
N363   N     0.68505   0.78676   0.04964   0.00000  Uiso   1.00
N364   N     0.46244   0.23142   0.93840   0.00000  Uiso   1.00
N365   N     0.75649   0.49705   0.71450   0.00000  Uiso   1.00
N366   N     0.75478   0.68026   0.08788   0.00000  Uiso   1.00
N367   N     0.53217   0.12492   0.97664   0.00000  Uiso   1.00
N368   N     0.82622   0.39055   0.75275   0.00000  Uiso   1.00
