data_job_01468
_audit_creation_date              2018-12-19
_audit_creation_method            'Materials Studio'
_symmetry_space_group_name_H-M    'P1'
_symmetry_Int_Tables_number       1
_symmetry_cell_setting            triclinic
loop_
_symmetry_equiv_pos_as_xyz
  x,y,z
_cell_length_a                    7.4687
_cell_length_b                    14.8424
_cell_length_c                    23.7347
_cell_angle_alpha                 90.0000
_cell_angle_beta                  102.8010
_cell_angle_gamma                 90.0000
loop_
_atom_site_label
_atom_site_type_symbol
_atom_site_fract_x
_atom_site_fract_y
_atom_site_fract_z
_atom_site_U_iso_or_equiv
_atom_site_adp_type
_atom_site_occupancy
C1     C     0.66227   0.61449   0.23438   0.00000  Uiso   1.00
C2     C     0.47689   0.56721   0.21721   0.00000  Uiso   1.00
C3     C     0.44466   0.48494   0.18901   0.00000  Uiso   1.00
C4     C     0.26541   0.45311   0.17712   0.00000  Uiso   1.00
C5     C     0.99912   0.37230   0.14804   0.00000  Uiso   1.00
C6     C     0.63540   0.70749   0.20648   0.00000  Uiso   1.00
C7     C     0.73646   0.74317   0.16926   0.00000  Uiso   1.00
C8     C     0.69065   0.82944   0.14835   0.00000  Uiso   1.00
C9     C     0.67054   0.96645   0.10264   0.00000  Uiso   1.00
C10    C     0.69564   0.63029   0.29936   0.00000  Uiso   1.00
C11    C     0.84738   0.60109   0.34023   0.00000  Uiso   1.00
C12    C     0.85231   0.62239   0.39752   0.00000  Uiso   1.00
C13    C     0.92573   0.63953   0.49601   0.00000  Uiso   1.00
C14    C     0.40126   0.70427   0.26344   0.00000  Uiso   1.00
C15    C     0.33512   0.61598   0.23300   0.00000  Uiso   1.00
C16    C     0.15588   0.58427   0.22116   0.00000  Uiso   1.00
C17    C     0.12338   0.50196   0.19294   0.00000  Uiso   1.00
C18    C     0.49363   0.75626   0.22226   0.00000  Uiso   1.00
C19    C     0.44768   0.84250   0.20141   0.00000  Uiso   1.00
C20    C     0.54863   0.87830   0.16416   0.00000  Uiso   1.00
C21    C     0.55387   0.67906   0.31514   0.00000  Uiso   1.00
C22    C     0.55858   0.70042   0.37238   0.00000  Uiso   1.00
C23    C     0.71029   0.67124   0.41333   0.00000  Uiso   1.00
H24    H     0.77265   0.57653   0.22209   0.00000  Uiso   1.00
H25    H     0.55441   0.44722   0.17679   0.00000  Uiso   1.00
H26    H     0.84617   0.70542   0.15706   0.00000  Uiso   1.00
H27    H     0.95706   0.56335   0.32800   0.00000  Uiso   1.00
H28    H     0.24992   0.32538   0.13351   0.00000  Uiso   1.00
H29    H     0.86516   0.86982   0.09191   0.00000  Uiso   1.00
H30    H     0.09900   0.57025   0.45238   0.00000  Uiso   1.00
H31    H     0.29088   0.74224   0.27573   0.00000  Uiso   1.00
H32    H     0.04619   0.62202   0.23338   0.00000  Uiso   1.00
H33    H     0.33796   0.88022   0.21364   0.00000  Uiso   1.00
H34    H     0.44885   0.73815   0.38458   0.00000  Uiso   1.00
H35    H     0.83743   0.46726   0.17943   0.00000  Uiso   1.00
H36    H     0.45268   0.01170   0.13783   0.00000  Uiso   1.00
H37    H     0.68651   0.71212   0.49830   0.00000  Uiso   1.00
O38    O     0.89139   0.31426   0.12763   0.00000  Uiso   1.00
O39    O     0.69860   0.02855   0.07306   0.00000  Uiso   1.00
O40    O     0.00538   0.63551   0.54598   0.00000  Uiso   1.00
N41    N     0.18642   0.37526   0.15014   0.00000  Uiso   1.00
N42    N     0.76162   0.88427   0.11124   0.00000  Uiso   1.00
N43    N     0.98026   0.60422   0.44824   0.00000  Uiso   1.00
N44    N     0.96447   0.45160   0.17485   0.00000  Uiso   1.00
N45    N     0.53967   0.96062   0.13595   0.00000  Uiso   1.00
N46    N     0.75831   0.68056   0.47296   0.00000  Uiso   1.00
C47    C     0.33773   0.11449   0.26562   0.00000  Uiso   1.00
C48    C     0.52311   0.06721   0.28279   0.00000  Uiso   1.00
C49    C     0.55534   0.98494   0.31099   0.00000  Uiso   1.00
C50    C     0.73459   0.95311   0.32288   0.00000  Uiso   1.00
C51    C     0.00088   0.87230   0.35196   0.00000  Uiso   1.00
C52    C     0.36460   0.20749   0.29352   0.00000  Uiso   1.00
C53    C     0.26354   0.24317   0.33074   0.00000  Uiso   1.00
C54    C     0.30935   0.32944   0.35165   0.00000  Uiso   1.00
C55    C     0.32946   0.46645   0.39736   0.00000  Uiso   1.00
C56    C     0.30436   0.13029   0.20064   0.00000  Uiso   1.00
C57    C     0.15262   0.10109   0.15977   0.00000  Uiso   1.00
C58    C     0.14769   0.12239   0.10248   0.00000  Uiso   1.00
C59    C     0.07427   0.13953   0.00399   0.00000  Uiso   1.00
C60    C     0.59874   0.20427   0.23656   0.00000  Uiso   1.00
C61    C     0.66488   0.11598   0.26700   0.00000  Uiso   1.00
C62    C     0.84412   0.08427   0.27884   0.00000  Uiso   1.00
C63    C     0.87662   0.00196   0.30706   0.00000  Uiso   1.00
C64    C     0.50637   0.25626   0.27774   0.00000  Uiso   1.00
C65    C     0.55232   0.34250   0.29859   0.00000  Uiso   1.00
C66    C     0.45137   0.37830   0.33584   0.00000  Uiso   1.00
C67    C     0.44613   0.17906   0.18486   0.00000  Uiso   1.00
C68    C     0.44142   0.20042   0.12762   0.00000  Uiso   1.00
C69    C     0.28971   0.17124   0.08667   0.00000  Uiso   1.00
H70    H     0.22735   0.07653   0.27791   0.00000  Uiso   1.00
H71    H     0.44559   0.94722   0.32321   0.00000  Uiso   1.00
H72    H     0.15383   0.20542   0.34294   0.00000  Uiso   1.00
H73    H     0.04294   0.06335   0.17200   0.00000  Uiso   1.00
H74    H     0.75008   0.82538   0.36649   0.00000  Uiso   1.00
H75    H     0.13484   0.36982   0.40809   0.00000  Uiso   1.00
H76    H     0.90100   0.07025   0.04762   0.00000  Uiso   1.00
H77    H     0.70912   0.24224   0.22427   0.00000  Uiso   1.00
H78    H     0.95381   0.12202   0.26662   0.00000  Uiso   1.00
H79    H     0.66204   0.38022   0.28636   0.00000  Uiso   1.00
H80    H     0.55115   0.23815   0.11542   0.00000  Uiso   1.00
H81    H     0.16257   0.96726   0.32057   0.00000  Uiso   1.00
H82    H     0.54732   0.51170   0.36217   0.00000  Uiso   1.00
H83    H     0.31349   0.21212   0.00170   0.00000  Uiso   1.00
O84    O     0.10861   0.81426   0.37237   0.00000  Uiso   1.00
O85    O     0.30140   0.52855   0.42694   0.00000  Uiso   1.00
O86    O     0.99462   0.13551   0.95402   0.00000  Uiso   1.00
N87    N     0.81358   0.87526   0.34986   0.00000  Uiso   1.00
N88    N     0.23838   0.38427   0.38876   0.00000  Uiso   1.00
N89    N     0.01974   0.10422   0.05176   0.00000  Uiso   1.00
N90    N     0.03553   0.95160   0.32515   0.00000  Uiso   1.00
N91    N     0.46033   0.46062   0.36405   0.00000  Uiso   1.00
N92    N     0.24169   0.18056   0.02704   0.00000  Uiso   1.00
C93    C     0.33773   0.38551   0.76562   0.00000  Uiso   1.00
C94    C     0.52311   0.43279   0.78279   0.00000  Uiso   1.00
C95    C     0.55534   0.51506   0.81099   0.00000  Uiso   1.00
C96    C     0.73459   0.54689   0.82288   0.00000  Uiso   1.00
C97    C     0.00088   0.62770   0.85196   0.00000  Uiso   1.00
C98    C     0.36460   0.29251   0.79352   0.00000  Uiso   1.00
C99    C     0.26354   0.25683   0.83074   0.00000  Uiso   1.00
C100   C     0.30935   0.17056   0.85165   0.00000  Uiso   1.00
C101   C     0.32946   0.03355   0.89736   0.00000  Uiso   1.00
C102   C     0.30436   0.36971   0.70064   0.00000  Uiso   1.00
C103   C     0.15262   0.39891   0.65977   0.00000  Uiso   1.00
C104   C     0.14769   0.37761   0.60248   0.00000  Uiso   1.00
C105   C     0.07427   0.36047   0.50399   0.00000  Uiso   1.00
C106   C     0.59874   0.29573   0.73656   0.00000  Uiso   1.00
C107   C     0.66488   0.38402   0.76700   0.00000  Uiso   1.00
C108   C     0.84412   0.41573   0.77884   0.00000  Uiso   1.00
C109   C     0.87662   0.49804   0.80706   0.00000  Uiso   1.00
C110   C     0.50637   0.24374   0.77774   0.00000  Uiso   1.00
C111   C     0.55232   0.15750   0.79859   0.00000  Uiso   1.00
C112   C     0.45137   0.12170   0.83584   0.00000  Uiso   1.00
C113   C     0.44613   0.32094   0.68486   0.00000  Uiso   1.00
C114   C     0.44142   0.29958   0.62762   0.00000  Uiso   1.00
C115   C     0.28971   0.32876   0.58667   0.00000  Uiso   1.00
H116   H     0.22735   0.42347   0.77791   0.00000  Uiso   1.00
H117   H     0.44559   0.55278   0.82321   0.00000  Uiso   1.00
H118   H     0.15383   0.29458   0.84294   0.00000  Uiso   1.00
H119   H     0.04294   0.43665   0.67200   0.00000  Uiso   1.00
H120   H     0.75008   0.67462   0.86649   0.00000  Uiso   1.00
H121   H     0.13484   0.13018   0.90809   0.00000  Uiso   1.00
H122   H     0.90100   0.42975   0.54762   0.00000  Uiso   1.00
H123   H     0.70912   0.25776   0.72427   0.00000  Uiso   1.00
H124   H     0.95381   0.37798   0.76662   0.00000  Uiso   1.00
H125   H     0.66204   0.11978   0.78636   0.00000  Uiso   1.00
H126   H     0.55115   0.26185   0.61542   0.00000  Uiso   1.00
H127   H     0.16257   0.53274   0.82057   0.00000  Uiso   1.00
H128   H     0.54732   0.98830   0.86217   0.00000  Uiso   1.00
H129   H     0.31349   0.28788   0.50170   0.00000  Uiso   1.00
O130   O     0.10861   0.68574   0.87237   0.00000  Uiso   1.00
O131   O     0.30140   0.97145   0.92694   0.00000  Uiso   1.00
O132   O     0.99462   0.36449   0.45402   0.00000  Uiso   1.00
N133   N     0.81358   0.62474   0.84986   0.00000  Uiso   1.00
N134   N     0.23838   0.11573   0.88876   0.00000  Uiso   1.00
N135   N     0.01974   0.39578   0.55176   0.00000  Uiso   1.00
N136   N     0.03553   0.54840   0.82515   0.00000  Uiso   1.00
N137   N     0.46033   0.03938   0.86405   0.00000  Uiso   1.00
N138   N     0.24169   0.31944   0.52704   0.00000  Uiso   1.00
C139   C     0.66227   0.88551   0.73438   0.00000  Uiso   1.00
C140   C     0.47689   0.93279   0.71721   0.00000  Uiso   1.00
C141   C     0.44466   0.01506   0.68901   0.00000  Uiso   1.00
C142   C     0.26541   0.04689   0.67712   0.00000  Uiso   1.00
C143   C     0.99912   0.12770   0.64804   0.00000  Uiso   1.00
C144   C     0.63540   0.79251   0.70648   0.00000  Uiso   1.00
C145   C     0.73646   0.75683   0.66926   0.00000  Uiso   1.00
C146   C     0.69065   0.67056   0.64835   0.00000  Uiso   1.00
C147   C     0.67054   0.53355   0.60264   0.00000  Uiso   1.00
C148   C     0.69564   0.86971   0.79936   0.00000  Uiso   1.00
C149   C     0.84738   0.89891   0.84023   0.00000  Uiso   1.00
C150   C     0.85231   0.87761   0.89752   0.00000  Uiso   1.00
C151   C     0.92573   0.86047   0.99601   0.00000  Uiso   1.00
C152   C     0.40126   0.79573   0.76344   0.00000  Uiso   1.00
C153   C     0.33512   0.88402   0.73300   0.00000  Uiso   1.00
C154   C     0.15588   0.91573   0.72116   0.00000  Uiso   1.00
C155   C     0.12338   0.99804   0.69294   0.00000  Uiso   1.00
C156   C     0.49363   0.74374   0.72226   0.00000  Uiso   1.00
C157   C     0.44768   0.65750   0.70141   0.00000  Uiso   1.00
C158   C     0.54863   0.62170   0.66416   0.00000  Uiso   1.00
C159   C     0.55387   0.82094   0.81514   0.00000  Uiso   1.00
C160   C     0.55858   0.79958   0.87238   0.00000  Uiso   1.00
C161   C     0.71029   0.82876   0.91333   0.00000  Uiso   1.00
H162   H     0.77265   0.92347   0.72209   0.00000  Uiso   1.00
H163   H     0.55441   0.05278   0.67679   0.00000  Uiso   1.00
H164   H     0.84617   0.79458   0.65706   0.00000  Uiso   1.00
H165   H     0.95706   0.93665   0.82800   0.00000  Uiso   1.00
H166   H     0.24992   0.17462   0.63351   0.00000  Uiso   1.00
H167   H     0.86516   0.63018   0.59191   0.00000  Uiso   1.00
H168   H     0.09900   0.92975   0.95238   0.00000  Uiso   1.00
H169   H     0.29088   0.75776   0.77573   0.00000  Uiso   1.00
H170   H     0.04619   0.87798   0.73338   0.00000  Uiso   1.00
H171   H     0.33796   0.61978   0.71364   0.00000  Uiso   1.00
H172   H     0.44885   0.76185   0.88458   0.00000  Uiso   1.00
H173   H     0.83743   0.03274   0.67943   0.00000  Uiso   1.00
H174   H     0.45268   0.48830   0.63783   0.00000  Uiso   1.00
H175   H     0.68651   0.78788   0.99830   0.00000  Uiso   1.00
O176   O     0.89139   0.18574   0.62763   0.00000  Uiso   1.00
O177   O     0.69860   0.47145   0.57306   0.00000  Uiso   1.00
O178   O     0.00538   0.86449   0.04598   0.00000  Uiso   1.00
N179   N     0.18642   0.12474   0.65014   0.00000  Uiso   1.00
N180   N     0.76162   0.61573   0.61124   0.00000  Uiso   1.00
N181   N     0.98026   0.89578   0.94824   0.00000  Uiso   1.00
N182   N     0.96447   0.04840   0.67485   0.00000  Uiso   1.00
N183   N     0.53967   0.53938   0.63595   0.00000  Uiso   1.00
N184   N     0.75831   0.81944   0.97296   0.00000  Uiso   1.00
