data_job_02063
_audit_creation_date              2018-12-19
_audit_creation_method            'Materials Studio'
_symmetry_space_group_name_H-M    'P1'
_symmetry_Int_Tables_number       1
_symmetry_cell_setting            triclinic
loop_
_symmetry_equiv_pos_as_xyz
  x,y,z
_cell_length_a                    30.2191
_cell_length_b                    12.8088
_cell_length_c                    12.2758
_cell_angle_alpha                 90.0000
_cell_angle_beta                  90.0000
_cell_angle_gamma                 90.0000
loop_
_atom_site_label
_atom_site_type_symbol
_atom_site_fract_x
_atom_site_fract_y
_atom_site_fract_z
_atom_site_U_iso_or_equiv
_atom_site_adp_type
_atom_site_occupancy
C1     C     0.13932   0.68564   0.89179   0.00000  Uiso   1.00
C2     C     0.11146   0.74797   0.81117   0.00000  Uiso   1.00
C3     C     0.09419   0.71044   0.71402   0.00000  Uiso   1.00
C4     C     0.06959   0.77978   0.65165   0.00000  Uiso   1.00
C5     C     0.02742   0.86089   0.52133   0.00000  Uiso   1.00
C6     C     0.18231   0.74651   0.90587   0.00000  Uiso   1.00
C7     C     0.22460   0.70774   0.88835   0.00000  Uiso   1.00
C8     C     0.25964   0.77585   0.90571   0.00000  Uiso   1.00
C9     C     0.32747   0.85467   0.92248   0.00000  Uiso   1.00
C10    C     0.11531   0.69256   0.00080   0.00000  Uiso   1.00
C11    C     0.10127   0.60844   0.06312   0.00000  Uiso   1.00
C12    C     0.07991   0.63113   0.16042   0.00000  Uiso   1.00
C13    C     0.04371   0.62619   0.32458   0.00000  Uiso   1.00
C14    C     0.12635   0.87551   0.95379   0.00000  Uiso   1.00
C15    C     0.10442   0.85110   0.84485   0.00000  Uiso   1.00
C16    C     0.07984   0.92052   0.78261   0.00000  Uiso   1.00
C17    C     0.06253   0.88310   0.68539   0.00000  Uiso   1.00
C18    C     0.17527   0.84964   0.93954   0.00000  Uiso   1.00
C19    C     0.21026   0.91781   0.95694   0.00000  Uiso   1.00
C20    C     0.25259   0.87917   0.93945   0.00000  Uiso   1.00
C21    C     0.10826   0.79569   0.03447   0.00000  Uiso   1.00
C22    C     0.08692   0.81852   0.13170   0.00000  Uiso   1.00
C23    C     0.07286   0.73445   0.19415   0.00000  Uiso   1.00
H24    H     0.14481   0.60535   0.86557   0.00000  Uiso   1.00
H25    H     0.09965   0.63063   0.68798   0.00000  Uiso   1.00
H26    H     0.23004   0.62793   0.86230   0.00000  Uiso   1.00
H27    H     0.10673   0.52865   0.03703   0.00000  Uiso   1.00
H28    H     0.04649   0.70415   0.50593   0.00000  Uiso   1.00
H29    H     0.32143   0.69844   0.87351   0.00000  Uiso   1.00
H30    H     0.06141   0.48908   0.24198   0.00000  Uiso   1.00
H31    H     0.12087   0.95581   0.98000   0.00000  Uiso   1.00
H32    H     0.07440   0.00032   0.80869   0.00000  Uiso   1.00
H33    H     0.20479   0.99762   0.98301   0.00000  Uiso   1.00
H34    H     0.08148   0.89834   0.15774   0.00000  Uiso   1.00
H35    H     0.02599   0.00421   0.60390   0.00000  Uiso   1.00
H36    H     0.30094   0.99850   0.97149   0.00000  Uiso   1.00
H37    H     0.04091   0.78914   0.33995   0.00000  Uiso   1.00
O38    O     0.00611   0.87715   0.44014   0.00000  Uiso   1.00
O39    O     0.36683   0.86965   0.92242   0.00000  Uiso   1.00
O40    O     0.02568   0.59498   0.40582   0.00000  Uiso   1.00
N41    N     0.04804   0.76865   0.55251   0.00000  Uiso   1.00
N42    N     0.30509   0.76332   0.89616   0.00000  Uiso   1.00
N43    N     0.06200   0.56759   0.24066   0.00000  Uiso   1.00
N44    N     0.03701   0.93011   0.60522   0.00000  Uiso   1.00
N45    N     0.29406   0.92478   0.94888   0.00000  Uiso   1.00
N46    N     0.05097   0.72905   0.29337   0.00000  Uiso   1.00
C47    C     0.36068   0.81436   0.39179   0.00000  Uiso   1.00
C48    C     0.38854   0.75203   0.31117   0.00000  Uiso   1.00
C49    C     0.40581   0.78956   0.21402   0.00000  Uiso   1.00
C50    C     0.43041   0.72022   0.15165   0.00000  Uiso   1.00
C51    C     0.47258   0.63911   0.02133   0.00000  Uiso   1.00
C52    C     0.31769   0.75349   0.40587   0.00000  Uiso   1.00
C53    C     0.27540   0.79226   0.38835   0.00000  Uiso   1.00
C54    C     0.24036   0.72415   0.40571   0.00000  Uiso   1.00
C55    C     0.17253   0.64533   0.42248   0.00000  Uiso   1.00
C56    C     0.38469   0.80744   0.50080   0.00000  Uiso   1.00
C57    C     0.39873   0.89156   0.56312   0.00000  Uiso   1.00
C58    C     0.42009   0.86887   0.66042   0.00000  Uiso   1.00
C59    C     0.45629   0.87381   0.82458   0.00000  Uiso   1.00
C60    C     0.37365   0.62449   0.45379   0.00000  Uiso   1.00
C61    C     0.39558   0.64890   0.34485   0.00000  Uiso   1.00
C62    C     0.42016   0.57948   0.28261   0.00000  Uiso   1.00
C63    C     0.43747   0.61690   0.18539   0.00000  Uiso   1.00
C64    C     0.32473   0.65036   0.43954   0.00000  Uiso   1.00
C65    C     0.28974   0.58219   0.45694   0.00000  Uiso   1.00
C66    C     0.24741   0.62083   0.43945   0.00000  Uiso   1.00
C67    C     0.39174   0.70431   0.53447   0.00000  Uiso   1.00
C68    C     0.41308   0.68148   0.63170   0.00000  Uiso   1.00
C69    C     0.42714   0.76555   0.69415   0.00000  Uiso   1.00
H70    H     0.35519   0.89465   0.36557   0.00000  Uiso   1.00
H71    H     0.40035   0.86937   0.18798   0.00000  Uiso   1.00
H72    H     0.26996   0.87207   0.36230   0.00000  Uiso   1.00
H73    H     0.39327   0.97135   0.53703   0.00000  Uiso   1.00
H74    H     0.45351   0.79585   0.00593   0.00000  Uiso   1.00
H75    H     0.17857   0.80156   0.37351   0.00000  Uiso   1.00
H76    H     0.43859   0.01092   0.74198   0.00000  Uiso   1.00
H77    H     0.37913   0.54419   0.48000   0.00000  Uiso   1.00
H78    H     0.42560   0.49968   0.30869   0.00000  Uiso   1.00
H79    H     0.29521   0.50238   0.48301   0.00000  Uiso   1.00
H80    H     0.41852   0.60166   0.65774   0.00000  Uiso   1.00
H81    H     0.47401   0.49579   0.10390   0.00000  Uiso   1.00
H82    H     0.19906   0.50150   0.47149   0.00000  Uiso   1.00
H83    H     0.45909   0.71086   0.83995   0.00000  Uiso   1.00
O84    O     0.49389   0.62285   0.94014   0.00000  Uiso   1.00
O85    O     0.13317   0.63035   0.42242   0.00000  Uiso   1.00
O86    O     0.47432   0.90502   0.90582   0.00000  Uiso   1.00
N87    N     0.45196   0.73135   0.05251   0.00000  Uiso   1.00
N88    N     0.19491   0.73668   0.39616   0.00000  Uiso   1.00
N89    N     0.43800   0.93241   0.74066   0.00000  Uiso   1.00
N90    N     0.46299   0.56989   0.10522   0.00000  Uiso   1.00
N91    N     0.20594   0.57522   0.44888   0.00000  Uiso   1.00
N92    N     0.44903   0.77095   0.79337   0.00000  Uiso   1.00
C93    C     0.86068   0.68564   0.60821   0.00000  Uiso   1.00
C94    C     0.88854   0.74797   0.68883   0.00000  Uiso   1.00
C95    C     0.90581   0.71044   0.78598   0.00000  Uiso   1.00
C96    C     0.93041   0.77978   0.84835   0.00000  Uiso   1.00
C97    C     0.97258   0.86089   0.97867   0.00000  Uiso   1.00
C98    C     0.81769   0.74651   0.59413   0.00000  Uiso   1.00
C99    C     0.77540   0.70774   0.61165   0.00000  Uiso   1.00
C100   C     0.74036   0.77585   0.59429   0.00000  Uiso   1.00
C101   C     0.67253   0.85467   0.57752   0.00000  Uiso   1.00
C102   C     0.88469   0.69256   0.49920   0.00000  Uiso   1.00
C103   C     0.89873   0.60844   0.43688   0.00000  Uiso   1.00
C104   C     0.92009   0.63113   0.33958   0.00000  Uiso   1.00
C105   C     0.95629   0.62619   0.17542   0.00000  Uiso   1.00
C106   C     0.87365   0.87551   0.54621   0.00000  Uiso   1.00
C107   C     0.89558   0.85110   0.65515   0.00000  Uiso   1.00
C108   C     0.92016   0.92052   0.71739   0.00000  Uiso   1.00
C109   C     0.93747   0.88310   0.81461   0.00000  Uiso   1.00
C110   C     0.82473   0.84964   0.56046   0.00000  Uiso   1.00
C111   C     0.78974   0.91781   0.54306   0.00000  Uiso   1.00
C112   C     0.74741   0.87917   0.56055   0.00000  Uiso   1.00
C113   C     0.89174   0.79569   0.46553   0.00000  Uiso   1.00
C114   C     0.91308   0.81852   0.36830   0.00000  Uiso   1.00
C115   C     0.92714   0.73445   0.30585   0.00000  Uiso   1.00
H116   H     0.85519   0.60535   0.63443   0.00000  Uiso   1.00
H117   H     0.90035   0.63063   0.81202   0.00000  Uiso   1.00
H118   H     0.76996   0.62793   0.63770   0.00000  Uiso   1.00
H119   H     0.89327   0.52865   0.46297   0.00000  Uiso   1.00
H120   H     0.95351   0.70415   0.99407   0.00000  Uiso   1.00
H121   H     0.67857   0.69844   0.62649   0.00000  Uiso   1.00
H122   H     0.93859   0.48908   0.25802   0.00000  Uiso   1.00
H123   H     0.87913   0.95581   0.52000   0.00000  Uiso   1.00
H124   H     0.92560   0.00032   0.69131   0.00000  Uiso   1.00
H125   H     0.79521   0.99762   0.51699   0.00000  Uiso   1.00
H126   H     0.91852   0.89834   0.34226   0.00000  Uiso   1.00
H127   H     0.97401   0.00421   0.89610   0.00000  Uiso   1.00
H128   H     0.69906   0.99850   0.52851   0.00000  Uiso   1.00
H129   H     0.95909   0.78914   0.16005   0.00000  Uiso   1.00
O130   O     0.99389   0.87715   0.05986   0.00000  Uiso   1.00
O131   O     0.63317   0.86965   0.57758   0.00000  Uiso   1.00
O132   O     0.97432   0.59498   0.09418   0.00000  Uiso   1.00
N133   N     0.95196   0.76865   0.94749   0.00000  Uiso   1.00
N134   N     0.69491   0.76332   0.60384   0.00000  Uiso   1.00
N135   N     0.93800   0.56759   0.25934   0.00000  Uiso   1.00
N136   N     0.96299   0.93011   0.89478   0.00000  Uiso   1.00
N137   N     0.70594   0.92478   0.55112   0.00000  Uiso   1.00
N138   N     0.94903   0.72905   0.20663   0.00000  Uiso   1.00
C139   C     0.63932   0.81436   0.10821   0.00000  Uiso   1.00
C140   C     0.61146   0.75203   0.18883   0.00000  Uiso   1.00
C141   C     0.59419   0.78956   0.28598   0.00000  Uiso   1.00
C142   C     0.56959   0.72022   0.34835   0.00000  Uiso   1.00
C143   C     0.52742   0.63911   0.47867   0.00000  Uiso   1.00
C144   C     0.68231   0.75349   0.09413   0.00000  Uiso   1.00
C145   C     0.72460   0.79226   0.11165   0.00000  Uiso   1.00
C146   C     0.75964   0.72415   0.09429   0.00000  Uiso   1.00
C147   C     0.82747   0.64533   0.07752   0.00000  Uiso   1.00
C148   C     0.61531   0.80744   0.99920   0.00000  Uiso   1.00
C149   C     0.60127   0.89156   0.93688   0.00000  Uiso   1.00
C150   C     0.57991   0.86887   0.83958   0.00000  Uiso   1.00
C151   C     0.54371   0.87381   0.67542   0.00000  Uiso   1.00
C152   C     0.62635   0.62449   0.04621   0.00000  Uiso   1.00
C153   C     0.60442   0.64890   0.15515   0.00000  Uiso   1.00
C154   C     0.57984   0.57948   0.21739   0.00000  Uiso   1.00
C155   C     0.56253   0.61690   0.31461   0.00000  Uiso   1.00
C156   C     0.67527   0.65036   0.06046   0.00000  Uiso   1.00
C157   C     0.71026   0.58219   0.04306   0.00000  Uiso   1.00
C158   C     0.75259   0.62083   0.06055   0.00000  Uiso   1.00
C159   C     0.60826   0.70431   0.96553   0.00000  Uiso   1.00
C160   C     0.58692   0.68148   0.86830   0.00000  Uiso   1.00
C161   C     0.57286   0.76555   0.80585   0.00000  Uiso   1.00
H162   H     0.64481   0.89465   0.13443   0.00000  Uiso   1.00
H163   H     0.59965   0.86937   0.31202   0.00000  Uiso   1.00
H164   H     0.73004   0.87207   0.13770   0.00000  Uiso   1.00
H165   H     0.60673   0.97135   0.96297   0.00000  Uiso   1.00
H166   H     0.54649   0.79585   0.49407   0.00000  Uiso   1.00
H167   H     0.82143   0.80156   0.12649   0.00000  Uiso   1.00
H168   H     0.56141   0.01092   0.75802   0.00000  Uiso   1.00
H169   H     0.62087   0.54419   0.02000   0.00000  Uiso   1.00
H170   H     0.57440   0.49968   0.19131   0.00000  Uiso   1.00
H171   H     0.70479   0.50238   0.01699   0.00000  Uiso   1.00
H172   H     0.58148   0.60166   0.84226   0.00000  Uiso   1.00
H173   H     0.52599   0.49579   0.39610   0.00000  Uiso   1.00
H174   H     0.80094   0.50150   0.02851   0.00000  Uiso   1.00
H175   H     0.54091   0.71086   0.66005   0.00000  Uiso   1.00
O176   O     0.50611   0.62285   0.55986   0.00000  Uiso   1.00
O177   O     0.86683   0.63035   0.07758   0.00000  Uiso   1.00
O178   O     0.52568   0.90502   0.59418   0.00000  Uiso   1.00
N179   N     0.54804   0.73135   0.44749   0.00000  Uiso   1.00
N180   N     0.80509   0.73668   0.10384   0.00000  Uiso   1.00
N181   N     0.56200   0.93241   0.75934   0.00000  Uiso   1.00
N182   N     0.53701   0.56989   0.39478   0.00000  Uiso   1.00
N183   N     0.79406   0.57522   0.05112   0.00000  Uiso   1.00
N184   N     0.55097   0.77095   0.70663   0.00000  Uiso   1.00
C185   C     0.86068   0.31436   0.10821   0.00000  Uiso   1.00
C186   C     0.88854   0.25203   0.18883   0.00000  Uiso   1.00
C187   C     0.90581   0.28956   0.28598   0.00000  Uiso   1.00
C188   C     0.93041   0.22022   0.34835   0.00000  Uiso   1.00
C189   C     0.97258   0.13911   0.47867   0.00000  Uiso   1.00
C190   C     0.81769   0.25349   0.09413   0.00000  Uiso   1.00
C191   C     0.77540   0.29226   0.11165   0.00000  Uiso   1.00
C192   C     0.74036   0.22415   0.09429   0.00000  Uiso   1.00
C193   C     0.67253   0.14533   0.07752   0.00000  Uiso   1.00
C194   C     0.88469   0.30744   0.99920   0.00000  Uiso   1.00
C195   C     0.89873   0.39156   0.93688   0.00000  Uiso   1.00
C196   C     0.92009   0.36887   0.83958   0.00000  Uiso   1.00
C197   C     0.95629   0.37381   0.67542   0.00000  Uiso   1.00
C198   C     0.87365   0.12449   0.04621   0.00000  Uiso   1.00
C199   C     0.89558   0.14890   0.15515   0.00000  Uiso   1.00
C200   C     0.92016   0.07948   0.21739   0.00000  Uiso   1.00
C201   C     0.93747   0.11690   0.31461   0.00000  Uiso   1.00
C202   C     0.82473   0.15036   0.06046   0.00000  Uiso   1.00
C203   C     0.78974   0.08219   0.04306   0.00000  Uiso   1.00
C204   C     0.74741   0.12083   0.06055   0.00000  Uiso   1.00
C205   C     0.89174   0.20431   0.96553   0.00000  Uiso   1.00
C206   C     0.91308   0.18148   0.86830   0.00000  Uiso   1.00
C207   C     0.92714   0.26555   0.80585   0.00000  Uiso   1.00
H208   H     0.85519   0.39465   0.13443   0.00000  Uiso   1.00
H209   H     0.90035   0.36937   0.31202   0.00000  Uiso   1.00
H210   H     0.76996   0.37207   0.13770   0.00000  Uiso   1.00
H211   H     0.89327   0.47135   0.96297   0.00000  Uiso   1.00
H212   H     0.95351   0.29585   0.49407   0.00000  Uiso   1.00
H213   H     0.67857   0.30156   0.12649   0.00000  Uiso   1.00
H214   H     0.93859   0.51092   0.75802   0.00000  Uiso   1.00
H215   H     0.87913   0.04419   0.02000   0.00000  Uiso   1.00
H216   H     0.92560   0.99968   0.19131   0.00000  Uiso   1.00
H217   H     0.79521   0.00238   0.01699   0.00000  Uiso   1.00
H218   H     0.91852   0.10166   0.84226   0.00000  Uiso   1.00
H219   H     0.97401   0.99579   0.39610   0.00000  Uiso   1.00
H220   H     0.69906   0.00150   0.02851   0.00000  Uiso   1.00
H221   H     0.95909   0.21086   0.66005   0.00000  Uiso   1.00
O222   O     0.99389   0.12285   0.55986   0.00000  Uiso   1.00
O223   O     0.63317   0.13035   0.07758   0.00000  Uiso   1.00
O224   O     0.97432   0.40502   0.59418   0.00000  Uiso   1.00
N225   N     0.95196   0.23135   0.44749   0.00000  Uiso   1.00
N226   N     0.69491   0.23668   0.10384   0.00000  Uiso   1.00
N227   N     0.93800   0.43241   0.75934   0.00000  Uiso   1.00
N228   N     0.96299   0.06989   0.39478   0.00000  Uiso   1.00
N229   N     0.70594   0.07522   0.05112   0.00000  Uiso   1.00
N230   N     0.94903   0.27095   0.70663   0.00000  Uiso   1.00
C231   C     0.63932   0.18564   0.60821   0.00000  Uiso   1.00
C232   C     0.61146   0.24797   0.68883   0.00000  Uiso   1.00
C233   C     0.59419   0.21044   0.78598   0.00000  Uiso   1.00
C234   C     0.56959   0.27978   0.84835   0.00000  Uiso   1.00
C235   C     0.52742   0.36089   0.97867   0.00000  Uiso   1.00
C236   C     0.68231   0.24651   0.59413   0.00000  Uiso   1.00
C237   C     0.72460   0.20774   0.61165   0.00000  Uiso   1.00
C238   C     0.75964   0.27585   0.59429   0.00000  Uiso   1.00
C239   C     0.82747   0.35467   0.57752   0.00000  Uiso   1.00
C240   C     0.61531   0.19256   0.49920   0.00000  Uiso   1.00
C241   C     0.60127   0.10844   0.43688   0.00000  Uiso   1.00
C242   C     0.57991   0.13113   0.33958   0.00000  Uiso   1.00
C243   C     0.54371   0.12619   0.17542   0.00000  Uiso   1.00
C244   C     0.62635   0.37551   0.54621   0.00000  Uiso   1.00
C245   C     0.60442   0.35110   0.65515   0.00000  Uiso   1.00
C246   C     0.57984   0.42052   0.71739   0.00000  Uiso   1.00
C247   C     0.56253   0.38310   0.81461   0.00000  Uiso   1.00
C248   C     0.67527   0.34964   0.56046   0.00000  Uiso   1.00
C249   C     0.71026   0.41781   0.54306   0.00000  Uiso   1.00
C250   C     0.75259   0.37917   0.56055   0.00000  Uiso   1.00
C251   C     0.60826   0.29569   0.46553   0.00000  Uiso   1.00
C252   C     0.58692   0.31852   0.36830   0.00000  Uiso   1.00
C253   C     0.57286   0.23445   0.30585   0.00000  Uiso   1.00
H254   H     0.64481   0.10535   0.63443   0.00000  Uiso   1.00
H255   H     0.59965   0.13063   0.81202   0.00000  Uiso   1.00
H256   H     0.73004   0.12793   0.63770   0.00000  Uiso   1.00
H257   H     0.60673   0.02865   0.46297   0.00000  Uiso   1.00
H258   H     0.54649   0.20415   0.99407   0.00000  Uiso   1.00
H259   H     0.82143   0.19844   0.62649   0.00000  Uiso   1.00
H260   H     0.56141   0.98908   0.25802   0.00000  Uiso   1.00
H261   H     0.62087   0.45581   0.52000   0.00000  Uiso   1.00
H262   H     0.57440   0.50032   0.69131   0.00000  Uiso   1.00
H263   H     0.70479   0.49762   0.51699   0.00000  Uiso   1.00
H264   H     0.58148   0.39834   0.34226   0.00000  Uiso   1.00
H265   H     0.52599   0.50421   0.89610   0.00000  Uiso   1.00
H266   H     0.80094   0.49850   0.52851   0.00000  Uiso   1.00
H267   H     0.54091   0.28914   0.16005   0.00000  Uiso   1.00
O268   O     0.50611   0.37715   0.05986   0.00000  Uiso   1.00
O269   O     0.86683   0.36965   0.57758   0.00000  Uiso   1.00
O270   O     0.52568   0.09498   0.09418   0.00000  Uiso   1.00
N271   N     0.54804   0.26865   0.94749   0.00000  Uiso   1.00
N272   N     0.80509   0.26332   0.60384   0.00000  Uiso   1.00
N273   N     0.56200   0.06759   0.25934   0.00000  Uiso   1.00
N274   N     0.53701   0.43011   0.89478   0.00000  Uiso   1.00
N275   N     0.79406   0.42478   0.55112   0.00000  Uiso   1.00
N276   N     0.55097   0.22905   0.20663   0.00000  Uiso   1.00
C277   C     0.13932   0.31436   0.39179   0.00000  Uiso   1.00
C278   C     0.11146   0.25203   0.31117   0.00000  Uiso   1.00
C279   C     0.09419   0.28956   0.21402   0.00000  Uiso   1.00
C280   C     0.06959   0.22022   0.15165   0.00000  Uiso   1.00
C281   C     0.02742   0.13911   0.02133   0.00000  Uiso   1.00
C282   C     0.18231   0.25349   0.40587   0.00000  Uiso   1.00
C283   C     0.22460   0.29226   0.38835   0.00000  Uiso   1.00
C284   C     0.25964   0.22415   0.40571   0.00000  Uiso   1.00
C285   C     0.32747   0.14533   0.42248   0.00000  Uiso   1.00
C286   C     0.11531   0.30744   0.50080   0.00000  Uiso   1.00
C287   C     0.10127   0.39156   0.56312   0.00000  Uiso   1.00
C288   C     0.07991   0.36887   0.66042   0.00000  Uiso   1.00
C289   C     0.04371   0.37381   0.82458   0.00000  Uiso   1.00
C290   C     0.12635   0.12449   0.45379   0.00000  Uiso   1.00
C291   C     0.10442   0.14890   0.34485   0.00000  Uiso   1.00
C292   C     0.07984   0.07948   0.28261   0.00000  Uiso   1.00
C293   C     0.06253   0.11690   0.18539   0.00000  Uiso   1.00
C294   C     0.17527   0.15036   0.43954   0.00000  Uiso   1.00
C295   C     0.21026   0.08219   0.45694   0.00000  Uiso   1.00
C296   C     0.25259   0.12083   0.43945   0.00000  Uiso   1.00
C297   C     0.10826   0.20431   0.53447   0.00000  Uiso   1.00
C298   C     0.08692   0.18148   0.63170   0.00000  Uiso   1.00
C299   C     0.07286   0.26555   0.69415   0.00000  Uiso   1.00
H300   H     0.14481   0.39465   0.36557   0.00000  Uiso   1.00
H301   H     0.09965   0.36937   0.18798   0.00000  Uiso   1.00
H302   H     0.23004   0.37207   0.36230   0.00000  Uiso   1.00
H303   H     0.10673   0.47135   0.53703   0.00000  Uiso   1.00
H304   H     0.04649   0.29585   0.00593   0.00000  Uiso   1.00
H305   H     0.32143   0.30156   0.37351   0.00000  Uiso   1.00
H306   H     0.06141   0.51092   0.74198   0.00000  Uiso   1.00
H307   H     0.12087   0.04419   0.48000   0.00000  Uiso   1.00
H308   H     0.07440   0.99968   0.30869   0.00000  Uiso   1.00
H309   H     0.20479   0.00238   0.48301   0.00000  Uiso   1.00
H310   H     0.08148   0.10166   0.65774   0.00000  Uiso   1.00
H311   H     0.02599   0.99579   0.10390   0.00000  Uiso   1.00
H312   H     0.30094   0.00150   0.47149   0.00000  Uiso   1.00
H313   H     0.04091   0.21086   0.83995   0.00000  Uiso   1.00
O314   O     0.00611   0.12285   0.94014   0.00000  Uiso   1.00
O315   O     0.36683   0.13035   0.42242   0.00000  Uiso   1.00
O316   O     0.02568   0.40502   0.90582   0.00000  Uiso   1.00
N317   N     0.04804   0.23135   0.05251   0.00000  Uiso   1.00
N318   N     0.30509   0.23668   0.39616   0.00000  Uiso   1.00
N319   N     0.06200   0.43241   0.74066   0.00000  Uiso   1.00
N320   N     0.03701   0.06989   0.10522   0.00000  Uiso   1.00
N321   N     0.29406   0.07522   0.44888   0.00000  Uiso   1.00
N322   N     0.05097   0.27095   0.79337   0.00000  Uiso   1.00
C323   C     0.36068   0.18564   0.89179   0.00000  Uiso   1.00
C324   C     0.38854   0.24797   0.81117   0.00000  Uiso   1.00
C325   C     0.40581   0.21044   0.71402   0.00000  Uiso   1.00
C326   C     0.43041   0.27978   0.65165   0.00000  Uiso   1.00
C327   C     0.47258   0.36089   0.52133   0.00000  Uiso   1.00
C328   C     0.31769   0.24651   0.90587   0.00000  Uiso   1.00
C329   C     0.27540   0.20774   0.88835   0.00000  Uiso   1.00
C330   C     0.24036   0.27585   0.90571   0.00000  Uiso   1.00
C331   C     0.17253   0.35467   0.92248   0.00000  Uiso   1.00
C332   C     0.38469   0.19256   0.00080   0.00000  Uiso   1.00
C333   C     0.39873   0.10844   0.06312   0.00000  Uiso   1.00
C334   C     0.42009   0.13113   0.16042   0.00000  Uiso   1.00
C335   C     0.45629   0.12619   0.32458   0.00000  Uiso   1.00
C336   C     0.37365   0.37551   0.95379   0.00000  Uiso   1.00
C337   C     0.39558   0.35110   0.84485   0.00000  Uiso   1.00
C338   C     0.42016   0.42052   0.78261   0.00000  Uiso   1.00
C339   C     0.43747   0.38310   0.68539   0.00000  Uiso   1.00
C340   C     0.32473   0.34964   0.93954   0.00000  Uiso   1.00
C341   C     0.28974   0.41781   0.95694   0.00000  Uiso   1.00
C342   C     0.24741   0.37917   0.93945   0.00000  Uiso   1.00
C343   C     0.39174   0.29569   0.03447   0.00000  Uiso   1.00
C344   C     0.41308   0.31852   0.13170   0.00000  Uiso   1.00
C345   C     0.42714   0.23445   0.19415   0.00000  Uiso   1.00
H346   H     0.35519   0.10535   0.86557   0.00000  Uiso   1.00
H347   H     0.40035   0.13063   0.68798   0.00000  Uiso   1.00
H348   H     0.26996   0.12793   0.86230   0.00000  Uiso   1.00
H349   H     0.39327   0.02865   0.03703   0.00000  Uiso   1.00
H350   H     0.45351   0.20415   0.50593   0.00000  Uiso   1.00
H351   H     0.17857   0.19844   0.87351   0.00000  Uiso   1.00
H352   H     0.43859   0.98908   0.24198   0.00000  Uiso   1.00
H353   H     0.37913   0.45581   0.98000   0.00000  Uiso   1.00
H354   H     0.42560   0.50032   0.80869   0.00000  Uiso   1.00
H355   H     0.29521   0.49762   0.98301   0.00000  Uiso   1.00
H356   H     0.41852   0.39834   0.15774   0.00000  Uiso   1.00
H357   H     0.47401   0.50421   0.60390   0.00000  Uiso   1.00
H358   H     0.19906   0.49850   0.97149   0.00000  Uiso   1.00
H359   H     0.45909   0.28914   0.33995   0.00000  Uiso   1.00
O360   O     0.49389   0.37715   0.44014   0.00000  Uiso   1.00
O361   O     0.13317   0.36965   0.92242   0.00000  Uiso   1.00
O362   O     0.47432   0.09498   0.40582   0.00000  Uiso   1.00
N363   N     0.45196   0.26865   0.55251   0.00000  Uiso   1.00
N364   N     0.19491   0.26332   0.89616   0.00000  Uiso   1.00
N365   N     0.43800   0.06759   0.24066   0.00000  Uiso   1.00
N366   N     0.46299   0.43011   0.60522   0.00000  Uiso   1.00
N367   N     0.20594   0.42478   0.94888   0.00000  Uiso   1.00
N368   N     0.44903   0.22905   0.29337   0.00000  Uiso   1.00
