data_job_03650
_audit_creation_date              2018-12-19
_audit_creation_method            'Materials Studio'
_symmetry_space_group_name_H-M    'P1'
_symmetry_Int_Tables_number       1
_symmetry_cell_setting            triclinic
loop_
_symmetry_equiv_pos_as_xyz
  x,y,z
_cell_length_a                    16.2991
_cell_length_b                    22.5916
_cell_length_c                    7.5869
_cell_angle_alpha                 90.0000
_cell_angle_beta                  90.0000
_cell_angle_gamma                 90.0000
loop_
_atom_site_label
_atom_site_type_symbol
_atom_site_fract_x
_atom_site_fract_y
_atom_site_fract_z
_atom_site_U_iso_or_equiv
_atom_site_adp_type
_atom_site_occupancy
C1     C     0.23493   0.53552   0.98992   0.00000  Uiso   1.00
C2     C     0.32569   0.55187   0.98709   0.00000  Uiso   1.00
C3     C     0.37083   0.56665   0.83837   0.00000  Uiso   1.00
C4     C     0.45309   0.58021   0.86342   0.00000  Uiso   1.00
C5     C     0.58859   0.60575   0.83350   0.00000  Uiso   1.00
C6     C     0.22992   0.47470   0.07642   0.00000  Uiso   1.00
C7     C     0.19453   0.42459   0.00280   0.00000  Uiso   1.00
C8     C     0.19616   0.37319   0.10307   0.00000  Uiso   1.00
C9     C     0.18293   0.27893   0.21187   0.00000  Uiso   1.00
C10    C     0.19427   0.57849   0.11797   0.00000  Uiso   1.00
C11    C     0.12889   0.61564   0.07931   0.00000  Uiso   1.00
C12    C     0.10049   0.65162   0.21457   0.00000  Uiso   1.00
C13    C     0.03191   0.71851   0.38789   0.00000  Uiso   1.00
C14    C     0.30074   0.53334   0.29888   0.00000  Uiso   1.00
C15    C     0.36143   0.55068   0.15491   0.00000  Uiso   1.00
C16    C     0.44365   0.56423   0.18020   0.00000  Uiso   1.00
C17    C     0.48890   0.57902   0.03154   0.00000  Uiso   1.00
C18    C     0.26567   0.47351   0.24423   0.00000  Uiso   1.00
C19    C     0.26735   0.42217   0.34463   0.00000  Uiso   1.00
C20    C     0.23198   0.37200   0.27118   0.00000  Uiso   1.00
C21    C     0.23002   0.57731   0.28578   0.00000  Uiso   1.00
C22    C     0.20171   0.61323   0.42113   0.00000  Uiso   1.00
C23    C     0.13630   0.65043   0.38269   0.00000  Uiso   1.00
H24    H     0.20709   0.53644   0.85927   0.00000  Uiso   1.00
H25    H     0.34314   0.56755   0.70852   0.00000  Uiso   1.00
H26    H     0.16687   0.42552   0.87294   0.00000  Uiso   1.00
H27    H     0.10124   0.61655   0.94943   0.00000  Uiso   1.00
H28    H     0.50976   0.60150   0.61539   0.00000  Uiso   1.00
H29    H     0.13804   0.30203   0.96210   0.00000  Uiso   1.00
H30    H     0.99965   0.70484   0.12340   0.00000  Uiso   1.00
H31    H     0.32857   0.53241   0.42953   0.00000  Uiso   1.00
H32    H     0.47129   0.56331   0.31007   0.00000  Uiso   1.00
H33    H     0.29501   0.42127   0.47449   0.00000  Uiso   1.00
H34    H     0.22939   0.61230   0.55098   0.00000  Uiso   1.00
H35    H     0.61377   0.59805   0.10363   0.00000  Uiso   1.00
H36    H     0.24204   0.29858   0.45034   0.00000  Uiso   1.00
H37    H     0.10366   0.70139   0.61164   0.00000  Uiso   1.00
O38    O     0.65346   0.62015   0.77063   0.00000  Uiso   1.00
O39    O     0.16577   0.22726   0.22551   0.00000  Uiso   1.00
O40    O     0.98421   0.75573   0.43712   0.00000  Uiso   1.00
N41    N     0.51464   0.59646   0.74669   0.00000  Uiso   1.00
N42    N     0.16712   0.31647   0.07083   0.00000  Uiso   1.00
N43    N     0.03772   0.69305   0.22165   0.00000  Uiso   1.00
N44    N     0.57061   0.59461   0.00941   0.00000  Uiso   1.00
N45    N     0.22309   0.31462   0.33355   0.00000  Uiso   1.00
N46    N     0.09369   0.69119   0.48437   0.00000  Uiso   1.00
C47    C     0.76507   0.46448   0.98992   0.00000  Uiso   1.00
C48    C     0.67431   0.44813   0.98709   0.00000  Uiso   1.00
C49    C     0.62917   0.43335   0.83837   0.00000  Uiso   1.00
C50    C     0.54691   0.41979   0.86342   0.00000  Uiso   1.00
C51    C     0.41141   0.39425   0.83350   0.00000  Uiso   1.00
C52    C     0.77008   0.52530   0.07642   0.00000  Uiso   1.00
C53    C     0.80547   0.57541   0.00280   0.00000  Uiso   1.00
C54    C     0.80384   0.62681   0.10307   0.00000  Uiso   1.00
C55    C     0.81707   0.72107   0.21187   0.00000  Uiso   1.00
C56    C     0.80573   0.42151   0.11797   0.00000  Uiso   1.00
C57    C     0.87111   0.38436   0.07931   0.00000  Uiso   1.00
C58    C     0.89951   0.34838   0.21457   0.00000  Uiso   1.00
C59    C     0.96809   0.28149   0.38789   0.00000  Uiso   1.00
C60    C     0.69926   0.46666   0.29888   0.00000  Uiso   1.00
C61    C     0.63857   0.44932   0.15491   0.00000  Uiso   1.00
C62    C     0.55635   0.43577   0.18020   0.00000  Uiso   1.00
C63    C     0.51110   0.42098   0.03154   0.00000  Uiso   1.00
C64    C     0.73433   0.52649   0.24423   0.00000  Uiso   1.00
C65    C     0.73265   0.57783   0.34463   0.00000  Uiso   1.00
C66    C     0.76802   0.62800   0.27118   0.00000  Uiso   1.00
C67    C     0.76998   0.42269   0.28578   0.00000  Uiso   1.00
C68    C     0.79829   0.38677   0.42113   0.00000  Uiso   1.00
C69    C     0.86370   0.34957   0.38269   0.00000  Uiso   1.00
H70    H     0.79291   0.46356   0.85927   0.00000  Uiso   1.00
H71    H     0.65686   0.43245   0.70852   0.00000  Uiso   1.00
H72    H     0.83313   0.57448   0.87294   0.00000  Uiso   1.00
H73    H     0.89876   0.38345   0.94943   0.00000  Uiso   1.00
H74    H     0.49024   0.39850   0.61539   0.00000  Uiso   1.00
H75    H     0.86196   0.69797   0.96210   0.00000  Uiso   1.00
H76    H     0.00035   0.29516   0.12340   0.00000  Uiso   1.00
H77    H     0.67143   0.46759   0.42953   0.00000  Uiso   1.00
H78    H     0.52871   0.43669   0.31007   0.00000  Uiso   1.00
H79    H     0.70499   0.57873   0.47449   0.00000  Uiso   1.00
H80    H     0.77061   0.38770   0.55098   0.00000  Uiso   1.00
H81    H     0.38623   0.40195   0.10363   0.00000  Uiso   1.00
H82    H     0.75796   0.70142   0.45034   0.00000  Uiso   1.00
H83    H     0.89634   0.29861   0.61164   0.00000  Uiso   1.00
O84    O     0.34654   0.37985   0.77063   0.00000  Uiso   1.00
O85    O     0.83423   0.77274   0.22551   0.00000  Uiso   1.00
O86    O     0.01579   0.24427   0.43712   0.00000  Uiso   1.00
N87    N     0.48536   0.40354   0.74669   0.00000  Uiso   1.00
N88    N     0.83288   0.68353   0.07083   0.00000  Uiso   1.00
N89    N     0.96228   0.30695   0.22165   0.00000  Uiso   1.00
N90    N     0.42939   0.40539   0.00941   0.00000  Uiso   1.00
N91    N     0.77691   0.68538   0.33355   0.00000  Uiso   1.00
N92    N     0.90631   0.30881   0.48437   0.00000  Uiso   1.00
C93    C     0.23493   0.96448   0.48992   0.00000  Uiso   1.00
C94    C     0.32569   0.94813   0.48709   0.00000  Uiso   1.00
C95    C     0.37083   0.93335   0.33837   0.00000  Uiso   1.00
C96    C     0.45309   0.91979   0.36342   0.00000  Uiso   1.00
C97    C     0.58859   0.89425   0.33350   0.00000  Uiso   1.00
C98    C     0.22992   0.02530   0.57642   0.00000  Uiso   1.00
C99    C     0.19453   0.07541   0.50280   0.00000  Uiso   1.00
C100   C     0.19616   0.12681   0.60307   0.00000  Uiso   1.00
C101   C     0.18293   0.22107   0.71187   0.00000  Uiso   1.00
C102   C     0.19427   0.92151   0.61797   0.00000  Uiso   1.00
C103   C     0.12889   0.88436   0.57931   0.00000  Uiso   1.00
C104   C     0.10049   0.84838   0.71457   0.00000  Uiso   1.00
C105   C     0.03191   0.78149   0.88789   0.00000  Uiso   1.00
C106   C     0.30074   0.96666   0.79888   0.00000  Uiso   1.00
C107   C     0.36143   0.94932   0.65491   0.00000  Uiso   1.00
C108   C     0.44365   0.93577   0.68020   0.00000  Uiso   1.00
C109   C     0.48890   0.92098   0.53154   0.00000  Uiso   1.00
C110   C     0.26567   0.02649   0.74423   0.00000  Uiso   1.00
C111   C     0.26735   0.07783   0.84463   0.00000  Uiso   1.00
C112   C     0.23198   0.12800   0.77118   0.00000  Uiso   1.00
C113   C     0.23002   0.92269   0.78578   0.00000  Uiso   1.00
C114   C     0.20171   0.88677   0.92113   0.00000  Uiso   1.00
C115   C     0.13630   0.84957   0.88269   0.00000  Uiso   1.00
H116   H     0.20709   0.96356   0.35927   0.00000  Uiso   1.00
H117   H     0.34314   0.93245   0.20852   0.00000  Uiso   1.00
H118   H     0.16687   0.07448   0.37294   0.00000  Uiso   1.00
H119   H     0.10124   0.88345   0.44943   0.00000  Uiso   1.00
H120   H     0.50976   0.89850   0.11539   0.00000  Uiso   1.00
H121   H     0.13804   0.19797   0.46210   0.00000  Uiso   1.00
H122   H     0.99965   0.79516   0.62340   0.00000  Uiso   1.00
H123   H     0.32857   0.96759   0.92953   0.00000  Uiso   1.00
H124   H     0.47129   0.93669   0.81007   0.00000  Uiso   1.00
H125   H     0.29501   0.07873   0.97449   0.00000  Uiso   1.00
H126   H     0.22939   0.88770   0.05098   0.00000  Uiso   1.00
H127   H     0.61377   0.90195   0.60363   0.00000  Uiso   1.00
H128   H     0.24204   0.20142   0.95034   0.00000  Uiso   1.00
H129   H     0.10366   0.79861   0.11164   0.00000  Uiso   1.00
O130   O     0.65346   0.87985   0.27063   0.00000  Uiso   1.00
O131   O     0.16577   0.27274   0.72551   0.00000  Uiso   1.00
O132   O     0.98421   0.74427   0.93712   0.00000  Uiso   1.00
N133   N     0.51464   0.90354   0.24669   0.00000  Uiso   1.00
N134   N     0.16712   0.18353   0.57083   0.00000  Uiso   1.00
N135   N     0.03772   0.80695   0.72165   0.00000  Uiso   1.00
N136   N     0.57061   0.90539   0.50941   0.00000  Uiso   1.00
N137   N     0.22309   0.18538   0.83355   0.00000  Uiso   1.00
N138   N     0.09369   0.80881   0.98437   0.00000  Uiso   1.00
C139   C     0.76507   0.03552   0.48992   0.00000  Uiso   1.00
C140   C     0.67431   0.05187   0.48709   0.00000  Uiso   1.00
C141   C     0.62917   0.06665   0.33837   0.00000  Uiso   1.00
C142   C     0.54691   0.08021   0.36342   0.00000  Uiso   1.00
C143   C     0.41141   0.10575   0.33350   0.00000  Uiso   1.00
C144   C     0.77008   0.97470   0.57642   0.00000  Uiso   1.00
C145   C     0.80547   0.92459   0.50280   0.00000  Uiso   1.00
C146   C     0.80384   0.87319   0.60307   0.00000  Uiso   1.00
C147   C     0.81707   0.77893   0.71187   0.00000  Uiso   1.00
C148   C     0.80573   0.07849   0.61797   0.00000  Uiso   1.00
C149   C     0.87111   0.11564   0.57931   0.00000  Uiso   1.00
C150   C     0.89951   0.15162   0.71457   0.00000  Uiso   1.00
C151   C     0.96809   0.21851   0.88789   0.00000  Uiso   1.00
C152   C     0.69926   0.03334   0.79888   0.00000  Uiso   1.00
C153   C     0.63857   0.05068   0.65491   0.00000  Uiso   1.00
C154   C     0.55635   0.06423   0.68020   0.00000  Uiso   1.00
C155   C     0.51110   0.07902   0.53154   0.00000  Uiso   1.00
C156   C     0.73433   0.97351   0.74423   0.00000  Uiso   1.00
C157   C     0.73265   0.92217   0.84463   0.00000  Uiso   1.00
C158   C     0.76802   0.87200   0.77118   0.00000  Uiso   1.00
C159   C     0.76998   0.07731   0.78578   0.00000  Uiso   1.00
C160   C     0.79829   0.11323   0.92113   0.00000  Uiso   1.00
C161   C     0.86370   0.15043   0.88269   0.00000  Uiso   1.00
H162   H     0.79291   0.03644   0.35927   0.00000  Uiso   1.00
H163   H     0.65686   0.06755   0.20852   0.00000  Uiso   1.00
H164   H     0.83313   0.92552   0.37294   0.00000  Uiso   1.00
H165   H     0.89876   0.11655   0.44943   0.00000  Uiso   1.00
H166   H     0.49024   0.10150   0.11539   0.00000  Uiso   1.00
H167   H     0.86196   0.80203   0.46210   0.00000  Uiso   1.00
H168   H     0.00035   0.20484   0.62340   0.00000  Uiso   1.00
H169   H     0.67143   0.03241   0.92953   0.00000  Uiso   1.00
H170   H     0.52871   0.06331   0.81007   0.00000  Uiso   1.00
H171   H     0.70499   0.92127   0.97449   0.00000  Uiso   1.00
H172   H     0.77061   0.11230   0.05098   0.00000  Uiso   1.00
H173   H     0.38623   0.09805   0.60363   0.00000  Uiso   1.00
H174   H     0.75796   0.79858   0.95034   0.00000  Uiso   1.00
H175   H     0.89634   0.20139   0.11164   0.00000  Uiso   1.00
O176   O     0.34654   0.12015   0.27063   0.00000  Uiso   1.00
O177   O     0.83423   0.72726   0.72551   0.00000  Uiso   1.00
O178   O     0.01579   0.25573   0.93712   0.00000  Uiso   1.00
N179   N     0.48536   0.09646   0.24669   0.00000  Uiso   1.00
N180   N     0.83288   0.81647   0.57083   0.00000  Uiso   1.00
N181   N     0.96228   0.19305   0.72165   0.00000  Uiso   1.00
N182   N     0.42939   0.09461   0.50941   0.00000  Uiso   1.00
N183   N     0.77691   0.81462   0.83355   0.00000  Uiso   1.00
N184   N     0.90631   0.19119   0.98437   0.00000  Uiso   1.00
