data_job_03502
_audit_creation_date              2018-12-19
_audit_creation_method            'Materials Studio'
_symmetry_space_group_name_H-M    'P1'
_symmetry_Int_Tables_number       1
_symmetry_cell_setting            triclinic
loop_
_symmetry_equiv_pos_as_xyz
  x,y,z
_cell_length_a                    21.0467
_cell_length_b                    21.0467
_cell_length_c                    16.3145
_cell_angle_alpha                 90.0000
_cell_angle_beta                  90.0000
_cell_angle_gamma                 90.0000
loop_
_atom_site_label
_atom_site_type_symbol
_atom_site_fract_x
_atom_site_fract_y
_atom_site_fract_z
_atom_site_U_iso_or_equiv
_atom_site_adp_type
_atom_site_occupancy
C1     C     0.24246   0.42086   0.19682   0.00000  Uiso   1.00
C2     C     0.22766   0.47418   0.25716   0.00000  Uiso   1.00
C3     C     0.19076   0.52734   0.24088   0.00000  Uiso   1.00
C4     C     0.18290   0.57068   0.30423   0.00000  Uiso   1.00
C5     C     0.15569   0.65494   0.38622   0.00000  Uiso   1.00
C6     C     0.31471   0.41673   0.19238   0.00000  Uiso   1.00
C7     C     0.35100   0.42158   0.12163   0.00000  Uiso   1.00
C8     C     0.41642   0.41654   0.13046   0.00000  Uiso   1.00
C9     C     0.52434   0.41157   0.11186   0.00000  Uiso   1.00
C10    C     0.22041   0.35962   0.23788   0.00000  Uiso   1.00
C11    C     0.17741   0.31644   0.20537   0.00000  Uiso   1.00
C12    C     0.16344   0.26331   0.25250   0.00000  Uiso   1.00
C13    C     0.12495   0.16966   0.30455   0.00000  Uiso   1.00
C14    C     0.29412   0.40327   0.33831   0.00000  Uiso   1.00
C15    C     0.25573   0.46463   0.33401   0.00000  Uiso   1.00
C16    C     0.24792   0.50789   0.39741   0.00000  Uiso   1.00
C17    C     0.21101   0.56111   0.38122   0.00000  Uiso   1.00
C18    C     0.34278   0.40718   0.26923   0.00000  Uiso   1.00
C19    C     0.40816   0.40213   0.27817   0.00000  Uiso   1.00
C20    C     0.44453   0.40698   0.20744   0.00000  Uiso   1.00
C21    C     0.24847   0.35007   0.31473   0.00000  Uiso   1.00
C22    C     0.23457   0.29699   0.36191   0.00000  Uiso   1.00
C23    C     0.19156   0.25374   0.32948   0.00000  Uiso   1.00
H24    H     0.22061   0.42829   0.13699   0.00000  Uiso   1.00
H25    H     0.16906   0.53472   0.18139   0.00000  Uiso   1.00
H26    H     0.32926   0.42897   0.06216   0.00000  Uiso   1.00
H27    H     0.15570   0.32385   0.14590   0.00000  Uiso   1.00
H28    H     0.12429   0.64852   0.26450   0.00000  Uiso   1.00
H29    H     0.46210   0.42551   0.01310   0.00000  Uiso   1.00
H30    H     0.09611   0.20384   0.18966   0.00000  Uiso   1.00
H31    H     0.31597   0.39584   0.39814   0.00000  Uiso   1.00
H32    H     0.26965   0.50049   0.45688   0.00000  Uiso   1.00
H33    H     0.42986   0.39473   0.33765   0.00000  Uiso   1.00
H34    H     0.25630   0.28961   0.42138   0.00000  Uiso   1.00
H35    H     0.20594   0.62073   0.48809   0.00000  Uiso   1.00
H36    H     0.54374   0.39772   0.23669   0.00000  Uiso   1.00
H37    H     0.17776   0.17605   0.41326   0.00000  Uiso   1.00
O38    O     0.13294   0.70406   0.41021   0.00000  Uiso   1.00
O39    O     0.57612   0.41147   0.08038   0.00000  Uiso   1.00
O40    O     0.09596   0.12065   0.31203   0.00000  Uiso   1.00
N41    N     0.14985   0.62761   0.30907   0.00000  Uiso   1.00
N42    N     0.46568   0.41912   0.07402   0.00000  Uiso   1.00
N43    N     0.12353   0.21187   0.23909   0.00000  Uiso   1.00
N44    N     0.19379   0.61266   0.42938   0.00000  Uiso   1.00
N45    N     0.50962   0.40417   0.19433   0.00000  Uiso   1.00
N46    N     0.16746   0.19692   0.35940   0.00000  Uiso   1.00
C47    C     0.75754   0.57914   0.19682   0.00000  Uiso   1.00
C48    C     0.77234   0.52582   0.25716   0.00000  Uiso   1.00
C49    C     0.80924   0.47266   0.24088   0.00000  Uiso   1.00
C50    C     0.81710   0.42932   0.30423   0.00000  Uiso   1.00
C51    C     0.84431   0.34506   0.38622   0.00000  Uiso   1.00
C52    C     0.68529   0.58327   0.19238   0.00000  Uiso   1.00
C53    C     0.64900   0.57842   0.12163   0.00000  Uiso   1.00
C54    C     0.58358   0.58346   0.13046   0.00000  Uiso   1.00
C55    C     0.47566   0.58843   0.11186   0.00000  Uiso   1.00
C56    C     0.77959   0.64038   0.23788   0.00000  Uiso   1.00
C57    C     0.82259   0.68356   0.20537   0.00000  Uiso   1.00
C58    C     0.83656   0.73669   0.25250   0.00000  Uiso   1.00
C59    C     0.87505   0.83034   0.30455   0.00000  Uiso   1.00
C60    C     0.70588   0.59673   0.33831   0.00000  Uiso   1.00
C61    C     0.74427   0.53537   0.33401   0.00000  Uiso   1.00
C62    C     0.75208   0.49211   0.39741   0.00000  Uiso   1.00
C63    C     0.78899   0.43889   0.38122   0.00000  Uiso   1.00
C64    C     0.65722   0.59282   0.26923   0.00000  Uiso   1.00
C65    C     0.59184   0.59787   0.27817   0.00000  Uiso   1.00
C66    C     0.55547   0.59302   0.20744   0.00000  Uiso   1.00
C67    C     0.75153   0.64993   0.31473   0.00000  Uiso   1.00
C68    C     0.76543   0.70301   0.36191   0.00000  Uiso   1.00
C69    C     0.80844   0.74626   0.32948   0.00000  Uiso   1.00
H70    H     0.77939   0.57171   0.13699   0.00000  Uiso   1.00
H71    H     0.83094   0.46528   0.18139   0.00000  Uiso   1.00
H72    H     0.67074   0.57103   0.06216   0.00000  Uiso   1.00
H73    H     0.84430   0.67615   0.14590   0.00000  Uiso   1.00
H74    H     0.87571   0.35148   0.26450   0.00000  Uiso   1.00
H75    H     0.53790   0.57449   0.01310   0.00000  Uiso   1.00
H76    H     0.90389   0.79616   0.18966   0.00000  Uiso   1.00
H77    H     0.68403   0.60416   0.39814   0.00000  Uiso   1.00
H78    H     0.73035   0.49951   0.45688   0.00000  Uiso   1.00
H79    H     0.57014   0.60527   0.33765   0.00000  Uiso   1.00
H80    H     0.74370   0.71039   0.42138   0.00000  Uiso   1.00
H81    H     0.79406   0.37927   0.48809   0.00000  Uiso   1.00
H82    H     0.45626   0.60228   0.23669   0.00000  Uiso   1.00
H83    H     0.82224   0.82395   0.41326   0.00000  Uiso   1.00
O84    O     0.86706   0.29594   0.41021   0.00000  Uiso   1.00
O85    O     0.42388   0.58853   0.08038   0.00000  Uiso   1.00
O86    O     0.90404   0.87935   0.31203   0.00000  Uiso   1.00
N87    N     0.85015   0.37239   0.30907   0.00000  Uiso   1.00
N88    N     0.53432   0.58088   0.07402   0.00000  Uiso   1.00
N89    N     0.87647   0.78813   0.23909   0.00000  Uiso   1.00
N90    N     0.80621   0.38734   0.42938   0.00000  Uiso   1.00
N91    N     0.49038   0.59583   0.19433   0.00000  Uiso   1.00
N92    N     0.83254   0.80308   0.35940   0.00000  Uiso   1.00
C93    C     0.42086   0.75754   0.80318   0.00000  Uiso   1.00
C94    C     0.47418   0.77234   0.74284   0.00000  Uiso   1.00
C95    C     0.52734   0.80924   0.75912   0.00000  Uiso   1.00
C96    C     0.57068   0.81710   0.69577   0.00000  Uiso   1.00
C97    C     0.65494   0.84431   0.61378   0.00000  Uiso   1.00
C98    C     0.41673   0.68529   0.80762   0.00000  Uiso   1.00
C99    C     0.42158   0.64900   0.87837   0.00000  Uiso   1.00
C100   C     0.41654   0.58358   0.86954   0.00000  Uiso   1.00
C101   C     0.41157   0.47566   0.88814   0.00000  Uiso   1.00
C102   C     0.35962   0.77959   0.76212   0.00000  Uiso   1.00
C103   C     0.31644   0.82259   0.79463   0.00000  Uiso   1.00
C104   C     0.26331   0.83656   0.74750   0.00000  Uiso   1.00
C105   C     0.16966   0.87505   0.69545   0.00000  Uiso   1.00
C106   C     0.40327   0.70588   0.66169   0.00000  Uiso   1.00
C107   C     0.46463   0.74427   0.66599   0.00000  Uiso   1.00
C108   C     0.50789   0.75208   0.60259   0.00000  Uiso   1.00
C109   C     0.56111   0.78899   0.61878   0.00000  Uiso   1.00
C110   C     0.40718   0.65722   0.73077   0.00000  Uiso   1.00
C111   C     0.40213   0.59184   0.72183   0.00000  Uiso   1.00
C112   C     0.40698   0.55547   0.79256   0.00000  Uiso   1.00
C113   C     0.35007   0.75153   0.68527   0.00000  Uiso   1.00
C114   C     0.29699   0.76543   0.63809   0.00000  Uiso   1.00
C115   C     0.25374   0.80844   0.67052   0.00000  Uiso   1.00
H116   H     0.42829   0.77939   0.86301   0.00000  Uiso   1.00
H117   H     0.53472   0.83094   0.81861   0.00000  Uiso   1.00
H118   H     0.42897   0.67074   0.93784   0.00000  Uiso   1.00
H119   H     0.32385   0.84430   0.85410   0.00000  Uiso   1.00
H120   H     0.64852   0.87571   0.73550   0.00000  Uiso   1.00
H121   H     0.42551   0.53790   0.98690   0.00000  Uiso   1.00
H122   H     0.20384   0.90389   0.81034   0.00000  Uiso   1.00
H123   H     0.39584   0.68403   0.60186   0.00000  Uiso   1.00
H124   H     0.50049   0.73035   0.54312   0.00000  Uiso   1.00
H125   H     0.39473   0.57014   0.66235   0.00000  Uiso   1.00
H126   H     0.28961   0.74370   0.57862   0.00000  Uiso   1.00
H127   H     0.62073   0.79406   0.51191   0.00000  Uiso   1.00
H128   H     0.39772   0.45626   0.76331   0.00000  Uiso   1.00
H129   H     0.17605   0.82224   0.58674   0.00000  Uiso   1.00
O130   O     0.70406   0.86706   0.58979   0.00000  Uiso   1.00
O131   O     0.41147   0.42388   0.91962   0.00000  Uiso   1.00
O132   O     0.12065   0.90404   0.68797   0.00000  Uiso   1.00
N133   N     0.62761   0.85015   0.69093   0.00000  Uiso   1.00
N134   N     0.41912   0.53432   0.92598   0.00000  Uiso   1.00
N135   N     0.21187   0.87647   0.76091   0.00000  Uiso   1.00
N136   N     0.61266   0.80621   0.57062   0.00000  Uiso   1.00
N137   N     0.40417   0.49038   0.80567   0.00000  Uiso   1.00
N138   N     0.19692   0.83254   0.64060   0.00000  Uiso   1.00
C139   C     0.57914   0.24246   0.80318   0.00000  Uiso   1.00
C140   C     0.52582   0.22766   0.74284   0.00000  Uiso   1.00
C141   C     0.47266   0.19076   0.75912   0.00000  Uiso   1.00
C142   C     0.42932   0.18290   0.69577   0.00000  Uiso   1.00
C143   C     0.34506   0.15569   0.61378   0.00000  Uiso   1.00
C144   C     0.58327   0.31471   0.80762   0.00000  Uiso   1.00
C145   C     0.57842   0.35100   0.87837   0.00000  Uiso   1.00
C146   C     0.58346   0.41642   0.86954   0.00000  Uiso   1.00
C147   C     0.58843   0.52434   0.88814   0.00000  Uiso   1.00
C148   C     0.64038   0.22041   0.76212   0.00000  Uiso   1.00
C149   C     0.68356   0.17741   0.79463   0.00000  Uiso   1.00
C150   C     0.73669   0.16344   0.74750   0.00000  Uiso   1.00
C151   C     0.83034   0.12495   0.69545   0.00000  Uiso   1.00
C152   C     0.59673   0.29412   0.66169   0.00000  Uiso   1.00
C153   C     0.53537   0.25573   0.66599   0.00000  Uiso   1.00
C154   C     0.49211   0.24792   0.60259   0.00000  Uiso   1.00
C155   C     0.43889   0.21101   0.61878   0.00000  Uiso   1.00
C156   C     0.59282   0.34278   0.73077   0.00000  Uiso   1.00
C157   C     0.59787   0.40816   0.72183   0.00000  Uiso   1.00
C158   C     0.59302   0.44453   0.79256   0.00000  Uiso   1.00
C159   C     0.64993   0.24847   0.68527   0.00000  Uiso   1.00
C160   C     0.70301   0.23457   0.63809   0.00000  Uiso   1.00
C161   C     0.74626   0.19156   0.67052   0.00000  Uiso   1.00
H162   H     0.57171   0.22061   0.86301   0.00000  Uiso   1.00
H163   H     0.46528   0.16906   0.81861   0.00000  Uiso   1.00
H164   H     0.57103   0.32926   0.93784   0.00000  Uiso   1.00
H165   H     0.67615   0.15570   0.85410   0.00000  Uiso   1.00
H166   H     0.35148   0.12429   0.73550   0.00000  Uiso   1.00
H167   H     0.57449   0.46210   0.98690   0.00000  Uiso   1.00
H168   H     0.79616   0.09611   0.81034   0.00000  Uiso   1.00
H169   H     0.60416   0.31597   0.60186   0.00000  Uiso   1.00
H170   H     0.49951   0.26965   0.54312   0.00000  Uiso   1.00
H171   H     0.60527   0.42986   0.66235   0.00000  Uiso   1.00
H172   H     0.71039   0.25630   0.57862   0.00000  Uiso   1.00
H173   H     0.37927   0.20594   0.51191   0.00000  Uiso   1.00
H174   H     0.60228   0.54374   0.76331   0.00000  Uiso   1.00
H175   H     0.82395   0.17776   0.58674   0.00000  Uiso   1.00
O176   O     0.29594   0.13294   0.58979   0.00000  Uiso   1.00
O177   O     0.58853   0.57612   0.91962   0.00000  Uiso   1.00
O178   O     0.87935   0.09596   0.68797   0.00000  Uiso   1.00
N179   N     0.37239   0.14985   0.69093   0.00000  Uiso   1.00
N180   N     0.58088   0.46568   0.92598   0.00000  Uiso   1.00
N181   N     0.78813   0.12353   0.76091   0.00000  Uiso   1.00
N182   N     0.38734   0.19379   0.57062   0.00000  Uiso   1.00
N183   N     0.59583   0.50962   0.80567   0.00000  Uiso   1.00
N184   N     0.80308   0.16746   0.64060   0.00000  Uiso   1.00
C185   C     0.74246   0.07914   0.19682   0.00000  Uiso   1.00
C186   C     0.72766   0.02582   0.25716   0.00000  Uiso   1.00
C187   C     0.69076   0.97266   0.24088   0.00000  Uiso   1.00
C188   C     0.68290   0.92932   0.30423   0.00000  Uiso   1.00
C189   C     0.65569   0.84506   0.38622   0.00000  Uiso   1.00
C190   C     0.81471   0.08327   0.19238   0.00000  Uiso   1.00
C191   C     0.85100   0.07842   0.12163   0.00000  Uiso   1.00
C192   C     0.91642   0.08346   0.13046   0.00000  Uiso   1.00
C193   C     0.02434   0.08843   0.11186   0.00000  Uiso   1.00
C194   C     0.72041   0.14038   0.23788   0.00000  Uiso   1.00
C195   C     0.67741   0.18356   0.20537   0.00000  Uiso   1.00
C196   C     0.66344   0.23669   0.25250   0.00000  Uiso   1.00
C197   C     0.62495   0.33034   0.30455   0.00000  Uiso   1.00
C198   C     0.79412   0.09673   0.33831   0.00000  Uiso   1.00
C199   C     0.75573   0.03537   0.33401   0.00000  Uiso   1.00
C200   C     0.74792   0.99211   0.39741   0.00000  Uiso   1.00
C201   C     0.71101   0.93889   0.38122   0.00000  Uiso   1.00
C202   C     0.84278   0.09282   0.26923   0.00000  Uiso   1.00
C203   C     0.90816   0.09787   0.27817   0.00000  Uiso   1.00
C204   C     0.94453   0.09302   0.20744   0.00000  Uiso   1.00
C205   C     0.74847   0.14993   0.31473   0.00000  Uiso   1.00
C206   C     0.73457   0.20301   0.36191   0.00000  Uiso   1.00
C207   C     0.69156   0.24626   0.32948   0.00000  Uiso   1.00
H208   H     0.72061   0.07171   0.13699   0.00000  Uiso   1.00
H209   H     0.66906   0.96528   0.18139   0.00000  Uiso   1.00
H210   H     0.82926   0.07103   0.06216   0.00000  Uiso   1.00
H211   H     0.65570   0.17615   0.14590   0.00000  Uiso   1.00
H212   H     0.62429   0.85148   0.26450   0.00000  Uiso   1.00
H213   H     0.96210   0.07449   0.01310   0.00000  Uiso   1.00
H214   H     0.59611   0.29616   0.18966   0.00000  Uiso   1.00
H215   H     0.81597   0.10416   0.39814   0.00000  Uiso   1.00
H216   H     0.76965   0.99951   0.45688   0.00000  Uiso   1.00
H217   H     0.92986   0.10527   0.33765   0.00000  Uiso   1.00
H218   H     0.75630   0.21039   0.42138   0.00000  Uiso   1.00
H219   H     0.70594   0.87927   0.48809   0.00000  Uiso   1.00
H220   H     0.04374   0.10228   0.23669   0.00000  Uiso   1.00
H221   H     0.67776   0.32395   0.41326   0.00000  Uiso   1.00
O222   O     0.63294   0.79594   0.41021   0.00000  Uiso   1.00
O223   O     0.07612   0.08853   0.08038   0.00000  Uiso   1.00
O224   O     0.59596   0.37935   0.31203   0.00000  Uiso   1.00
N225   N     0.64985   0.87239   0.30907   0.00000  Uiso   1.00
N226   N     0.96568   0.08088   0.07402   0.00000  Uiso   1.00
N227   N     0.62353   0.28813   0.23909   0.00000  Uiso   1.00
N228   N     0.69379   0.88734   0.42938   0.00000  Uiso   1.00
N229   N     0.00962   0.09583   0.19433   0.00000  Uiso   1.00
N230   N     0.66746   0.30308   0.35940   0.00000  Uiso   1.00
C231   C     0.25754   0.92086   0.19682   0.00000  Uiso   1.00
C232   C     0.27234   0.97418   0.25716   0.00000  Uiso   1.00
C233   C     0.30924   0.02734   0.24088   0.00000  Uiso   1.00
C234   C     0.31710   0.07068   0.30423   0.00000  Uiso   1.00
C235   C     0.34431   0.15494   0.38622   0.00000  Uiso   1.00
C236   C     0.18529   0.91673   0.19238   0.00000  Uiso   1.00
C237   C     0.14900   0.92158   0.12163   0.00000  Uiso   1.00
C238   C     0.08358   0.91654   0.13046   0.00000  Uiso   1.00
C239   C     0.97566   0.91157   0.11186   0.00000  Uiso   1.00
C240   C     0.27959   0.85962   0.23788   0.00000  Uiso   1.00
C241   C     0.32259   0.81644   0.20537   0.00000  Uiso   1.00
C242   C     0.33656   0.76331   0.25250   0.00000  Uiso   1.00
C243   C     0.37505   0.66966   0.30455   0.00000  Uiso   1.00
C244   C     0.20588   0.90327   0.33831   0.00000  Uiso   1.00
C245   C     0.24427   0.96463   0.33401   0.00000  Uiso   1.00
C246   C     0.25208   0.00789   0.39741   0.00000  Uiso   1.00
C247   C     0.28899   0.06111   0.38122   0.00000  Uiso   1.00
C248   C     0.15722   0.90718   0.26923   0.00000  Uiso   1.00
C249   C     0.09184   0.90213   0.27817   0.00000  Uiso   1.00
C250   C     0.05547   0.90698   0.20744   0.00000  Uiso   1.00
C251   C     0.25153   0.85007   0.31473   0.00000  Uiso   1.00
C252   C     0.26543   0.79699   0.36191   0.00000  Uiso   1.00
C253   C     0.30844   0.75374   0.32948   0.00000  Uiso   1.00
H254   H     0.27939   0.92829   0.13699   0.00000  Uiso   1.00
H255   H     0.33094   0.03472   0.18139   0.00000  Uiso   1.00
H256   H     0.17074   0.92897   0.06216   0.00000  Uiso   1.00
H257   H     0.34430   0.82385   0.14590   0.00000  Uiso   1.00
H258   H     0.37571   0.14852   0.26450   0.00000  Uiso   1.00
H259   H     0.03790   0.92551   0.01310   0.00000  Uiso   1.00
H260   H     0.40389   0.70384   0.18966   0.00000  Uiso   1.00
H261   H     0.18403   0.89584   0.39814   0.00000  Uiso   1.00
H262   H     0.23035   0.00049   0.45688   0.00000  Uiso   1.00
H263   H     0.07014   0.89473   0.33765   0.00000  Uiso   1.00
H264   H     0.24370   0.78961   0.42138   0.00000  Uiso   1.00
H265   H     0.29406   0.12073   0.48809   0.00000  Uiso   1.00
H266   H     0.95626   0.89772   0.23669   0.00000  Uiso   1.00
H267   H     0.32224   0.67605   0.41326   0.00000  Uiso   1.00
O268   O     0.36706   0.20406   0.41021   0.00000  Uiso   1.00
O269   O     0.92388   0.91147   0.08038   0.00000  Uiso   1.00
O270   O     0.40404   0.62065   0.31203   0.00000  Uiso   1.00
N271   N     0.35015   0.12761   0.30907   0.00000  Uiso   1.00
N272   N     0.03432   0.91912   0.07402   0.00000  Uiso   1.00
N273   N     0.37647   0.71187   0.23909   0.00000  Uiso   1.00
N274   N     0.30621   0.11266   0.42938   0.00000  Uiso   1.00
N275   N     0.99038   0.90417   0.19433   0.00000  Uiso   1.00
N276   N     0.33254   0.69692   0.35940   0.00000  Uiso   1.00
C277   C     0.92086   0.74246   0.80318   0.00000  Uiso   1.00
C278   C     0.97418   0.72766   0.74284   0.00000  Uiso   1.00
C279   C     0.02734   0.69076   0.75912   0.00000  Uiso   1.00
C280   C     0.07068   0.68290   0.69577   0.00000  Uiso   1.00
C281   C     0.15494   0.65569   0.61378   0.00000  Uiso   1.00
C282   C     0.91673   0.81471   0.80762   0.00000  Uiso   1.00
C283   C     0.92158   0.85100   0.87837   0.00000  Uiso   1.00
C284   C     0.91654   0.91642   0.86954   0.00000  Uiso   1.00
C285   C     0.91157   0.02434   0.88814   0.00000  Uiso   1.00
C286   C     0.85962   0.72041   0.76212   0.00000  Uiso   1.00
C287   C     0.81644   0.67741   0.79463   0.00000  Uiso   1.00
C288   C     0.76331   0.66344   0.74750   0.00000  Uiso   1.00
C289   C     0.66966   0.62495   0.69545   0.00000  Uiso   1.00
C290   C     0.90327   0.79412   0.66169   0.00000  Uiso   1.00
C291   C     0.96463   0.75573   0.66599   0.00000  Uiso   1.00
C292   C     0.00789   0.74792   0.60259   0.00000  Uiso   1.00
C293   C     0.06111   0.71101   0.61878   0.00000  Uiso   1.00
C294   C     0.90718   0.84278   0.73077   0.00000  Uiso   1.00
C295   C     0.90213   0.90816   0.72183   0.00000  Uiso   1.00
C296   C     0.90698   0.94453   0.79256   0.00000  Uiso   1.00
C297   C     0.85007   0.74847   0.68527   0.00000  Uiso   1.00
C298   C     0.79699   0.73457   0.63809   0.00000  Uiso   1.00
C299   C     0.75374   0.69156   0.67052   0.00000  Uiso   1.00
H300   H     0.92829   0.72061   0.86301   0.00000  Uiso   1.00
H301   H     0.03472   0.66906   0.81861   0.00000  Uiso   1.00
H302   H     0.92897   0.82926   0.93784   0.00000  Uiso   1.00
H303   H     0.82385   0.65570   0.85410   0.00000  Uiso   1.00
H304   H     0.14852   0.62429   0.73550   0.00000  Uiso   1.00
H305   H     0.92551   0.96210   0.98690   0.00000  Uiso   1.00
H306   H     0.70384   0.59611   0.81034   0.00000  Uiso   1.00
H307   H     0.89584   0.81597   0.60186   0.00000  Uiso   1.00
H308   H     0.00049   0.76965   0.54312   0.00000  Uiso   1.00
H309   H     0.89473   0.92986   0.66235   0.00000  Uiso   1.00
H310   H     0.78961   0.75630   0.57862   0.00000  Uiso   1.00
H311   H     0.12073   0.70594   0.51191   0.00000  Uiso   1.00
H312   H     0.89772   0.04374   0.76331   0.00000  Uiso   1.00
H313   H     0.67605   0.67776   0.58674   0.00000  Uiso   1.00
O314   O     0.20406   0.63294   0.58979   0.00000  Uiso   1.00
O315   O     0.91147   0.07612   0.91962   0.00000  Uiso   1.00
O316   O     0.62065   0.59596   0.68797   0.00000  Uiso   1.00
N317   N     0.12761   0.64985   0.69093   0.00000  Uiso   1.00
N318   N     0.91912   0.96568   0.92598   0.00000  Uiso   1.00
N319   N     0.71187   0.62353   0.76091   0.00000  Uiso   1.00
N320   N     0.11266   0.69379   0.57062   0.00000  Uiso   1.00
N321   N     0.90417   0.00962   0.80567   0.00000  Uiso   1.00
N322   N     0.69692   0.66746   0.64060   0.00000  Uiso   1.00
C323   C     0.07914   0.25754   0.80318   0.00000  Uiso   1.00
C324   C     0.02582   0.27234   0.74284   0.00000  Uiso   1.00
C325   C     0.97266   0.30924   0.75912   0.00000  Uiso   1.00
C326   C     0.92932   0.31710   0.69577   0.00000  Uiso   1.00
C327   C     0.84506   0.34431   0.61378   0.00000  Uiso   1.00
C328   C     0.08327   0.18529   0.80762   0.00000  Uiso   1.00
C329   C     0.07842   0.14900   0.87837   0.00000  Uiso   1.00
C330   C     0.08346   0.08358   0.86954   0.00000  Uiso   1.00
C331   C     0.08843   0.97566   0.88814   0.00000  Uiso   1.00
C332   C     0.14038   0.27959   0.76212   0.00000  Uiso   1.00
C333   C     0.18356   0.32259   0.79463   0.00000  Uiso   1.00
C334   C     0.23669   0.33656   0.74750   0.00000  Uiso   1.00
C335   C     0.33034   0.37505   0.69545   0.00000  Uiso   1.00
C336   C     0.09673   0.20588   0.66169   0.00000  Uiso   1.00
C337   C     0.03537   0.24427   0.66599   0.00000  Uiso   1.00
C338   C     0.99211   0.25208   0.60259   0.00000  Uiso   1.00
C339   C     0.93889   0.28899   0.61878   0.00000  Uiso   1.00
C340   C     0.09282   0.15722   0.73077   0.00000  Uiso   1.00
C341   C     0.09787   0.09184   0.72183   0.00000  Uiso   1.00
C342   C     0.09302   0.05547   0.79256   0.00000  Uiso   1.00
C343   C     0.14993   0.25153   0.68527   0.00000  Uiso   1.00
C344   C     0.20301   0.26543   0.63809   0.00000  Uiso   1.00
C345   C     0.24626   0.30844   0.67052   0.00000  Uiso   1.00
H346   H     0.07171   0.27939   0.86301   0.00000  Uiso   1.00
H347   H     0.96528   0.33094   0.81861   0.00000  Uiso   1.00
H348   H     0.07103   0.17074   0.93784   0.00000  Uiso   1.00
H349   H     0.17615   0.34430   0.85410   0.00000  Uiso   1.00
H350   H     0.85148   0.37571   0.73550   0.00000  Uiso   1.00
H351   H     0.07449   0.03790   0.98690   0.00000  Uiso   1.00
H352   H     0.29616   0.40389   0.81034   0.00000  Uiso   1.00
H353   H     0.10416   0.18403   0.60186   0.00000  Uiso   1.00
H354   H     0.99951   0.23035   0.54312   0.00000  Uiso   1.00
H355   H     0.10527   0.07014   0.66235   0.00000  Uiso   1.00
H356   H     0.21039   0.24370   0.57862   0.00000  Uiso   1.00
H357   H     0.87927   0.29406   0.51191   0.00000  Uiso   1.00
H358   H     0.10228   0.95626   0.76331   0.00000  Uiso   1.00
H359   H     0.32395   0.32224   0.58674   0.00000  Uiso   1.00
O360   O     0.79594   0.36706   0.58979   0.00000  Uiso   1.00
O361   O     0.08853   0.92388   0.91962   0.00000  Uiso   1.00
O362   O     0.37935   0.40404   0.68797   0.00000  Uiso   1.00
N363   N     0.87239   0.35015   0.69093   0.00000  Uiso   1.00
N364   N     0.08088   0.03432   0.92598   0.00000  Uiso   1.00
N365   N     0.28813   0.37647   0.76091   0.00000  Uiso   1.00
N366   N     0.88734   0.30621   0.57062   0.00000  Uiso   1.00
N367   N     0.09583   0.99038   0.80567   0.00000  Uiso   1.00
N368   N     0.30308   0.33254   0.64060   0.00000  Uiso   1.00
