data_job_03986
_audit_creation_date              2018-12-19
_audit_creation_method            'Materials Studio'
_symmetry_space_group_name_H-M    'P1'
_symmetry_Int_Tables_number       1
_symmetry_cell_setting            triclinic
loop_
_symmetry_equiv_pos_as_xyz
  x,y,z
_cell_length_a                    7.8334
_cell_length_b                    36.3504
_cell_length_c                    19.8423
_cell_angle_alpha                 90.0000
_cell_angle_beta                  90.0000
_cell_angle_gamma                 90.0000
loop_
_atom_site_label
_atom_site_type_symbol
_atom_site_fract_x
_atom_site_fract_y
_atom_site_fract_z
_atom_site_U_iso_or_equiv
_atom_site_adp_type
_atom_site_occupancy
C1     C     0.18456   0.92081   0.30574   0.00000  Uiso   1.00
C2     C     0.07703   0.94847   0.34494   0.00000  Uiso   1.00
C3     C     0.12497   0.98416   0.36102   0.00000  Uiso   1.00
C4     C     0.00851   0.00511   0.39720   0.00000  Uiso   1.00
C5     C     0.86570   0.05022   0.45516   0.00000  Uiso   1.00
C6     C     0.20061   0.88705   0.35092   0.00000  Uiso   1.00
C7     C     0.35246   0.87110   0.37200   0.00000  Uiso   1.00
C8     C     0.34003   0.84035   0.41320   0.00000  Uiso   1.00
C9     C     0.38909   0.79009   0.48038   0.00000  Uiso   1.00
C10    C     0.07590   0.90892   0.24582   0.00000  Uiso   1.00
C11    C     0.12291   0.91135   0.17853   0.00000  Uiso   1.00
C12    C     0.00550   0.89899   0.13124   0.00000  Uiso   1.00
C13    C     0.86093   0.88269   0.03525   0.00000  Uiso   1.00
C14    C     0.89248   0.89455   0.34142   0.00000  Uiso   1.00
C15    C     0.91838   0.93420   0.36433   0.00000  Uiso   1.00
C16    C     0.80181   0.95510   0.40049   0.00000  Uiso   1.00
C17    C     0.84958   0.99082   0.41661   0.00000  Uiso   1.00
C18    C     0.04197   0.87279   0.37030   0.00000  Uiso   1.00
C19    C     0.02931   0.84205   0.41147   0.00000  Uiso   1.00
C20    C     0.18110   0.82606   0.43262   0.00000  Uiso   1.00
C21    C     0.91725   0.89466   0.26520   0.00000  Uiso   1.00
C22    C     0.79975   0.88229   0.21801   0.00000  Uiso   1.00
C23    C     0.84657   0.88470   0.15066   0.00000  Uiso   1.00
H24    H     0.30808   0.93192   0.29065   0.00000  Uiso   1.00
H25    H     0.24776   0.99519   0.34601   0.00000  Uiso   1.00
H26    H     0.47521   0.88215   0.35699   0.00000  Uiso   1.00
H27    H     0.24569   0.92239   0.16355   0.00000  Uiso   1.00
H28    H     0.11095   0.05904   0.41596   0.00000  Uiso   1.00
H29    H     0.59055   0.82068   0.43908   0.00000  Uiso   1.00
H30    H     0.10656   0.90553   0.03118   0.00000  Uiso   1.00
H31    H     0.76897   0.88344   0.35651   0.00000  Uiso   1.00
H32    H     0.67906   0.94406   0.41548   0.00000  Uiso   1.00
H33    H     0.90652   0.83102   0.42646   0.00000  Uiso   1.00
H34    H     0.67699   0.87126   0.23302   0.00000  Uiso   1.00
H35    H     0.64937   0.01754   0.47235   0.00000  Uiso   1.00
H36    H     0.12898   0.77918   0.49546   0.00000  Uiso   1.00
H37    H     0.64498   0.86403   0.08756   0.00000  Uiso   1.00
O38    O     0.83077   0.07903   0.48178   0.00000  Uiso   1.00
O39    O     0.45998   0.76631   0.51210   0.00000  Uiso   1.00
O40    O     0.82500   0.87764   0.97694   0.00000  Uiso   1.00
N41    N     0.01464   0.04096   0.42113   0.00000  Uiso   1.00
N42    N     0.46304   0.81811   0.44275   0.00000  Uiso   1.00
N43    N     0.01057   0.89743   0.06139   0.00000  Uiso   1.00
N44    N     0.76627   0.01863   0.45147   0.00000  Uiso   1.00
N45    N     0.21467   0.79578   0.47309   0.00000  Uiso   1.00
N46    N     0.76219   0.87510   0.09174   0.00000  Uiso   1.00
C47    C     0.31544   0.57919   0.30574   0.00000  Uiso   1.00
C48    C     0.42297   0.55153   0.34494   0.00000  Uiso   1.00
C49    C     0.37503   0.51584   0.36102   0.00000  Uiso   1.00
C50    C     0.49149   0.49489   0.39720   0.00000  Uiso   1.00
C51    C     0.63430   0.44978   0.45516   0.00000  Uiso   1.00
C52    C     0.29939   0.61295   0.35092   0.00000  Uiso   1.00
C53    C     0.14754   0.62890   0.37200   0.00000  Uiso   1.00
C54    C     0.15997   0.65965   0.41320   0.00000  Uiso   1.00
C55    C     0.11091   0.70991   0.48038   0.00000  Uiso   1.00
C56    C     0.42410   0.59108   0.24582   0.00000  Uiso   1.00
C57    C     0.37709   0.58865   0.17853   0.00000  Uiso   1.00
C58    C     0.49450   0.60101   0.13124   0.00000  Uiso   1.00
C59    C     0.63907   0.61731   0.03525   0.00000  Uiso   1.00
C60    C     0.60752   0.60545   0.34142   0.00000  Uiso   1.00
C61    C     0.58162   0.56580   0.36433   0.00000  Uiso   1.00
C62    C     0.69819   0.54490   0.40049   0.00000  Uiso   1.00
C63    C     0.65042   0.50918   0.41661   0.00000  Uiso   1.00
C64    C     0.45803   0.62721   0.37030   0.00000  Uiso   1.00
C65    C     0.47069   0.65795   0.41147   0.00000  Uiso   1.00
C66    C     0.31890   0.67394   0.43262   0.00000  Uiso   1.00
C67    C     0.58275   0.60534   0.26520   0.00000  Uiso   1.00
C68    C     0.70025   0.61771   0.21801   0.00000  Uiso   1.00
C69    C     0.65343   0.61530   0.15066   0.00000  Uiso   1.00
H70    H     0.19192   0.56808   0.29065   0.00000  Uiso   1.00
H71    H     0.25224   0.50481   0.34601   0.00000  Uiso   1.00
H72    H     0.02479   0.61785   0.35699   0.00000  Uiso   1.00
H73    H     0.25431   0.57761   0.16355   0.00000  Uiso   1.00
H74    H     0.38905   0.44096   0.41596   0.00000  Uiso   1.00
H75    H     0.90945   0.67932   0.43908   0.00000  Uiso   1.00
H76    H     0.39344   0.59447   0.03118   0.00000  Uiso   1.00
H77    H     0.73103   0.61656   0.35651   0.00000  Uiso   1.00
H78    H     0.82094   0.55594   0.41548   0.00000  Uiso   1.00
H79    H     0.59348   0.66898   0.42646   0.00000  Uiso   1.00
H80    H     0.82301   0.62874   0.23302   0.00000  Uiso   1.00
H81    H     0.85063   0.48246   0.47235   0.00000  Uiso   1.00
H82    H     0.37102   0.72082   0.49546   0.00000  Uiso   1.00
H83    H     0.85502   0.63597   0.08756   0.00000  Uiso   1.00
O84    O     0.66923   0.42097   0.48178   0.00000  Uiso   1.00
O85    O     0.04002   0.73369   0.51210   0.00000  Uiso   1.00
O86    O     0.67500   0.62236   0.97694   0.00000  Uiso   1.00
N87    N     0.48536   0.45904   0.42113   0.00000  Uiso   1.00
N88    N     0.03696   0.68189   0.44275   0.00000  Uiso   1.00
N89    N     0.48943   0.60257   0.06139   0.00000  Uiso   1.00
N90    N     0.73373   0.48137   0.45147   0.00000  Uiso   1.00
N91    N     0.28533   0.70422   0.47309   0.00000  Uiso   1.00
N92    N     0.73781   0.62490   0.09174   0.00000  Uiso   1.00
C93    C     0.81544   0.42081   0.19426   0.00000  Uiso   1.00
C94    C     0.92297   0.44847   0.15506   0.00000  Uiso   1.00
C95    C     0.87503   0.48416   0.13898   0.00000  Uiso   1.00
C96    C     0.99149   0.50511   0.10280   0.00000  Uiso   1.00
C97    C     0.13430   0.55022   0.04484   0.00000  Uiso   1.00
C98    C     0.79939   0.38705   0.14908   0.00000  Uiso   1.00
C99    C     0.64754   0.37110   0.12800   0.00000  Uiso   1.00
C100   C     0.65997   0.34035   0.08680   0.00000  Uiso   1.00
C101   C     0.61091   0.29009   0.01962   0.00000  Uiso   1.00
C102   C     0.92410   0.40892   0.25418   0.00000  Uiso   1.00
C103   C     0.87709   0.41135   0.32147   0.00000  Uiso   1.00
C104   C     0.99450   0.39899   0.36876   0.00000  Uiso   1.00
C105   C     0.13907   0.38269   0.46475   0.00000  Uiso   1.00
C106   C     0.10752   0.39455   0.15858   0.00000  Uiso   1.00
C107   C     0.08162   0.43420   0.13567   0.00000  Uiso   1.00
C108   C     0.19819   0.45510   0.09951   0.00000  Uiso   1.00
C109   C     0.15042   0.49082   0.08339   0.00000  Uiso   1.00
C110   C     0.95803   0.37279   0.12970   0.00000  Uiso   1.00
C111   C     0.97069   0.34205   0.08853   0.00000  Uiso   1.00
C112   C     0.81890   0.32606   0.06738   0.00000  Uiso   1.00
C113   C     0.08275   0.39466   0.23480   0.00000  Uiso   1.00
C114   C     0.20025   0.38229   0.28199   0.00000  Uiso   1.00
C115   C     0.15343   0.38470   0.34934   0.00000  Uiso   1.00
H116   H     0.69192   0.43192   0.20935   0.00000  Uiso   1.00
H117   H     0.75224   0.49519   0.15399   0.00000  Uiso   1.00
H118   H     0.52479   0.38215   0.14301   0.00000  Uiso   1.00
H119   H     0.75431   0.42239   0.33645   0.00000  Uiso   1.00
H120   H     0.88905   0.55904   0.08404   0.00000  Uiso   1.00
H121   H     0.40945   0.32068   0.06092   0.00000  Uiso   1.00
H122   H     0.89344   0.40553   0.46882   0.00000  Uiso   1.00
H123   H     0.23103   0.38344   0.14349   0.00000  Uiso   1.00
H124   H     0.32094   0.44406   0.08452   0.00000  Uiso   1.00
H125   H     0.09348   0.33102   0.07354   0.00000  Uiso   1.00
H126   H     0.32301   0.37126   0.26698   0.00000  Uiso   1.00
H127   H     0.35063   0.51754   0.02765   0.00000  Uiso   1.00
H128   H     0.87102   0.27918   0.00454   0.00000  Uiso   1.00
H129   H     0.35502   0.36403   0.41244   0.00000  Uiso   1.00
O130   O     0.16923   0.57903   0.01822   0.00000  Uiso   1.00
O131   O     0.54002   0.26631   0.98790   0.00000  Uiso   1.00
O132   O     0.17500   0.37764   0.52306   0.00000  Uiso   1.00
N133   N     0.98536   0.54096   0.07887   0.00000  Uiso   1.00
N134   N     0.53696   0.31811   0.05725   0.00000  Uiso   1.00
N135   N     0.98943   0.39743   0.43861   0.00000  Uiso   1.00
N136   N     0.23373   0.51863   0.04853   0.00000  Uiso   1.00
N137   N     0.78533   0.29578   0.02691   0.00000  Uiso   1.00
N138   N     0.23781   0.37510   0.40826   0.00000  Uiso   1.00
C139   C     0.68456   0.07919   0.19426   0.00000  Uiso   1.00
C140   C     0.57703   0.05153   0.15506   0.00000  Uiso   1.00
C141   C     0.62497   0.01584   0.13898   0.00000  Uiso   1.00
C142   C     0.50851   0.99489   0.10280   0.00000  Uiso   1.00
C143   C     0.36570   0.94978   0.04484   0.00000  Uiso   1.00
C144   C     0.70061   0.11295   0.14908   0.00000  Uiso   1.00
C145   C     0.85246   0.12890   0.12800   0.00000  Uiso   1.00
C146   C     0.84003   0.15965   0.08680   0.00000  Uiso   1.00
C147   C     0.88909   0.20991   0.01962   0.00000  Uiso   1.00
C148   C     0.57590   0.09108   0.25418   0.00000  Uiso   1.00
C149   C     0.62291   0.08865   0.32147   0.00000  Uiso   1.00
C150   C     0.50550   0.10101   0.36876   0.00000  Uiso   1.00
C151   C     0.36093   0.11731   0.46475   0.00000  Uiso   1.00
C152   C     0.39248   0.10545   0.15858   0.00000  Uiso   1.00
C153   C     0.41838   0.06580   0.13567   0.00000  Uiso   1.00
C154   C     0.30181   0.04490   0.09951   0.00000  Uiso   1.00
C155   C     0.34958   0.00918   0.08339   0.00000  Uiso   1.00
C156   C     0.54197   0.12721   0.12970   0.00000  Uiso   1.00
C157   C     0.52931   0.15795   0.08853   0.00000  Uiso   1.00
C158   C     0.68110   0.17394   0.06738   0.00000  Uiso   1.00
C159   C     0.41725   0.10534   0.23480   0.00000  Uiso   1.00
C160   C     0.29975   0.11771   0.28199   0.00000  Uiso   1.00
C161   C     0.34657   0.11530   0.34934   0.00000  Uiso   1.00
H162   H     0.80808   0.06808   0.20935   0.00000  Uiso   1.00
H163   H     0.74776   0.00481   0.15399   0.00000  Uiso   1.00
H164   H     0.97521   0.11785   0.14301   0.00000  Uiso   1.00
H165   H     0.74569   0.07761   0.33645   0.00000  Uiso   1.00
H166   H     0.61095   0.94096   0.08404   0.00000  Uiso   1.00
H167   H     0.09055   0.17932   0.06092   0.00000  Uiso   1.00
H168   H     0.60656   0.09447   0.46882   0.00000  Uiso   1.00
H169   H     0.26897   0.11656   0.14349   0.00000  Uiso   1.00
H170   H     0.17906   0.05594   0.08452   0.00000  Uiso   1.00
H171   H     0.40652   0.16898   0.07354   0.00000  Uiso   1.00
H172   H     0.17699   0.12874   0.26698   0.00000  Uiso   1.00
H173   H     0.14937   0.98246   0.02765   0.00000  Uiso   1.00
H174   H     0.62898   0.22082   0.00454   0.00000  Uiso   1.00
H175   H     0.14498   0.13597   0.41244   0.00000  Uiso   1.00
O176   O     0.33077   0.92097   0.01822   0.00000  Uiso   1.00
O177   O     0.95998   0.23369   0.98790   0.00000  Uiso   1.00
O178   O     0.32500   0.12236   0.52306   0.00000  Uiso   1.00
N179   N     0.51464   0.95904   0.07887   0.00000  Uiso   1.00
N180   N     0.96304   0.18189   0.05725   0.00000  Uiso   1.00
N181   N     0.51057   0.10257   0.43861   0.00000  Uiso   1.00
N182   N     0.26627   0.98137   0.04853   0.00000  Uiso   1.00
N183   N     0.71467   0.20422   0.02691   0.00000  Uiso   1.00
N184   N     0.26219   0.12490   0.40826   0.00000  Uiso   1.00
C185   C     0.81544   0.07919   0.69426   0.00000  Uiso   1.00
C186   C     0.92297   0.05153   0.65506   0.00000  Uiso   1.00
C187   C     0.87503   0.01584   0.63898   0.00000  Uiso   1.00
C188   C     0.99149   0.99489   0.60280   0.00000  Uiso   1.00
C189   C     0.13430   0.94978   0.54484   0.00000  Uiso   1.00
C190   C     0.79939   0.11295   0.64908   0.00000  Uiso   1.00
C191   C     0.64754   0.12890   0.62800   0.00000  Uiso   1.00
C192   C     0.65997   0.15965   0.58680   0.00000  Uiso   1.00
C193   C     0.61091   0.20991   0.51962   0.00000  Uiso   1.00
C194   C     0.92410   0.09108   0.75418   0.00000  Uiso   1.00
C195   C     0.87709   0.08865   0.82147   0.00000  Uiso   1.00
C196   C     0.99450   0.10101   0.86876   0.00000  Uiso   1.00
C197   C     0.13907   0.11731   0.96475   0.00000  Uiso   1.00
C198   C     0.10752   0.10545   0.65858   0.00000  Uiso   1.00
C199   C     0.08162   0.06580   0.63567   0.00000  Uiso   1.00
C200   C     0.19819   0.04490   0.59951   0.00000  Uiso   1.00
C201   C     0.15042   0.00918   0.58339   0.00000  Uiso   1.00
C202   C     0.95803   0.12721   0.62970   0.00000  Uiso   1.00
C203   C     0.97069   0.15795   0.58853   0.00000  Uiso   1.00
C204   C     0.81890   0.17394   0.56738   0.00000  Uiso   1.00
C205   C     0.08275   0.10534   0.73480   0.00000  Uiso   1.00
C206   C     0.20025   0.11771   0.78199   0.00000  Uiso   1.00
C207   C     0.15343   0.11530   0.84934   0.00000  Uiso   1.00
H208   H     0.69192   0.06808   0.70935   0.00000  Uiso   1.00
H209   H     0.75224   0.00481   0.65399   0.00000  Uiso   1.00
H210   H     0.52479   0.11785   0.64301   0.00000  Uiso   1.00
H211   H     0.75431   0.07761   0.83645   0.00000  Uiso   1.00
H212   H     0.88905   0.94096   0.58404   0.00000  Uiso   1.00
H213   H     0.40945   0.17932   0.56092   0.00000  Uiso   1.00
H214   H     0.89344   0.09447   0.96882   0.00000  Uiso   1.00
H215   H     0.23103   0.11656   0.64349   0.00000  Uiso   1.00
H216   H     0.32094   0.05594   0.58452   0.00000  Uiso   1.00
H217   H     0.09348   0.16898   0.57354   0.00000  Uiso   1.00
H218   H     0.32301   0.12874   0.76698   0.00000  Uiso   1.00
H219   H     0.35063   0.98246   0.52765   0.00000  Uiso   1.00
H220   H     0.87102   0.22082   0.50454   0.00000  Uiso   1.00
H221   H     0.35502   0.13597   0.91244   0.00000  Uiso   1.00
O222   O     0.16923   0.92097   0.51822   0.00000  Uiso   1.00
O223   O     0.54002   0.23369   0.48790   0.00000  Uiso   1.00
O224   O     0.17500   0.12236   0.02306   0.00000  Uiso   1.00
N225   N     0.98536   0.95904   0.57887   0.00000  Uiso   1.00
N226   N     0.53696   0.18189   0.55725   0.00000  Uiso   1.00
N227   N     0.98943   0.10257   0.93861   0.00000  Uiso   1.00
N228   N     0.23373   0.98137   0.54853   0.00000  Uiso   1.00
N229   N     0.78533   0.20422   0.52691   0.00000  Uiso   1.00
N230   N     0.23781   0.12490   0.90826   0.00000  Uiso   1.00
C231   C     0.68456   0.42081   0.69426   0.00000  Uiso   1.00
C232   C     0.57703   0.44847   0.65506   0.00000  Uiso   1.00
C233   C     0.62497   0.48416   0.63898   0.00000  Uiso   1.00
C234   C     0.50851   0.50511   0.60280   0.00000  Uiso   1.00
C235   C     0.36570   0.55022   0.54484   0.00000  Uiso   1.00
C236   C     0.70061   0.38705   0.64908   0.00000  Uiso   1.00
C237   C     0.85246   0.37110   0.62800   0.00000  Uiso   1.00
C238   C     0.84003   0.34035   0.58680   0.00000  Uiso   1.00
C239   C     0.88909   0.29009   0.51962   0.00000  Uiso   1.00
C240   C     0.57590   0.40892   0.75418   0.00000  Uiso   1.00
C241   C     0.62291   0.41135   0.82147   0.00000  Uiso   1.00
C242   C     0.50550   0.39899   0.86876   0.00000  Uiso   1.00
C243   C     0.36093   0.38269   0.96475   0.00000  Uiso   1.00
C244   C     0.39248   0.39455   0.65858   0.00000  Uiso   1.00
C245   C     0.41838   0.43420   0.63567   0.00000  Uiso   1.00
C246   C     0.30181   0.45510   0.59951   0.00000  Uiso   1.00
C247   C     0.34958   0.49082   0.58339   0.00000  Uiso   1.00
C248   C     0.54197   0.37279   0.62970   0.00000  Uiso   1.00
C249   C     0.52931   0.34205   0.58853   0.00000  Uiso   1.00
C250   C     0.68110   0.32606   0.56738   0.00000  Uiso   1.00
C251   C     0.41725   0.39466   0.73480   0.00000  Uiso   1.00
C252   C     0.29975   0.38229   0.78199   0.00000  Uiso   1.00
C253   C     0.34657   0.38470   0.84934   0.00000  Uiso   1.00
H254   H     0.80808   0.43192   0.70935   0.00000  Uiso   1.00
H255   H     0.74776   0.49519   0.65399   0.00000  Uiso   1.00
H256   H     0.97521   0.38215   0.64301   0.00000  Uiso   1.00
H257   H     0.74569   0.42239   0.83645   0.00000  Uiso   1.00
H258   H     0.61095   0.55904   0.58404   0.00000  Uiso   1.00
H259   H     0.09055   0.32068   0.56092   0.00000  Uiso   1.00
H260   H     0.60656   0.40553   0.96882   0.00000  Uiso   1.00
H261   H     0.26897   0.38344   0.64349   0.00000  Uiso   1.00
H262   H     0.17906   0.44406   0.58452   0.00000  Uiso   1.00
H263   H     0.40652   0.33102   0.57354   0.00000  Uiso   1.00
H264   H     0.17699   0.37126   0.76698   0.00000  Uiso   1.00
H265   H     0.14937   0.51754   0.52765   0.00000  Uiso   1.00
H266   H     0.62898   0.27918   0.50454   0.00000  Uiso   1.00
H267   H     0.14498   0.36403   0.91244   0.00000  Uiso   1.00
O268   O     0.33077   0.57903   0.51822   0.00000  Uiso   1.00
O269   O     0.95998   0.26631   0.48790   0.00000  Uiso   1.00
O270   O     0.32500   0.37764   0.02306   0.00000  Uiso   1.00
N271   N     0.51464   0.54096   0.57887   0.00000  Uiso   1.00
N272   N     0.96304   0.31811   0.55725   0.00000  Uiso   1.00
N273   N     0.51057   0.39743   0.93861   0.00000  Uiso   1.00
N274   N     0.26627   0.51863   0.54853   0.00000  Uiso   1.00
N275   N     0.71467   0.29578   0.52691   0.00000  Uiso   1.00
N276   N     0.26219   0.37510   0.90826   0.00000  Uiso   1.00
C277   C     0.18456   0.57919   0.80574   0.00000  Uiso   1.00
C278   C     0.07703   0.55153   0.84494   0.00000  Uiso   1.00
C279   C     0.12497   0.51584   0.86102   0.00000  Uiso   1.00
C280   C     0.00851   0.49489   0.89720   0.00000  Uiso   1.00
C281   C     0.86570   0.44978   0.95516   0.00000  Uiso   1.00
C282   C     0.20061   0.61295   0.85092   0.00000  Uiso   1.00
C283   C     0.35246   0.62890   0.87200   0.00000  Uiso   1.00
C284   C     0.34003   0.65965   0.91320   0.00000  Uiso   1.00
C285   C     0.38909   0.70991   0.98038   0.00000  Uiso   1.00
C286   C     0.07590   0.59108   0.74582   0.00000  Uiso   1.00
C287   C     0.12291   0.58865   0.67853   0.00000  Uiso   1.00
C288   C     0.00550   0.60101   0.63124   0.00000  Uiso   1.00
C289   C     0.86093   0.61731   0.53525   0.00000  Uiso   1.00
C290   C     0.89248   0.60545   0.84142   0.00000  Uiso   1.00
C291   C     0.91838   0.56580   0.86433   0.00000  Uiso   1.00
C292   C     0.80181   0.54490   0.90049   0.00000  Uiso   1.00
C293   C     0.84958   0.50918   0.91661   0.00000  Uiso   1.00
C294   C     0.04197   0.62721   0.87030   0.00000  Uiso   1.00
C295   C     0.02931   0.65795   0.91147   0.00000  Uiso   1.00
C296   C     0.18110   0.67394   0.93262   0.00000  Uiso   1.00
C297   C     0.91725   0.60534   0.76520   0.00000  Uiso   1.00
C298   C     0.79975   0.61771   0.71801   0.00000  Uiso   1.00
C299   C     0.84657   0.61530   0.65066   0.00000  Uiso   1.00
H300   H     0.30808   0.56808   0.79065   0.00000  Uiso   1.00
H301   H     0.24776   0.50481   0.84601   0.00000  Uiso   1.00
H302   H     0.47521   0.61785   0.85699   0.00000  Uiso   1.00
H303   H     0.24569   0.57761   0.66355   0.00000  Uiso   1.00
H304   H     0.11095   0.44096   0.91596   0.00000  Uiso   1.00
H305   H     0.59055   0.67932   0.93908   0.00000  Uiso   1.00
H306   H     0.10656   0.59447   0.53118   0.00000  Uiso   1.00
H307   H     0.76897   0.61656   0.85651   0.00000  Uiso   1.00
H308   H     0.67906   0.55594   0.91548   0.00000  Uiso   1.00
H309   H     0.90652   0.66898   0.92646   0.00000  Uiso   1.00
H310   H     0.67699   0.62874   0.73302   0.00000  Uiso   1.00
H311   H     0.64937   0.48246   0.97235   0.00000  Uiso   1.00
H312   H     0.12898   0.72082   0.99546   0.00000  Uiso   1.00
H313   H     0.64498   0.63597   0.58756   0.00000  Uiso   1.00
O314   O     0.83077   0.42097   0.98178   0.00000  Uiso   1.00
O315   O     0.45998   0.73369   0.01210   0.00000  Uiso   1.00
O316   O     0.82500   0.62236   0.47694   0.00000  Uiso   1.00
N317   N     0.01464   0.45904   0.92113   0.00000  Uiso   1.00
N318   N     0.46304   0.68189   0.94275   0.00000  Uiso   1.00
N319   N     0.01057   0.60257   0.56139   0.00000  Uiso   1.00
N320   N     0.76627   0.48137   0.95147   0.00000  Uiso   1.00
N321   N     0.21467   0.70422   0.97309   0.00000  Uiso   1.00
N322   N     0.76219   0.62490   0.59174   0.00000  Uiso   1.00
C323   C     0.31544   0.92081   0.80574   0.00000  Uiso   1.00
C324   C     0.42297   0.94847   0.84494   0.00000  Uiso   1.00
C325   C     0.37503   0.98416   0.86102   0.00000  Uiso   1.00
C326   C     0.49149   0.00511   0.89720   0.00000  Uiso   1.00
C327   C     0.63430   0.05022   0.95516   0.00000  Uiso   1.00
C328   C     0.29939   0.88705   0.85092   0.00000  Uiso   1.00
C329   C     0.14754   0.87110   0.87200   0.00000  Uiso   1.00
C330   C     0.15997   0.84035   0.91320   0.00000  Uiso   1.00
C331   C     0.11091   0.79009   0.98038   0.00000  Uiso   1.00
C332   C     0.42410   0.90892   0.74582   0.00000  Uiso   1.00
C333   C     0.37709   0.91135   0.67853   0.00000  Uiso   1.00
C334   C     0.49450   0.89899   0.63124   0.00000  Uiso   1.00
C335   C     0.63907   0.88269   0.53525   0.00000  Uiso   1.00
C336   C     0.60752   0.89455   0.84142   0.00000  Uiso   1.00
C337   C     0.58162   0.93420   0.86433   0.00000  Uiso   1.00
C338   C     0.69819   0.95510   0.90049   0.00000  Uiso   1.00
C339   C     0.65042   0.99082   0.91661   0.00000  Uiso   1.00
C340   C     0.45803   0.87279   0.87030   0.00000  Uiso   1.00
C341   C     0.47069   0.84205   0.91147   0.00000  Uiso   1.00
C342   C     0.31890   0.82606   0.93262   0.00000  Uiso   1.00
C343   C     0.58275   0.89466   0.76520   0.00000  Uiso   1.00
C344   C     0.70025   0.88229   0.71801   0.00000  Uiso   1.00
C345   C     0.65343   0.88470   0.65066   0.00000  Uiso   1.00
H346   H     0.19192   0.93192   0.79065   0.00000  Uiso   1.00
H347   H     0.25224   0.99519   0.84601   0.00000  Uiso   1.00
H348   H     0.02479   0.88215   0.85699   0.00000  Uiso   1.00
H349   H     0.25431   0.92239   0.66355   0.00000  Uiso   1.00
H350   H     0.38905   0.05904   0.91596   0.00000  Uiso   1.00
H351   H     0.90945   0.82068   0.93908   0.00000  Uiso   1.00
H352   H     0.39344   0.90553   0.53118   0.00000  Uiso   1.00
H353   H     0.73103   0.88344   0.85651   0.00000  Uiso   1.00
H354   H     0.82094   0.94406   0.91548   0.00000  Uiso   1.00
H355   H     0.59348   0.83102   0.92646   0.00000  Uiso   1.00
H356   H     0.82301   0.87126   0.73302   0.00000  Uiso   1.00
H357   H     0.85063   0.01754   0.97235   0.00000  Uiso   1.00
H358   H     0.37102   0.77918   0.99546   0.00000  Uiso   1.00
H359   H     0.85502   0.86403   0.58756   0.00000  Uiso   1.00
O360   O     0.66923   0.07903   0.98178   0.00000  Uiso   1.00
O361   O     0.04002   0.76631   0.01210   0.00000  Uiso   1.00
O362   O     0.67500   0.87764   0.47694   0.00000  Uiso   1.00
N363   N     0.48536   0.04096   0.92113   0.00000  Uiso   1.00
N364   N     0.03696   0.81811   0.94275   0.00000  Uiso   1.00
N365   N     0.48943   0.89743   0.56139   0.00000  Uiso   1.00
N366   N     0.73373   0.01863   0.95147   0.00000  Uiso   1.00
N367   N     0.28533   0.79578   0.97309   0.00000  Uiso   1.00
N368   N     0.73781   0.87510   0.59174   0.00000  Uiso   1.00
