data_job_01102
_audit_creation_date              2018-12-19
_audit_creation_method            'Materials Studio'
_symmetry_space_group_name_H-M    'P1'
_symmetry_Int_Tables_number       1
_symmetry_cell_setting            triclinic
loop_
_symmetry_equiv_pos_as_xyz
  x,y,z
_cell_length_a                    17.3075
_cell_length_b                    21.3158
_cell_length_c                    16.8978
_cell_angle_alpha                 90.0000
_cell_angle_beta                  90.0000
_cell_angle_gamma                 90.0000
loop_
_atom_site_label
_atom_site_type_symbol
_atom_site_fract_x
_atom_site_fract_y
_atom_site_fract_z
_atom_site_U_iso_or_equiv
_atom_site_adp_type
_atom_site_occupancy
C1     C     0.38176   0.33726   0.74328   0.00000  Uiso   1.00
C2     C     0.39784   0.26951   0.71940   0.00000  Uiso   1.00
C3     C     0.37814   0.21665   0.76287   0.00000  Uiso   1.00
C4     C     0.39791   0.15885   0.73086   0.00000  Uiso   1.00
C5     C     0.41711   0.05437   0.70488   0.00000  Uiso   1.00
C6     C     0.45985   0.37039   0.74308   0.00000  Uiso   1.00
C7     C     0.49229   0.40234   0.80647   0.00000  Uiso   1.00
C8     C     0.56426   0.42946   0.79438   0.00000  Uiso   1.00
C9     C     0.67972   0.48163   0.80515   0.00000  Uiso   1.00
C10    C     0.33567   0.36596   0.67543   0.00000  Uiso   1.00
C11    C     0.26370   0.39420   0.68193   0.00000  Uiso   1.00
C12    C     0.23113   0.41761   0.61289   0.00000  Uiso   1.00
C13    C     0.15378   0.46290   0.51862   0.00000  Uiso   1.00
C14    C     0.45191   0.32863   0.60912   0.00000  Uiso   1.00
C15    C     0.43594   0.26483   0.64653   0.00000  Uiso   1.00
C16    C     0.45574   0.20709   0.61443   0.00000  Uiso   1.00
C17    C     0.43607   0.15415   0.65785   0.00000  Uiso   1.00
C18    C     0.49795   0.36570   0.67021   0.00000  Uiso   1.00
C19    C     0.56990   0.39278   0.65803   0.00000  Uiso   1.00
C20    C     0.60243   0.42476   0.72138   0.00000  Uiso   1.00
C21    C     0.37377   0.36127   0.60255   0.00000  Uiso   1.00
C22    C     0.34131   0.38464   0.53349   0.00000  Uiso   1.00
C23    C     0.26930   0.41291   0.53988   0.00000  Uiso   1.00
H24    H     0.35210   0.34091   0.80002   0.00000  Uiso   1.00
H25    H     0.34866   0.22029   0.81927   0.00000  Uiso   1.00
H26    H     0.46279   0.40596   0.86285   0.00000  Uiso   1.00
H27    H     0.23424   0.39782   0.73834   0.00000  Uiso   1.00
H28    H     0.36167   0.08450   0.80849   0.00000  Uiso   1.00
H29    H     0.60230   0.47601   0.90038   0.00000  Uiso   1.00
H30    H     0.12036   0.45885   0.63781   0.00000  Uiso   1.00
H31    H     0.48157   0.32498   0.55238   0.00000  Uiso   1.00
H32    H     0.48523   0.20348   0.55804   0.00000  Uiso   1.00
H33    H     0.59936   0.38915   0.60162   0.00000  Uiso   1.00
H34    H     0.37081   0.38101   0.47711   0.00000  Uiso   1.00
H35    H     0.47251   0.07086   0.59647   0.00000  Uiso   1.00
H36    H     0.71315   0.46237   0.68835   0.00000  Uiso   1.00
H37    H     0.23121   0.44520   0.42578   0.00000  Uiso   1.00
O38    O     0.41718   0.99804   0.71069   0.00000  Uiso   1.00
O39    O     0.73288   0.51170   0.83123   0.00000  Uiso   1.00
O40    O     0.10058   0.48918   0.48675   0.00000  Uiso   1.00
N41    N     0.38724   0.09796   0.75781   0.00000  Uiso   1.00
N42    N     0.61223   0.46399   0.84372   0.00000  Uiso   1.00
N43    N     0.16166   0.44796   0.59824   0.00000  Uiso   1.00
N44    N     0.44688   0.09062   0.64372   0.00000  Uiso   1.00
N45    N     0.67187   0.45665   0.72963   0.00000  Uiso   1.00
N46    N     0.22130   0.44062   0.48415   0.00000  Uiso   1.00
C47    C     0.38176   0.83726   0.24328   0.00000  Uiso   1.00
C48    C     0.39784   0.76951   0.21940   0.00000  Uiso   1.00
C49    C     0.37814   0.71665   0.26287   0.00000  Uiso   1.00
C50    C     0.39791   0.65885   0.23086   0.00000  Uiso   1.00
C51    C     0.41711   0.55437   0.20488   0.00000  Uiso   1.00
C52    C     0.45985   0.87039   0.24308   0.00000  Uiso   1.00
C53    C     0.49229   0.90234   0.30647   0.00000  Uiso   1.00
C54    C     0.56426   0.92946   0.29438   0.00000  Uiso   1.00
C55    C     0.67972   0.98163   0.30515   0.00000  Uiso   1.00
C56    C     0.33567   0.86596   0.17543   0.00000  Uiso   1.00
C57    C     0.26370   0.89420   0.18193   0.00000  Uiso   1.00
C58    C     0.23113   0.91761   0.11289   0.00000  Uiso   1.00
C59    C     0.15378   0.96290   0.01862   0.00000  Uiso   1.00
C60    C     0.45191   0.82863   0.10912   0.00000  Uiso   1.00
C61    C     0.43594   0.76483   0.14653   0.00000  Uiso   1.00
C62    C     0.45574   0.70709   0.11443   0.00000  Uiso   1.00
C63    C     0.43607   0.65415   0.15785   0.00000  Uiso   1.00
C64    C     0.49795   0.86570   0.17021   0.00000  Uiso   1.00
C65    C     0.56990   0.89278   0.15803   0.00000  Uiso   1.00
C66    C     0.60243   0.92476   0.22138   0.00000  Uiso   1.00
C67    C     0.37377   0.86127   0.10255   0.00000  Uiso   1.00
C68    C     0.34131   0.88464   0.03349   0.00000  Uiso   1.00
C69    C     0.26930   0.91291   0.03988   0.00000  Uiso   1.00
H70    H     0.35210   0.84091   0.30002   0.00000  Uiso   1.00
H71    H     0.34866   0.72029   0.31927   0.00000  Uiso   1.00
H72    H     0.46279   0.90596   0.36285   0.00000  Uiso   1.00
H73    H     0.23424   0.89782   0.23834   0.00000  Uiso   1.00
H74    H     0.36167   0.58450   0.30849   0.00000  Uiso   1.00
H75    H     0.60230   0.97601   0.40038   0.00000  Uiso   1.00
H76    H     0.12036   0.95885   0.13781   0.00000  Uiso   1.00
H77    H     0.48157   0.82498   0.05238   0.00000  Uiso   1.00
H78    H     0.48523   0.70348   0.05804   0.00000  Uiso   1.00
H79    H     0.59936   0.88915   0.10162   0.00000  Uiso   1.00
H80    H     0.37081   0.88101   0.97711   0.00000  Uiso   1.00
H81    H     0.47251   0.57086   0.09647   0.00000  Uiso   1.00
H82    H     0.71315   0.96237   0.18835   0.00000  Uiso   1.00
H83    H     0.23121   0.94520   0.92578   0.00000  Uiso   1.00
O84    O     0.41718   0.49804   0.21069   0.00000  Uiso   1.00
O85    O     0.73288   0.01170   0.33123   0.00000  Uiso   1.00
O86    O     0.10058   0.98918   0.98675   0.00000  Uiso   1.00
N87    N     0.38724   0.59796   0.25781   0.00000  Uiso   1.00
N88    N     0.61223   0.96399   0.34372   0.00000  Uiso   1.00
N89    N     0.16166   0.94796   0.09824   0.00000  Uiso   1.00
N90    N     0.44688   0.59062   0.14372   0.00000  Uiso   1.00
N91    N     0.67187   0.95665   0.22963   0.00000  Uiso   1.00
N92    N     0.22130   0.94062   0.98415   0.00000  Uiso   1.00
C93    C     0.61824   0.66274   0.74328   0.00000  Uiso   1.00
C94    C     0.60216   0.73049   0.71940   0.00000  Uiso   1.00
C95    C     0.62186   0.78335   0.76287   0.00000  Uiso   1.00
C96    C     0.60209   0.84115   0.73086   0.00000  Uiso   1.00
C97    C     0.58289   0.94563   0.70488   0.00000  Uiso   1.00
C98    C     0.54015   0.62961   0.74308   0.00000  Uiso   1.00
C99    C     0.50771   0.59766   0.80647   0.00000  Uiso   1.00
C100   C     0.43574   0.57054   0.79438   0.00000  Uiso   1.00
C101   C     0.32028   0.51837   0.80515   0.00000  Uiso   1.00
C102   C     0.66433   0.63404   0.67543   0.00000  Uiso   1.00
C103   C     0.73630   0.60580   0.68193   0.00000  Uiso   1.00
C104   C     0.76887   0.58239   0.61289   0.00000  Uiso   1.00
C105   C     0.84622   0.53710   0.51862   0.00000  Uiso   1.00
C106   C     0.54809   0.67137   0.60912   0.00000  Uiso   1.00
C107   C     0.56406   0.73517   0.64653   0.00000  Uiso   1.00
C108   C     0.54426   0.79291   0.61443   0.00000  Uiso   1.00
C109   C     0.56393   0.84585   0.65785   0.00000  Uiso   1.00
C110   C     0.50205   0.63430   0.67021   0.00000  Uiso   1.00
C111   C     0.43010   0.60722   0.65803   0.00000  Uiso   1.00
C112   C     0.39757   0.57524   0.72138   0.00000  Uiso   1.00
C113   C     0.62623   0.63873   0.60255   0.00000  Uiso   1.00
C114   C     0.65869   0.61536   0.53349   0.00000  Uiso   1.00
C115   C     0.73070   0.58709   0.53988   0.00000  Uiso   1.00
H116   H     0.64790   0.65909   0.80002   0.00000  Uiso   1.00
H117   H     0.65134   0.77971   0.81927   0.00000  Uiso   1.00
H118   H     0.53721   0.59404   0.86285   0.00000  Uiso   1.00
H119   H     0.76576   0.60218   0.73834   0.00000  Uiso   1.00
H120   H     0.63833   0.91550   0.80849   0.00000  Uiso   1.00
H121   H     0.39770   0.52399   0.90038   0.00000  Uiso   1.00
H122   H     0.87964   0.54115   0.63781   0.00000  Uiso   1.00
H123   H     0.51843   0.67502   0.55238   0.00000  Uiso   1.00
H124   H     0.51477   0.79652   0.55804   0.00000  Uiso   1.00
H125   H     0.40064   0.61085   0.60162   0.00000  Uiso   1.00
H126   H     0.62919   0.61899   0.47711   0.00000  Uiso   1.00
H127   H     0.52749   0.92914   0.59647   0.00000  Uiso   1.00
H128   H     0.28685   0.53763   0.68835   0.00000  Uiso   1.00
H129   H     0.76879   0.55480   0.42578   0.00000  Uiso   1.00
O130   O     0.58282   0.00196   0.71069   0.00000  Uiso   1.00
O131   O     0.26712   0.48830   0.83123   0.00000  Uiso   1.00
O132   O     0.89942   0.51082   0.48675   0.00000  Uiso   1.00
N133   N     0.61276   0.90204   0.75781   0.00000  Uiso   1.00
N134   N     0.38777   0.53601   0.84372   0.00000  Uiso   1.00
N135   N     0.83834   0.55204   0.59824   0.00000  Uiso   1.00
N136   N     0.55312   0.90938   0.64372   0.00000  Uiso   1.00
N137   N     0.32813   0.54335   0.72963   0.00000  Uiso   1.00
N138   N     0.77870   0.55938   0.48415   0.00000  Uiso   1.00
C139   C     0.61824   0.16274   0.24328   0.00000  Uiso   1.00
C140   C     0.60216   0.23049   0.21940   0.00000  Uiso   1.00
C141   C     0.62186   0.28335   0.26287   0.00000  Uiso   1.00
C142   C     0.60209   0.34115   0.23086   0.00000  Uiso   1.00
C143   C     0.58289   0.44563   0.20488   0.00000  Uiso   1.00
C144   C     0.54015   0.12961   0.24308   0.00000  Uiso   1.00
C145   C     0.50771   0.09766   0.30647   0.00000  Uiso   1.00
C146   C     0.43574   0.07054   0.29438   0.00000  Uiso   1.00
C147   C     0.32028   0.01837   0.30515   0.00000  Uiso   1.00
C148   C     0.66433   0.13404   0.17543   0.00000  Uiso   1.00
C149   C     0.73630   0.10580   0.18193   0.00000  Uiso   1.00
C150   C     0.76887   0.08239   0.11289   0.00000  Uiso   1.00
C151   C     0.84622   0.03710   0.01862   0.00000  Uiso   1.00
C152   C     0.54809   0.17137   0.10912   0.00000  Uiso   1.00
C153   C     0.56406   0.23517   0.14653   0.00000  Uiso   1.00
C154   C     0.54426   0.29291   0.11443   0.00000  Uiso   1.00
C155   C     0.56393   0.34585   0.15785   0.00000  Uiso   1.00
C156   C     0.50205   0.13430   0.17021   0.00000  Uiso   1.00
C157   C     0.43010   0.10722   0.15803   0.00000  Uiso   1.00
C158   C     0.39757   0.07524   0.22138   0.00000  Uiso   1.00
C159   C     0.62623   0.13873   0.10255   0.00000  Uiso   1.00
C160   C     0.65869   0.11536   0.03349   0.00000  Uiso   1.00
C161   C     0.73070   0.08709   0.03988   0.00000  Uiso   1.00
H162   H     0.64790   0.15909   0.30002   0.00000  Uiso   1.00
H163   H     0.65134   0.27971   0.31927   0.00000  Uiso   1.00
H164   H     0.53721   0.09404   0.36285   0.00000  Uiso   1.00
H165   H     0.76576   0.10218   0.23834   0.00000  Uiso   1.00
H166   H     0.63833   0.41550   0.30849   0.00000  Uiso   1.00
H167   H     0.39770   0.02399   0.40038   0.00000  Uiso   1.00
H168   H     0.87964   0.04115   0.13781   0.00000  Uiso   1.00
H169   H     0.51843   0.17502   0.05238   0.00000  Uiso   1.00
H170   H     0.51477   0.29652   0.05804   0.00000  Uiso   1.00
H171   H     0.40064   0.11085   0.10162   0.00000  Uiso   1.00
H172   H     0.62919   0.11899   0.97711   0.00000  Uiso   1.00
H173   H     0.52749   0.42914   0.09647   0.00000  Uiso   1.00
H174   H     0.28685   0.03763   0.18835   0.00000  Uiso   1.00
H175   H     0.76879   0.05480   0.92578   0.00000  Uiso   1.00
O176   O     0.58282   0.50196   0.21069   0.00000  Uiso   1.00
O177   O     0.26712   0.98830   0.33123   0.00000  Uiso   1.00
O178   O     0.89942   0.01082   0.98675   0.00000  Uiso   1.00
N179   N     0.61276   0.40204   0.25781   0.00000  Uiso   1.00
N180   N     0.38777   0.03601   0.34372   0.00000  Uiso   1.00
N181   N     0.83834   0.05204   0.09824   0.00000  Uiso   1.00
N182   N     0.55312   0.40938   0.14372   0.00000  Uiso   1.00
N183   N     0.32813   0.04335   0.22963   0.00000  Uiso   1.00
N184   N     0.77870   0.05938   0.98415   0.00000  Uiso   1.00
C185   C     0.88176   0.16274   0.74328   0.00000  Uiso   1.00
C186   C     0.89784   0.23049   0.71940   0.00000  Uiso   1.00
C187   C     0.87814   0.28335   0.76287   0.00000  Uiso   1.00
C188   C     0.89791   0.34115   0.73086   0.00000  Uiso   1.00
C189   C     0.91711   0.44563   0.70488   0.00000  Uiso   1.00
C190   C     0.95985   0.12961   0.74308   0.00000  Uiso   1.00
C191   C     0.99229   0.09766   0.80647   0.00000  Uiso   1.00
C192   C     0.06426   0.07054   0.79438   0.00000  Uiso   1.00
C193   C     0.17972   0.01837   0.80515   0.00000  Uiso   1.00
C194   C     0.83567   0.13404   0.67543   0.00000  Uiso   1.00
C195   C     0.76370   0.10580   0.68193   0.00000  Uiso   1.00
C196   C     0.73113   0.08239   0.61289   0.00000  Uiso   1.00
C197   C     0.65378   0.03710   0.51862   0.00000  Uiso   1.00
C198   C     0.95191   0.17137   0.60912   0.00000  Uiso   1.00
C199   C     0.93594   0.23517   0.64653   0.00000  Uiso   1.00
C200   C     0.95574   0.29291   0.61443   0.00000  Uiso   1.00
C201   C     0.93607   0.34585   0.65785   0.00000  Uiso   1.00
C202   C     0.99795   0.13430   0.67021   0.00000  Uiso   1.00
C203   C     0.06990   0.10722   0.65803   0.00000  Uiso   1.00
C204   C     0.10243   0.07524   0.72138   0.00000  Uiso   1.00
C205   C     0.87377   0.13873   0.60255   0.00000  Uiso   1.00
C206   C     0.84131   0.11536   0.53349   0.00000  Uiso   1.00
C207   C     0.76930   0.08709   0.53988   0.00000  Uiso   1.00
H208   H     0.85210   0.15909   0.80002   0.00000  Uiso   1.00
H209   H     0.84866   0.27971   0.81927   0.00000  Uiso   1.00
H210   H     0.96279   0.09404   0.86285   0.00000  Uiso   1.00
H211   H     0.73424   0.10218   0.73834   0.00000  Uiso   1.00
H212   H     0.86167   0.41550   0.80849   0.00000  Uiso   1.00
H213   H     0.10230   0.02399   0.90038   0.00000  Uiso   1.00
H214   H     0.62036   0.04115   0.63781   0.00000  Uiso   1.00
H215   H     0.98157   0.17502   0.55238   0.00000  Uiso   1.00
H216   H     0.98523   0.29652   0.55804   0.00000  Uiso   1.00
H217   H     0.09936   0.11085   0.60162   0.00000  Uiso   1.00
H218   H     0.87081   0.11899   0.47711   0.00000  Uiso   1.00
H219   H     0.97251   0.42914   0.59647   0.00000  Uiso   1.00
H220   H     0.21315   0.03763   0.68835   0.00000  Uiso   1.00
H221   H     0.73121   0.05480   0.42578   0.00000  Uiso   1.00
O222   O     0.91718   0.50196   0.71069   0.00000  Uiso   1.00
O223   O     0.23288   0.98830   0.83123   0.00000  Uiso   1.00
O224   O     0.60058   0.01082   0.48675   0.00000  Uiso   1.00
N225   N     0.88724   0.40204   0.75781   0.00000  Uiso   1.00
N226   N     0.11223   0.03601   0.84372   0.00000  Uiso   1.00
N227   N     0.66166   0.05204   0.59824   0.00000  Uiso   1.00
N228   N     0.94688   0.40938   0.64372   0.00000  Uiso   1.00
N229   N     0.17187   0.04335   0.72963   0.00000  Uiso   1.00
N230   N     0.72130   0.05938   0.48415   0.00000  Uiso   1.00
C231   C     0.88176   0.66274   0.24328   0.00000  Uiso   1.00
C232   C     0.89784   0.73049   0.21940   0.00000  Uiso   1.00
C233   C     0.87814   0.78335   0.26287   0.00000  Uiso   1.00
C234   C     0.89791   0.84115   0.23086   0.00000  Uiso   1.00
C235   C     0.91711   0.94563   0.20488   0.00000  Uiso   1.00
C236   C     0.95985   0.62961   0.24308   0.00000  Uiso   1.00
C237   C     0.99229   0.59766   0.30647   0.00000  Uiso   1.00
C238   C     0.06426   0.57054   0.29438   0.00000  Uiso   1.00
C239   C     0.17972   0.51837   0.30515   0.00000  Uiso   1.00
C240   C     0.83567   0.63404   0.17543   0.00000  Uiso   1.00
C241   C     0.76370   0.60580   0.18193   0.00000  Uiso   1.00
C242   C     0.73113   0.58239   0.11289   0.00000  Uiso   1.00
C243   C     0.65378   0.53710   0.01862   0.00000  Uiso   1.00
C244   C     0.95191   0.67137   0.10912   0.00000  Uiso   1.00
C245   C     0.93594   0.73517   0.14653   0.00000  Uiso   1.00
C246   C     0.95574   0.79291   0.11443   0.00000  Uiso   1.00
C247   C     0.93607   0.84585   0.15785   0.00000  Uiso   1.00
C248   C     0.99795   0.63430   0.17021   0.00000  Uiso   1.00
C249   C     0.06990   0.60722   0.15803   0.00000  Uiso   1.00
C250   C     0.10243   0.57524   0.22138   0.00000  Uiso   1.00
C251   C     0.87377   0.63873   0.10255   0.00000  Uiso   1.00
C252   C     0.84131   0.61536   0.03349   0.00000  Uiso   1.00
C253   C     0.76930   0.58709   0.03988   0.00000  Uiso   1.00
H254   H     0.85210   0.65909   0.30002   0.00000  Uiso   1.00
H255   H     0.84866   0.77971   0.31927   0.00000  Uiso   1.00
H256   H     0.96279   0.59404   0.36285   0.00000  Uiso   1.00
H257   H     0.73424   0.60218   0.23834   0.00000  Uiso   1.00
H258   H     0.86167   0.91550   0.30849   0.00000  Uiso   1.00
H259   H     0.10230   0.52399   0.40038   0.00000  Uiso   1.00
H260   H     0.62036   0.54115   0.13781   0.00000  Uiso   1.00
H261   H     0.98157   0.67502   0.05238   0.00000  Uiso   1.00
H262   H     0.98523   0.79652   0.05804   0.00000  Uiso   1.00
H263   H     0.09936   0.61085   0.10162   0.00000  Uiso   1.00
H264   H     0.87081   0.61899   0.97711   0.00000  Uiso   1.00
H265   H     0.97251   0.92914   0.09647   0.00000  Uiso   1.00
H266   H     0.21315   0.53763   0.18835   0.00000  Uiso   1.00
H267   H     0.73121   0.55480   0.92578   0.00000  Uiso   1.00
O268   O     0.91718   0.00196   0.21069   0.00000  Uiso   1.00
O269   O     0.23288   0.48830   0.33123   0.00000  Uiso   1.00
O270   O     0.60058   0.51082   0.98675   0.00000  Uiso   1.00
N271   N     0.88724   0.90204   0.25781   0.00000  Uiso   1.00
N272   N     0.11223   0.53601   0.34372   0.00000  Uiso   1.00
N273   N     0.66166   0.55204   0.09824   0.00000  Uiso   1.00
N274   N     0.94688   0.90938   0.14372   0.00000  Uiso   1.00
N275   N     0.17187   0.54335   0.22963   0.00000  Uiso   1.00
N276   N     0.72130   0.55938   0.98415   0.00000  Uiso   1.00
C277   C     0.11824   0.83726   0.74328   0.00000  Uiso   1.00
C278   C     0.10216   0.76951   0.71940   0.00000  Uiso   1.00
C279   C     0.12186   0.71665   0.76287   0.00000  Uiso   1.00
C280   C     0.10209   0.65885   0.73086   0.00000  Uiso   1.00
C281   C     0.08289   0.55437   0.70488   0.00000  Uiso   1.00
C282   C     0.04015   0.87039   0.74308   0.00000  Uiso   1.00
C283   C     0.00771   0.90234   0.80647   0.00000  Uiso   1.00
C284   C     0.93574   0.92946   0.79438   0.00000  Uiso   1.00
C285   C     0.82028   0.98163   0.80515   0.00000  Uiso   1.00
C286   C     0.16433   0.86596   0.67543   0.00000  Uiso   1.00
C287   C     0.23630   0.89420   0.68193   0.00000  Uiso   1.00
C288   C     0.26887   0.91761   0.61289   0.00000  Uiso   1.00
C289   C     0.34622   0.96290   0.51862   0.00000  Uiso   1.00
C290   C     0.04809   0.82863   0.60912   0.00000  Uiso   1.00
C291   C     0.06406   0.76483   0.64653   0.00000  Uiso   1.00
C292   C     0.04426   0.70709   0.61443   0.00000  Uiso   1.00
C293   C     0.06393   0.65415   0.65785   0.00000  Uiso   1.00
C294   C     0.00205   0.86570   0.67021   0.00000  Uiso   1.00
C295   C     0.93010   0.89278   0.65803   0.00000  Uiso   1.00
C296   C     0.89757   0.92476   0.72138   0.00000  Uiso   1.00
C297   C     0.12623   0.86127   0.60255   0.00000  Uiso   1.00
C298   C     0.15869   0.88464   0.53349   0.00000  Uiso   1.00
C299   C     0.23070   0.91291   0.53988   0.00000  Uiso   1.00
H300   H     0.14790   0.84091   0.80002   0.00000  Uiso   1.00
H301   H     0.15134   0.72029   0.81927   0.00000  Uiso   1.00
H302   H     0.03721   0.90596   0.86285   0.00000  Uiso   1.00
H303   H     0.26576   0.89782   0.73834   0.00000  Uiso   1.00
H304   H     0.13833   0.58450   0.80849   0.00000  Uiso   1.00
H305   H     0.89770   0.97601   0.90038   0.00000  Uiso   1.00
H306   H     0.37964   0.95885   0.63781   0.00000  Uiso   1.00
H307   H     0.01843   0.82498   0.55238   0.00000  Uiso   1.00
H308   H     0.01477   0.70348   0.55804   0.00000  Uiso   1.00
H309   H     0.90064   0.88915   0.60162   0.00000  Uiso   1.00
H310   H     0.12919   0.88101   0.47711   0.00000  Uiso   1.00
H311   H     0.02749   0.57086   0.59647   0.00000  Uiso   1.00
H312   H     0.78685   0.96237   0.68835   0.00000  Uiso   1.00
H313   H     0.26879   0.94520   0.42578   0.00000  Uiso   1.00
O314   O     0.08282   0.49804   0.71069   0.00000  Uiso   1.00
O315   O     0.76712   0.01170   0.83123   0.00000  Uiso   1.00
O316   O     0.39942   0.98918   0.48675   0.00000  Uiso   1.00
N317   N     0.11276   0.59796   0.75781   0.00000  Uiso   1.00
N318   N     0.88777   0.96399   0.84372   0.00000  Uiso   1.00
N319   N     0.33834   0.94796   0.59824   0.00000  Uiso   1.00
N320   N     0.05312   0.59062   0.64372   0.00000  Uiso   1.00
N321   N     0.82813   0.95665   0.72963   0.00000  Uiso   1.00
N322   N     0.27870   0.94062   0.48415   0.00000  Uiso   1.00
C323   C     0.11824   0.33726   0.24328   0.00000  Uiso   1.00
C324   C     0.10216   0.26951   0.21940   0.00000  Uiso   1.00
C325   C     0.12186   0.21665   0.26287   0.00000  Uiso   1.00
C326   C     0.10209   0.15885   0.23086   0.00000  Uiso   1.00
C327   C     0.08289   0.05437   0.20488   0.00000  Uiso   1.00
C328   C     0.04015   0.37039   0.24308   0.00000  Uiso   1.00
C329   C     0.00771   0.40234   0.30647   0.00000  Uiso   1.00
C330   C     0.93574   0.42946   0.29438   0.00000  Uiso   1.00
C331   C     0.82028   0.48163   0.30515   0.00000  Uiso   1.00
C332   C     0.16433   0.36596   0.17543   0.00000  Uiso   1.00
C333   C     0.23630   0.39420   0.18193   0.00000  Uiso   1.00
C334   C     0.26887   0.41761   0.11289   0.00000  Uiso   1.00
C335   C     0.34622   0.46290   0.01862   0.00000  Uiso   1.00
C336   C     0.04809   0.32863   0.10912   0.00000  Uiso   1.00
C337   C     0.06406   0.26483   0.14653   0.00000  Uiso   1.00
C338   C     0.04426   0.20709   0.11443   0.00000  Uiso   1.00
C339   C     0.06393   0.15415   0.15785   0.00000  Uiso   1.00
C340   C     0.00205   0.36570   0.17021   0.00000  Uiso   1.00
C341   C     0.93010   0.39278   0.15803   0.00000  Uiso   1.00
C342   C     0.89757   0.42476   0.22138   0.00000  Uiso   1.00
C343   C     0.12623   0.36127   0.10255   0.00000  Uiso   1.00
C344   C     0.15869   0.38464   0.03349   0.00000  Uiso   1.00
C345   C     0.23070   0.41291   0.03988   0.00000  Uiso   1.00
H346   H     0.14790   0.34091   0.30002   0.00000  Uiso   1.00
H347   H     0.15134   0.22029   0.31927   0.00000  Uiso   1.00
H348   H     0.03721   0.40596   0.36285   0.00000  Uiso   1.00
H349   H     0.26576   0.39782   0.23834   0.00000  Uiso   1.00
H350   H     0.13833   0.08450   0.30849   0.00000  Uiso   1.00
H351   H     0.89770   0.47601   0.40038   0.00000  Uiso   1.00
H352   H     0.37964   0.45885   0.13781   0.00000  Uiso   1.00
H353   H     0.01843   0.32498   0.05238   0.00000  Uiso   1.00
H354   H     0.01477   0.20348   0.05804   0.00000  Uiso   1.00
H355   H     0.90064   0.38915   0.10162   0.00000  Uiso   1.00
H356   H     0.12919   0.38101   0.97711   0.00000  Uiso   1.00
H357   H     0.02749   0.07086   0.09647   0.00000  Uiso   1.00
H358   H     0.78685   0.46237   0.18835   0.00000  Uiso   1.00
H359   H     0.26879   0.44520   0.92578   0.00000  Uiso   1.00
O360   O     0.08282   0.99804   0.21069   0.00000  Uiso   1.00
O361   O     0.76712   0.51170   0.33123   0.00000  Uiso   1.00
O362   O     0.39942   0.48918   0.98675   0.00000  Uiso   1.00
N363   N     0.11276   0.09796   0.25781   0.00000  Uiso   1.00
N364   N     0.88777   0.46399   0.34372   0.00000  Uiso   1.00
N365   N     0.33834   0.44796   0.09824   0.00000  Uiso   1.00
N366   N     0.05312   0.09062   0.14372   0.00000  Uiso   1.00
N367   N     0.82813   0.45665   0.22963   0.00000  Uiso   1.00
N368   N     0.27870   0.44062   0.98415   0.00000  Uiso   1.00
