data_job_02388
_audit_creation_date              2018-12-19
_audit_creation_method            'Materials Studio'
_symmetry_space_group_name_H-M    'P1'
_symmetry_Int_Tables_number       1
_symmetry_cell_setting            triclinic
loop_
_symmetry_equiv_pos_as_xyz
  x,y,z
_cell_length_a                    13.6017
_cell_length_b                    13.1670
_cell_length_c                    15.8012
_cell_angle_alpha                 90.0000
_cell_angle_beta                  71.6306
_cell_angle_gamma                 90.0000
loop_
_atom_site_label
_atom_site_type_symbol
_atom_site_fract_x
_atom_site_fract_y
_atom_site_fract_z
_atom_site_U_iso_or_equiv
_atom_site_adp_type
_atom_site_occupancy
C1     C     0.71506   0.25147   0.79572   0.00000  Uiso   1.00
C2     C     0.77116   0.32826   0.83636   0.00000  Uiso   1.00
C3     C     0.85051   0.39233   0.78911   0.00000  Uiso   1.00
C4     C     0.89172   0.45705   0.83858   0.00000  Uiso   1.00
C5     C     0.98447   0.57615   0.88748   0.00000  Uiso   1.00
C6     C     0.72722   0.14890   0.83612   0.00000  Uiso   1.00
C7     C     0.76961   0.06217   0.78868   0.00000  Uiso   1.00
C8     C     0.77382   0.97591   0.83796   0.00000  Uiso   1.00
C9     C     0.79830   0.81654   0.88649   0.00000  Uiso   1.00
C10    C     0.60026   0.27794   0.83247   0.00000  Uiso   1.00
C11    C     0.53589   0.29969   0.78195   0.00000  Uiso   1.00
C12    C     0.43320   0.32205   0.82816   0.00000  Uiso   1.00
C13    C     0.26056   0.36304   0.87101   0.00000  Uiso   1.00
C14    C     0.64714   0.25248   0.96759   0.00000  Uiso   1.00
C15    C     0.73427   0.32880   0.92971   0.00000  Uiso   1.00
C16    C     0.77537   0.39345   0.97927   0.00000  Uiso   1.00
C17    C     0.85476   0.45760   0.93211   0.00000  Uiso   1.00
C18    C     0.69034   0.14945   0.92947   0.00000  Uiso   1.00
C19    C     0.69448   0.06329   0.97883   0.00000  Uiso   1.00
C20    C     0.73687   0.97645   0.93148   0.00000  Uiso   1.00
C21    C     0.56337   0.27850   0.92582   0.00000  Uiso   1.00
C22    C     0.46076   0.30081   0.97211   0.00000  Uiso   1.00
C23    C     0.39625   0.32259   0.92168   0.00000  Uiso   1.00
H24    H     0.74378   0.25104   0.72304   0.00000  Uiso   1.00
H25    H     0.87904   0.39187   0.71687   0.00000  Uiso   1.00
H26    H     0.79815   0.06177   0.71644   0.00000  Uiso   1.00
H27    H     0.56447   0.29925   0.70971   0.00000  Uiso   1.00
H28    H     0.01276   0.54823   0.75119   0.00000  Uiso   1.00
H29    H     0.84216   0.85217   0.75028   0.00000  Uiso   1.00
H30    H     0.34940   0.35296   0.73610   0.00000  Uiso   1.00
H31    H     0.61842   0.25291   0.04028   0.00000  Uiso   1.00
H32    H     0.74680   0.39385   0.05151   0.00000  Uiso   1.00
H33    H     0.66592   0.06374   0.05107   0.00000  Uiso   1.00
H34    H     0.43224   0.30123   0.04435   0.00000  Uiso   1.00
H35    H     0.90543   0.54983   0.02280   0.00000  Uiso   1.00
H36    H     0.73484   0.85377   0.02188   0.00000  Uiso   1.00
H37    H     0.24208   0.35456   0.00771   0.00000  Uiso   1.00
O38    O     0.04583   0.64169   0.88866   0.00000  Uiso   1.00
O39    O     0.82200   0.72849   0.88746   0.00000  Uiso   1.00
O40    O     0.17552   0.38551   0.86886   0.00000  Uiso   1.00
N41    N     0.96986   0.52928   0.81357   0.00000  Uiso   1.00
N42    N     0.81038   0.87851   0.81272   0.00000  Uiso   1.00
N43    N     0.34969   0.34668   0.79946   0.00000  Uiso   1.00
N44    N     0.91211   0.53014   0.95972   0.00000  Uiso   1.00
N45    N     0.75263   0.87938   0.95887   0.00000  Uiso   1.00
N46    N     0.29194   0.34754   0.94561   0.00000  Uiso   1.00
C47    C     0.28494   0.75147   0.70428   0.00000  Uiso   1.00
C48    C     0.22884   0.82826   0.66364   0.00000  Uiso   1.00
C49    C     0.14949   0.89233   0.71089   0.00000  Uiso   1.00
C50    C     0.10828   0.95705   0.66142   0.00000  Uiso   1.00
C51    C     0.01553   0.07615   0.61252   0.00000  Uiso   1.00
C52    C     0.27278   0.64890   0.66388   0.00000  Uiso   1.00
C53    C     0.23039   0.56217   0.71132   0.00000  Uiso   1.00
C54    C     0.22618   0.47591   0.66204   0.00000  Uiso   1.00
C55    C     0.20170   0.31654   0.61351   0.00000  Uiso   1.00
C56    C     0.39974   0.77794   0.66753   0.00000  Uiso   1.00
C57    C     0.46411   0.79969   0.71805   0.00000  Uiso   1.00
C58    C     0.56680   0.82205   0.67184   0.00000  Uiso   1.00
C59    C     0.73944   0.86304   0.62899   0.00000  Uiso   1.00
C60    C     0.35286   0.75248   0.53241   0.00000  Uiso   1.00
C61    C     0.26573   0.82880   0.57029   0.00000  Uiso   1.00
C62    C     0.22463   0.89345   0.52073   0.00000  Uiso   1.00
C63    C     0.14524   0.95760   0.56789   0.00000  Uiso   1.00
C64    C     0.30966   0.64945   0.57053   0.00000  Uiso   1.00
C65    C     0.30552   0.56329   0.52117   0.00000  Uiso   1.00
C66    C     0.26313   0.47645   0.56852   0.00000  Uiso   1.00
C67    C     0.43663   0.77850   0.57418   0.00000  Uiso   1.00
C68    C     0.53924   0.80081   0.52789   0.00000  Uiso   1.00
C69    C     0.60375   0.82259   0.57832   0.00000  Uiso   1.00
H70    H     0.25622   0.75104   0.77696   0.00000  Uiso   1.00
H71    H     0.12096   0.89187   0.78313   0.00000  Uiso   1.00
H72    H     0.20185   0.56177   0.78356   0.00000  Uiso   1.00
H73    H     0.43553   0.79925   0.79029   0.00000  Uiso   1.00
H74    H     0.98724   0.04823   0.74881   0.00000  Uiso   1.00
H75    H     0.15784   0.35217   0.74972   0.00000  Uiso   1.00
H76    H     0.65060   0.85296   0.76390   0.00000  Uiso   1.00
H77    H     0.38158   0.75291   0.45972   0.00000  Uiso   1.00
H78    H     0.25320   0.89385   0.44849   0.00000  Uiso   1.00
H79    H     0.33408   0.56374   0.44893   0.00000  Uiso   1.00
H80    H     0.56776   0.80123   0.45565   0.00000  Uiso   1.00
H81    H     0.09457   0.04983   0.47720   0.00000  Uiso   1.00
H82    H     0.26516   0.35377   0.47812   0.00000  Uiso   1.00
H83    H     0.75792   0.85456   0.49229   0.00000  Uiso   1.00
O84    O     0.95417   0.14169   0.61134   0.00000  Uiso   1.00
O85    O     0.17800   0.22849   0.61254   0.00000  Uiso   1.00
O86    O     0.82448   0.88551   0.63114   0.00000  Uiso   1.00
N87    N     0.03014   0.02928   0.68643   0.00000  Uiso   1.00
N88    N     0.18962   0.37851   0.68728   0.00000  Uiso   1.00
N89    N     0.65031   0.84668   0.70054   0.00000  Uiso   1.00
N90    N     0.08789   0.03014   0.54028   0.00000  Uiso   1.00
N91    N     0.24737   0.37938   0.54113   0.00000  Uiso   1.00
N92    N     0.70806   0.84754   0.55439   0.00000  Uiso   1.00
C93    C     0.28494   0.74853   0.20428   0.00000  Uiso   1.00
C94    C     0.22884   0.67174   0.16364   0.00000  Uiso   1.00
C95    C     0.14949   0.60767   0.21089   0.00000  Uiso   1.00
C96    C     0.10828   0.54295   0.16142   0.00000  Uiso   1.00
C97    C     0.01553   0.42385   0.11252   0.00000  Uiso   1.00
C98    C     0.27278   0.85110   0.16388   0.00000  Uiso   1.00
C99    C     0.23039   0.93783   0.21132   0.00000  Uiso   1.00
C100   C     0.22618   0.02409   0.16204   0.00000  Uiso   1.00
C101   C     0.20170   0.18346   0.11351   0.00000  Uiso   1.00
C102   C     0.39974   0.72206   0.16753   0.00000  Uiso   1.00
C103   C     0.46411   0.70031   0.21805   0.00000  Uiso   1.00
C104   C     0.56680   0.67795   0.17184   0.00000  Uiso   1.00
C105   C     0.73944   0.63696   0.12899   0.00000  Uiso   1.00
C106   C     0.35286   0.74752   0.03241   0.00000  Uiso   1.00
C107   C     0.26573   0.67120   0.07029   0.00000  Uiso   1.00
C108   C     0.22463   0.60655   0.02073   0.00000  Uiso   1.00
C109   C     0.14524   0.54240   0.06789   0.00000  Uiso   1.00
C110   C     0.30966   0.85055   0.07053   0.00000  Uiso   1.00
C111   C     0.30552   0.93671   0.02117   0.00000  Uiso   1.00
C112   C     0.26313   0.02355   0.06852   0.00000  Uiso   1.00
C113   C     0.43663   0.72150   0.07418   0.00000  Uiso   1.00
C114   C     0.53924   0.69919   0.02789   0.00000  Uiso   1.00
C115   C     0.60375   0.67741   0.07832   0.00000  Uiso   1.00
H116   H     0.25622   0.74896   0.27696   0.00000  Uiso   1.00
H117   H     0.12096   0.60813   0.28313   0.00000  Uiso   1.00
H118   H     0.20185   0.93823   0.28356   0.00000  Uiso   1.00
H119   H     0.43553   0.70075   0.29029   0.00000  Uiso   1.00
H120   H     0.98724   0.45177   0.24881   0.00000  Uiso   1.00
H121   H     0.15784   0.14783   0.24972   0.00000  Uiso   1.00
H122   H     0.65060   0.64704   0.26390   0.00000  Uiso   1.00
H123   H     0.38158   0.74709   0.95972   0.00000  Uiso   1.00
H124   H     0.25320   0.60615   0.94849   0.00000  Uiso   1.00
H125   H     0.33408   0.93626   0.94893   0.00000  Uiso   1.00
H126   H     0.56776   0.69877   0.95565   0.00000  Uiso   1.00
H127   H     0.09457   0.45017   0.97720   0.00000  Uiso   1.00
H128   H     0.26516   0.14623   0.97812   0.00000  Uiso   1.00
H129   H     0.75792   0.64544   0.99229   0.00000  Uiso   1.00
O130   O     0.95417   0.35831   0.11134   0.00000  Uiso   1.00
O131   O     0.17800   0.27151   0.11254   0.00000  Uiso   1.00
O132   O     0.82448   0.61449   0.13114   0.00000  Uiso   1.00
N133   N     0.03014   0.47072   0.18643   0.00000  Uiso   1.00
N134   N     0.18962   0.12149   0.18728   0.00000  Uiso   1.00
N135   N     0.65031   0.65332   0.20054   0.00000  Uiso   1.00
N136   N     0.08789   0.46986   0.04028   0.00000  Uiso   1.00
N137   N     0.24737   0.12062   0.04113   0.00000  Uiso   1.00
N138   N     0.70806   0.65246   0.05439   0.00000  Uiso   1.00
C139   C     0.71506   0.24853   0.29572   0.00000  Uiso   1.00
C140   C     0.77116   0.17174   0.33636   0.00000  Uiso   1.00
C141   C     0.85051   0.10767   0.28911   0.00000  Uiso   1.00
C142   C     0.89172   0.04295   0.33858   0.00000  Uiso   1.00
C143   C     0.98447   0.92385   0.38748   0.00000  Uiso   1.00
C144   C     0.72722   0.35110   0.33612   0.00000  Uiso   1.00
C145   C     0.76961   0.43783   0.28868   0.00000  Uiso   1.00
C146   C     0.77382   0.52409   0.33796   0.00000  Uiso   1.00
C147   C     0.79830   0.68346   0.38649   0.00000  Uiso   1.00
C148   C     0.60026   0.22206   0.33247   0.00000  Uiso   1.00
C149   C     0.53589   0.20031   0.28195   0.00000  Uiso   1.00
C150   C     0.43320   0.17795   0.32816   0.00000  Uiso   1.00
C151   C     0.26056   0.13696   0.37101   0.00000  Uiso   1.00
C152   C     0.64714   0.24752   0.46759   0.00000  Uiso   1.00
C153   C     0.73427   0.17120   0.42971   0.00000  Uiso   1.00
C154   C     0.77537   0.10655   0.47927   0.00000  Uiso   1.00
C155   C     0.85476   0.04240   0.43211   0.00000  Uiso   1.00
C156   C     0.69034   0.35055   0.42947   0.00000  Uiso   1.00
C157   C     0.69448   0.43671   0.47883   0.00000  Uiso   1.00
C158   C     0.73687   0.52355   0.43148   0.00000  Uiso   1.00
C159   C     0.56337   0.22150   0.42582   0.00000  Uiso   1.00
C160   C     0.46076   0.19919   0.47211   0.00000  Uiso   1.00
C161   C     0.39625   0.17741   0.42168   0.00000  Uiso   1.00
H162   H     0.74378   0.24896   0.22304   0.00000  Uiso   1.00
H163   H     0.87904   0.10813   0.21687   0.00000  Uiso   1.00
H164   H     0.79815   0.43823   0.21644   0.00000  Uiso   1.00
H165   H     0.56447   0.20075   0.20971   0.00000  Uiso   1.00
H166   H     0.01276   0.95177   0.25119   0.00000  Uiso   1.00
H167   H     0.84216   0.64783   0.25028   0.00000  Uiso   1.00
H168   H     0.34940   0.14704   0.23610   0.00000  Uiso   1.00
H169   H     0.61842   0.24709   0.54028   0.00000  Uiso   1.00
H170   H     0.74680   0.10615   0.55151   0.00000  Uiso   1.00
H171   H     0.66592   0.43626   0.55107   0.00000  Uiso   1.00
H172   H     0.43224   0.19877   0.54435   0.00000  Uiso   1.00
H173   H     0.90543   0.95017   0.52280   0.00000  Uiso   1.00
H174   H     0.73484   0.64623   0.52188   0.00000  Uiso   1.00
H175   H     0.24208   0.14544   0.50771   0.00000  Uiso   1.00
O176   O     0.04583   0.85831   0.38866   0.00000  Uiso   1.00
O177   O     0.82200   0.77151   0.38746   0.00000  Uiso   1.00
O178   O     0.17552   0.11449   0.36886   0.00000  Uiso   1.00
N179   N     0.96986   0.97072   0.31357   0.00000  Uiso   1.00
N180   N     0.81038   0.62149   0.31272   0.00000  Uiso   1.00
N181   N     0.34969   0.15332   0.29946   0.00000  Uiso   1.00
N182   N     0.91211   0.96986   0.45972   0.00000  Uiso   1.00
N183   N     0.75263   0.62062   0.45887   0.00000  Uiso   1.00
N184   N     0.29194   0.15246   0.44561   0.00000  Uiso   1.00
