data_job_03191
_audit_creation_date              2018-12-19
_audit_creation_method            'Materials Studio'
_symmetry_space_group_name_H-M    'P1'
_symmetry_Int_Tables_number       1
_symmetry_cell_setting            triclinic
loop_
_symmetry_equiv_pos_as_xyz
  x,y,z
_cell_length_a                    21.6861
_cell_length_b                    12.5537
_cell_length_c                    35.9542
_cell_angle_alpha                 90.0000
_cell_angle_beta                  113.8122
_cell_angle_gamma                 90.0000
loop_
_atom_site_label
_atom_site_type_symbol
_atom_site_fract_x
_atom_site_fract_y
_atom_site_fract_z
_atom_site_U_iso_or_equiv
_atom_site_adp_type
_atom_site_occupancy
C1     C     0.67277   0.43805   0.07568   0.00000  Uiso   1.00
C2     C     0.63023   0.53816   0.07041   0.00000  Uiso   1.00
C3     C     0.59994   0.59615   0.03474   0.00000  Uiso   1.00
C4     C     0.56311   0.68536   0.03616   0.00000  Uiso   1.00
C5     C     0.49804   0.83627   0.02254   0.00000  Uiso   1.00
C6     C     0.74054   0.46166   0.11042   0.00000  Uiso   1.00
C7     C     0.80300   0.45531   0.10838   0.00000  Uiso   1.00
C8     C     0.85903   0.48010   0.14348   0.00000  Uiso   1.00
C9     C     0.96521   0.51216   0.19198   0.00000  Uiso   1.00
C10    C     0.63964   0.35223   0.09141   0.00000  Uiso   1.00
C11    C     0.61727   0.25385   0.07341   0.00000  Uiso   1.00
C12    C     0.58835   0.18649   0.09251   0.00000  Uiso   1.00
C13    C     0.53787   0.04865   0.11150   0.00000  Uiso   1.00
C14    C     0.66122   0.49335   0.14163   0.00000  Uiso   1.00
C15    C     0.62396   0.56820   0.10624   0.00000  Uiso   1.00
C16    C     0.58716   0.65734   0.10771   0.00000  Uiso   1.00
C17    C     0.55682   0.71545   0.07205   0.00000  Uiso   1.00
C18    C     0.73427   0.49170   0.14624   0.00000  Uiso   1.00
C19    C     0.79022   0.51650   0.18135   0.00000  Uiso   1.00
C20    C     0.85274   0.51019   0.17937   0.00000  Uiso   1.00
C21    C     0.63336   0.38227   0.12724   0.00000  Uiso   1.00
C22    C     0.60449   0.31504   0.14638   0.00000  Uiso   1.00
C23    C     0.58207   0.21659   0.12840   0.00000  Uiso   1.00
H24    H     0.67766   0.41466   0.04779   0.00000  Uiso   1.00
H25    H     0.60481   0.57288   0.00702   0.00000  Uiso   1.00
H26    H     0.80784   0.43205   0.08066   0.00000  Uiso   1.00
H27    H     0.62213   0.23063   0.04568   0.00000  Uiso   1.00
H28    H     0.52130   0.76157   0.97763   0.00000  Uiso   1.00
H29    H     0.94939   0.46458   0.13289   0.00000  Uiso   1.00
H30    H     0.55779   0.03985   0.05915   0.00000  Uiso   1.00
H31    H     0.65634   0.51674   0.16953   0.00000  Uiso   1.00
H32    H     0.58232   0.68057   0.13544   0.00000  Uiso   1.00
H33    H     0.78535   0.53973   0.20907   0.00000  Uiso   1.00
H34    H     0.59964   0.33832   0.17410   0.00000  Uiso   1.00
H35    H     0.50305   0.84898   0.08186   0.00000  Uiso   1.00
H36    H     0.93114   0.55198   0.23712   0.00000  Uiso   1.00
H37    H     0.53954   0.12725   0.16337   0.00000  Uiso   1.00
O38    O     0.46389   0.91123   0.00513   0.00000  Uiso   1.00
O39    O     0.02552   0.52156   0.20882   0.00000  Uiso   1.00
O40    O     0.51175   0.96432   0.11207   0.00000  Uiso   1.00
N41    N     0.52715   0.75965   0.00684   0.00000  Uiso   1.00
N42    N     0.92739   0.48200   0.15199   0.00000  Uiso   1.00
N43    N     0.56130   0.08489   0.08305   0.00000  Uiso   1.00
N44    N     0.51733   0.80668   0.06292   0.00000  Uiso   1.00
N45    N     0.91757   0.52903   0.20808   0.00000  Uiso   1.00
N46    N     0.55147   0.13192   0.13914   0.00000  Uiso   1.00
C47    C     0.17277   0.93805   0.07568   0.00000  Uiso   1.00
C48    C     0.13023   0.03816   0.07041   0.00000  Uiso   1.00
C49    C     0.09994   0.09615   0.03474   0.00000  Uiso   1.00
C50    C     0.06311   0.18536   0.03616   0.00000  Uiso   1.00
C51    C     0.99804   0.33627   0.02254   0.00000  Uiso   1.00
C52    C     0.24054   0.96166   0.11042   0.00000  Uiso   1.00
C53    C     0.30300   0.95531   0.10838   0.00000  Uiso   1.00
C54    C     0.35903   0.98010   0.14348   0.00000  Uiso   1.00
C55    C     0.46521   0.01216   0.19198   0.00000  Uiso   1.00
C56    C     0.13964   0.85223   0.09141   0.00000  Uiso   1.00
C57    C     0.11727   0.75385   0.07341   0.00000  Uiso   1.00
C58    C     0.08835   0.68649   0.09251   0.00000  Uiso   1.00
C59    C     0.03787   0.54865   0.11150   0.00000  Uiso   1.00
C60    C     0.16122   0.99335   0.14163   0.00000  Uiso   1.00
C61    C     0.12396   0.06820   0.10624   0.00000  Uiso   1.00
C62    C     0.08716   0.15734   0.10771   0.00000  Uiso   1.00
C63    C     0.05682   0.21545   0.07205   0.00000  Uiso   1.00
C64    C     0.23427   0.99170   0.14624   0.00000  Uiso   1.00
C65    C     0.29022   0.01650   0.18135   0.00000  Uiso   1.00
C66    C     0.35274   0.01019   0.17937   0.00000  Uiso   1.00
C67    C     0.13336   0.88227   0.12724   0.00000  Uiso   1.00
C68    C     0.10449   0.81504   0.14638   0.00000  Uiso   1.00
C69    C     0.08207   0.71659   0.12840   0.00000  Uiso   1.00
H70    H     0.17766   0.91466   0.04779   0.00000  Uiso   1.00
H71    H     0.10481   0.07288   0.00702   0.00000  Uiso   1.00
H72    H     0.30784   0.93205   0.08066   0.00000  Uiso   1.00
H73    H     0.12213   0.73063   0.04568   0.00000  Uiso   1.00
H74    H     0.02130   0.26157   0.97763   0.00000  Uiso   1.00
H75    H     0.44939   0.96458   0.13289   0.00000  Uiso   1.00
H76    H     0.05779   0.53985   0.05915   0.00000  Uiso   1.00
H77    H     0.15634   0.01674   0.16953   0.00000  Uiso   1.00
H78    H     0.08232   0.18057   0.13544   0.00000  Uiso   1.00
H79    H     0.28535   0.03973   0.20907   0.00000  Uiso   1.00
H80    H     0.09964   0.83832   0.17410   0.00000  Uiso   1.00
H81    H     0.00305   0.34898   0.08186   0.00000  Uiso   1.00
H82    H     0.43114   0.05198   0.23712   0.00000  Uiso   1.00
H83    H     0.03954   0.62725   0.16337   0.00000  Uiso   1.00
O84    O     0.96389   0.41123   0.00513   0.00000  Uiso   1.00
O85    O     0.52552   0.02156   0.20882   0.00000  Uiso   1.00
O86    O     0.01175   0.46432   0.11207   0.00000  Uiso   1.00
N87    N     0.02715   0.25965   0.00684   0.00000  Uiso   1.00
N88    N     0.42739   0.98200   0.15199   0.00000  Uiso   1.00
N89    N     0.06130   0.58489   0.08305   0.00000  Uiso   1.00
N90    N     0.01733   0.30668   0.06292   0.00000  Uiso   1.00
N91    N     0.41757   0.02903   0.20808   0.00000  Uiso   1.00
N92    N     0.05147   0.63192   0.13914   0.00000  Uiso   1.00
C93    C     0.32723   0.43805   0.42432   0.00000  Uiso   1.00
C94    C     0.36977   0.53816   0.42959   0.00000  Uiso   1.00
C95    C     0.40006   0.59615   0.46526   0.00000  Uiso   1.00
C96    C     0.43689   0.68536   0.46384   0.00000  Uiso   1.00
C97    C     0.50196   0.83627   0.47746   0.00000  Uiso   1.00
C98    C     0.25946   0.46166   0.38958   0.00000  Uiso   1.00
C99    C     0.19700   0.45531   0.39162   0.00000  Uiso   1.00
C100   C     0.14097   0.48010   0.35652   0.00000  Uiso   1.00
C101   C     0.03479   0.51216   0.30802   0.00000  Uiso   1.00
C102   C     0.36036   0.35223   0.40859   0.00000  Uiso   1.00
C103   C     0.38273   0.25385   0.42659   0.00000  Uiso   1.00
C104   C     0.41165   0.18649   0.40749   0.00000  Uiso   1.00
C105   C     0.46213   0.04865   0.38850   0.00000  Uiso   1.00
C106   C     0.33878   0.49335   0.35837   0.00000  Uiso   1.00
C107   C     0.37604   0.56820   0.39376   0.00000  Uiso   1.00
C108   C     0.41284   0.65734   0.39229   0.00000  Uiso   1.00
C109   C     0.44318   0.71545   0.42795   0.00000  Uiso   1.00
C110   C     0.26573   0.49170   0.35376   0.00000  Uiso   1.00
C111   C     0.20978   0.51650   0.31865   0.00000  Uiso   1.00
C112   C     0.14726   0.51019   0.32063   0.00000  Uiso   1.00
C113   C     0.36664   0.38227   0.37276   0.00000  Uiso   1.00
C114   C     0.39551   0.31504   0.35362   0.00000  Uiso   1.00
C115   C     0.41793   0.21659   0.37160   0.00000  Uiso   1.00
H116   H     0.32234   0.41466   0.45221   0.00000  Uiso   1.00
H117   H     0.39519   0.57288   0.49298   0.00000  Uiso   1.00
H118   H     0.19216   0.43205   0.41934   0.00000  Uiso   1.00
H119   H     0.37787   0.23063   0.45432   0.00000  Uiso   1.00
H120   H     0.47870   0.76157   0.52237   0.00000  Uiso   1.00
H121   H     0.05061   0.46458   0.36711   0.00000  Uiso   1.00
H122   H     0.44221   0.03985   0.44085   0.00000  Uiso   1.00
H123   H     0.34366   0.51674   0.33047   0.00000  Uiso   1.00
H124   H     0.41768   0.68057   0.36456   0.00000  Uiso   1.00
H125   H     0.21465   0.53973   0.29093   0.00000  Uiso   1.00
H126   H     0.40036   0.33832   0.32590   0.00000  Uiso   1.00
H127   H     0.49695   0.84898   0.41814   0.00000  Uiso   1.00
H128   H     0.06886   0.55198   0.26288   0.00000  Uiso   1.00
H129   H     0.46046   0.12725   0.33663   0.00000  Uiso   1.00
O130   O     0.53611   0.91123   0.49487   0.00000  Uiso   1.00
O131   O     0.97448   0.52156   0.29118   0.00000  Uiso   1.00
O132   O     0.48825   0.96432   0.38793   0.00000  Uiso   1.00
N133   N     0.47285   0.75965   0.49316   0.00000  Uiso   1.00
N134   N     0.07261   0.48200   0.34801   0.00000  Uiso   1.00
N135   N     0.43870   0.08489   0.41695   0.00000  Uiso   1.00
N136   N     0.48267   0.80668   0.43708   0.00000  Uiso   1.00
N137   N     0.08243   0.52903   0.29192   0.00000  Uiso   1.00
N138   N     0.44853   0.13192   0.36086   0.00000  Uiso   1.00
C139   C     0.82723   0.93805   0.42432   0.00000  Uiso   1.00
C140   C     0.86977   0.03816   0.42959   0.00000  Uiso   1.00
C141   C     0.90006   0.09615   0.46526   0.00000  Uiso   1.00
C142   C     0.93689   0.18536   0.46384   0.00000  Uiso   1.00
C143   C     0.00196   0.33627   0.47746   0.00000  Uiso   1.00
C144   C     0.75946   0.96166   0.38958   0.00000  Uiso   1.00
C145   C     0.69700   0.95531   0.39162   0.00000  Uiso   1.00
C146   C     0.64097   0.98010   0.35652   0.00000  Uiso   1.00
C147   C     0.53479   0.01216   0.30802   0.00000  Uiso   1.00
C148   C     0.86036   0.85223   0.40859   0.00000  Uiso   1.00
C149   C     0.88273   0.75385   0.42659   0.00000  Uiso   1.00
C150   C     0.91165   0.68649   0.40749   0.00000  Uiso   1.00
C151   C     0.96213   0.54865   0.38850   0.00000  Uiso   1.00
C152   C     0.83878   0.99335   0.35837   0.00000  Uiso   1.00
C153   C     0.87604   0.06820   0.39376   0.00000  Uiso   1.00
C154   C     0.91284   0.15734   0.39229   0.00000  Uiso   1.00
C155   C     0.94318   0.21545   0.42795   0.00000  Uiso   1.00
C156   C     0.76573   0.99170   0.35376   0.00000  Uiso   1.00
C157   C     0.70978   0.01650   0.31865   0.00000  Uiso   1.00
C158   C     0.64726   0.01019   0.32063   0.00000  Uiso   1.00
C159   C     0.86664   0.88227   0.37276   0.00000  Uiso   1.00
C160   C     0.89551   0.81504   0.35362   0.00000  Uiso   1.00
C161   C     0.91793   0.71659   0.37160   0.00000  Uiso   1.00
H162   H     0.82234   0.91466   0.45221   0.00000  Uiso   1.00
H163   H     0.89519   0.07288   0.49298   0.00000  Uiso   1.00
H164   H     0.69216   0.93205   0.41934   0.00000  Uiso   1.00
H165   H     0.87787   0.73063   0.45432   0.00000  Uiso   1.00
H166   H     0.97870   0.26157   0.52237   0.00000  Uiso   1.00
H167   H     0.55061   0.96458   0.36711   0.00000  Uiso   1.00
H168   H     0.94221   0.53985   0.44085   0.00000  Uiso   1.00
H169   H     0.84366   0.01674   0.33047   0.00000  Uiso   1.00
H170   H     0.91768   0.18057   0.36456   0.00000  Uiso   1.00
H171   H     0.71465   0.03973   0.29093   0.00000  Uiso   1.00
H172   H     0.90036   0.83832   0.32590   0.00000  Uiso   1.00
H173   H     0.99695   0.34898   0.41814   0.00000  Uiso   1.00
H174   H     0.56886   0.05198   0.26288   0.00000  Uiso   1.00
H175   H     0.96046   0.62725   0.33663   0.00000  Uiso   1.00
O176   O     0.03611   0.41123   0.49487   0.00000  Uiso   1.00
O177   O     0.47448   0.02156   0.29118   0.00000  Uiso   1.00
O178   O     0.98825   0.46432   0.38793   0.00000  Uiso   1.00
N179   N     0.97285   0.25965   0.49316   0.00000  Uiso   1.00
N180   N     0.57261   0.98200   0.34801   0.00000  Uiso   1.00
N181   N     0.93870   0.58489   0.41695   0.00000  Uiso   1.00
N182   N     0.98267   0.30668   0.43708   0.00000  Uiso   1.00
N183   N     0.58243   0.02903   0.29192   0.00000  Uiso   1.00
N184   N     0.94853   0.63192   0.36086   0.00000  Uiso   1.00
C185   C     0.32723   0.56195   0.92432   0.00000  Uiso   1.00
C186   C     0.36977   0.46184   0.92959   0.00000  Uiso   1.00
C187   C     0.40006   0.40385   0.96526   0.00000  Uiso   1.00
C188   C     0.43689   0.31464   0.96384   0.00000  Uiso   1.00
C189   C     0.50196   0.16373   0.97746   0.00000  Uiso   1.00
C190   C     0.25946   0.53834   0.88958   0.00000  Uiso   1.00
C191   C     0.19700   0.54469   0.89162   0.00000  Uiso   1.00
C192   C     0.14097   0.51990   0.85652   0.00000  Uiso   1.00
C193   C     0.03479   0.48784   0.80802   0.00000  Uiso   1.00
C194   C     0.36036   0.64777   0.90859   0.00000  Uiso   1.00
C195   C     0.38273   0.74615   0.92659   0.00000  Uiso   1.00
C196   C     0.41165   0.81351   0.90749   0.00000  Uiso   1.00
C197   C     0.46213   0.95135   0.88850   0.00000  Uiso   1.00
C198   C     0.33878   0.50665   0.85837   0.00000  Uiso   1.00
C199   C     0.37604   0.43180   0.89376   0.00000  Uiso   1.00
C200   C     0.41284   0.34266   0.89229   0.00000  Uiso   1.00
C201   C     0.44318   0.28455   0.92795   0.00000  Uiso   1.00
C202   C     0.26573   0.50830   0.85376   0.00000  Uiso   1.00
C203   C     0.20978   0.48350   0.81865   0.00000  Uiso   1.00
C204   C     0.14726   0.48981   0.82063   0.00000  Uiso   1.00
C205   C     0.36664   0.61773   0.87276   0.00000  Uiso   1.00
C206   C     0.39551   0.68496   0.85362   0.00000  Uiso   1.00
C207   C     0.41793   0.78341   0.87160   0.00000  Uiso   1.00
H208   H     0.32234   0.58534   0.95221   0.00000  Uiso   1.00
H209   H     0.39519   0.42712   0.99298   0.00000  Uiso   1.00
H210   H     0.19216   0.56795   0.91934   0.00000  Uiso   1.00
H211   H     0.37787   0.76937   0.95432   0.00000  Uiso   1.00
H212   H     0.47870   0.23843   0.02237   0.00000  Uiso   1.00
H213   H     0.05061   0.53542   0.86711   0.00000  Uiso   1.00
H214   H     0.44221   0.96015   0.94085   0.00000  Uiso   1.00
H215   H     0.34366   0.48326   0.83047   0.00000  Uiso   1.00
H216   H     0.41768   0.31943   0.86456   0.00000  Uiso   1.00
H217   H     0.21465   0.46027   0.79093   0.00000  Uiso   1.00
H218   H     0.40036   0.66168   0.82590   0.00000  Uiso   1.00
H219   H     0.49695   0.15102   0.91814   0.00000  Uiso   1.00
H220   H     0.06886   0.44802   0.76288   0.00000  Uiso   1.00
H221   H     0.46046   0.87275   0.83663   0.00000  Uiso   1.00
O222   O     0.53611   0.08877   0.99487   0.00000  Uiso   1.00
O223   O     0.97448   0.47844   0.79118   0.00000  Uiso   1.00
O224   O     0.48825   0.03568   0.88793   0.00000  Uiso   1.00
N225   N     0.47285   0.24035   0.99316   0.00000  Uiso   1.00
N226   N     0.07261   0.51800   0.84801   0.00000  Uiso   1.00
N227   N     0.43870   0.91511   0.91695   0.00000  Uiso   1.00
N228   N     0.48267   0.19332   0.93708   0.00000  Uiso   1.00
N229   N     0.08243   0.47097   0.79192   0.00000  Uiso   1.00
N230   N     0.44853   0.86808   0.86086   0.00000  Uiso   1.00
C231   C     0.82723   0.06195   0.92432   0.00000  Uiso   1.00
C232   C     0.86977   0.96184   0.92959   0.00000  Uiso   1.00
C233   C     0.90006   0.90385   0.96526   0.00000  Uiso   1.00
C234   C     0.93689   0.81464   0.96384   0.00000  Uiso   1.00
C235   C     0.00196   0.66373   0.97746   0.00000  Uiso   1.00
C236   C     0.75946   0.03834   0.88958   0.00000  Uiso   1.00
C237   C     0.69700   0.04469   0.89162   0.00000  Uiso   1.00
C238   C     0.64097   0.01990   0.85652   0.00000  Uiso   1.00
C239   C     0.53479   0.98784   0.80802   0.00000  Uiso   1.00
C240   C     0.86036   0.14777   0.90859   0.00000  Uiso   1.00
C241   C     0.88273   0.24615   0.92659   0.00000  Uiso   1.00
C242   C     0.91165   0.31351   0.90749   0.00000  Uiso   1.00
C243   C     0.96213   0.45135   0.88850   0.00000  Uiso   1.00
C244   C     0.83878   0.00665   0.85837   0.00000  Uiso   1.00
C245   C     0.87604   0.93180   0.89376   0.00000  Uiso   1.00
C246   C     0.91284   0.84266   0.89229   0.00000  Uiso   1.00
C247   C     0.94318   0.78455   0.92795   0.00000  Uiso   1.00
C248   C     0.76573   0.00830   0.85376   0.00000  Uiso   1.00
C249   C     0.70978   0.98350   0.81865   0.00000  Uiso   1.00
C250   C     0.64726   0.98981   0.82063   0.00000  Uiso   1.00
C251   C     0.86664   0.11773   0.87276   0.00000  Uiso   1.00
C252   C     0.89551   0.18496   0.85362   0.00000  Uiso   1.00
C253   C     0.91793   0.28341   0.87160   0.00000  Uiso   1.00
H254   H     0.82234   0.08534   0.95221   0.00000  Uiso   1.00
H255   H     0.89519   0.92712   0.99298   0.00000  Uiso   1.00
H256   H     0.69216   0.06795   0.91934   0.00000  Uiso   1.00
H257   H     0.87787   0.26937   0.95432   0.00000  Uiso   1.00
H258   H     0.97870   0.73843   0.02237   0.00000  Uiso   1.00
H259   H     0.55061   0.03542   0.86711   0.00000  Uiso   1.00
H260   H     0.94221   0.46015   0.94085   0.00000  Uiso   1.00
H261   H     0.84366   0.98326   0.83047   0.00000  Uiso   1.00
H262   H     0.91768   0.81943   0.86456   0.00000  Uiso   1.00
H263   H     0.71465   0.96027   0.79093   0.00000  Uiso   1.00
H264   H     0.90036   0.16168   0.82590   0.00000  Uiso   1.00
H265   H     0.99695   0.65102   0.91814   0.00000  Uiso   1.00
H266   H     0.56886   0.94802   0.76288   0.00000  Uiso   1.00
H267   H     0.96046   0.37275   0.83663   0.00000  Uiso   1.00
O268   O     0.03611   0.58877   0.99487   0.00000  Uiso   1.00
O269   O     0.47448   0.97844   0.79118   0.00000  Uiso   1.00
O270   O     0.98825   0.53568   0.88793   0.00000  Uiso   1.00
N271   N     0.97285   0.74035   0.99316   0.00000  Uiso   1.00
N272   N     0.57261   0.01800   0.84801   0.00000  Uiso   1.00
N273   N     0.93870   0.41511   0.91695   0.00000  Uiso   1.00
N274   N     0.98267   0.69332   0.93708   0.00000  Uiso   1.00
N275   N     0.58243   0.97097   0.79192   0.00000  Uiso   1.00
N276   N     0.94853   0.36808   0.86086   0.00000  Uiso   1.00
C277   C     0.67277   0.56195   0.57568   0.00000  Uiso   1.00
C278   C     0.63023   0.46184   0.57041   0.00000  Uiso   1.00
C279   C     0.59994   0.40385   0.53474   0.00000  Uiso   1.00
C280   C     0.56311   0.31464   0.53616   0.00000  Uiso   1.00
C281   C     0.49804   0.16373   0.52254   0.00000  Uiso   1.00
C282   C     0.74054   0.53834   0.61042   0.00000  Uiso   1.00
C283   C     0.80300   0.54469   0.60838   0.00000  Uiso   1.00
C284   C     0.85903   0.51990   0.64348   0.00000  Uiso   1.00
C285   C     0.96521   0.48784   0.69198   0.00000  Uiso   1.00
C286   C     0.63964   0.64777   0.59141   0.00000  Uiso   1.00
C287   C     0.61727   0.74615   0.57341   0.00000  Uiso   1.00
C288   C     0.58835   0.81351   0.59251   0.00000  Uiso   1.00
C289   C     0.53787   0.95135   0.61150   0.00000  Uiso   1.00
C290   C     0.66122   0.50665   0.64163   0.00000  Uiso   1.00
C291   C     0.62396   0.43180   0.60624   0.00000  Uiso   1.00
C292   C     0.58716   0.34266   0.60771   0.00000  Uiso   1.00
C293   C     0.55682   0.28455   0.57205   0.00000  Uiso   1.00
C294   C     0.73427   0.50830   0.64624   0.00000  Uiso   1.00
C295   C     0.79022   0.48350   0.68135   0.00000  Uiso   1.00
C296   C     0.85274   0.48981   0.67937   0.00000  Uiso   1.00
C297   C     0.63336   0.61773   0.62724   0.00000  Uiso   1.00
C298   C     0.60449   0.68496   0.64638   0.00000  Uiso   1.00
C299   C     0.58207   0.78341   0.62840   0.00000  Uiso   1.00
H300   H     0.67766   0.58534   0.54779   0.00000  Uiso   1.00
H301   H     0.60481   0.42712   0.50702   0.00000  Uiso   1.00
H302   H     0.80784   0.56795   0.58066   0.00000  Uiso   1.00
H303   H     0.62213   0.76937   0.54568   0.00000  Uiso   1.00
H304   H     0.52130   0.23843   0.47763   0.00000  Uiso   1.00
H305   H     0.94939   0.53542   0.63289   0.00000  Uiso   1.00
H306   H     0.55779   0.96015   0.55915   0.00000  Uiso   1.00
H307   H     0.65634   0.48326   0.66953   0.00000  Uiso   1.00
H308   H     0.58232   0.31943   0.63544   0.00000  Uiso   1.00
H309   H     0.78535   0.46027   0.70907   0.00000  Uiso   1.00
H310   H     0.59964   0.66168   0.67410   0.00000  Uiso   1.00
H311   H     0.50305   0.15102   0.58186   0.00000  Uiso   1.00
H312   H     0.93114   0.44802   0.73712   0.00000  Uiso   1.00
H313   H     0.53954   0.87275   0.66337   0.00000  Uiso   1.00
O314   O     0.46389   0.08877   0.50513   0.00000  Uiso   1.00
O315   O     0.02552   0.47844   0.70882   0.00000  Uiso   1.00
O316   O     0.51175   0.03568   0.61207   0.00000  Uiso   1.00
N317   N     0.52715   0.24035   0.50684   0.00000  Uiso   1.00
N318   N     0.92739   0.51800   0.65199   0.00000  Uiso   1.00
N319   N     0.56130   0.91511   0.58305   0.00000  Uiso   1.00
N320   N     0.51733   0.19332   0.56292   0.00000  Uiso   1.00
N321   N     0.91757   0.47097   0.70808   0.00000  Uiso   1.00
N322   N     0.55147   0.86808   0.63914   0.00000  Uiso   1.00
C323   C     0.17277   0.06195   0.57568   0.00000  Uiso   1.00
C324   C     0.13023   0.96184   0.57041   0.00000  Uiso   1.00
C325   C     0.09994   0.90385   0.53474   0.00000  Uiso   1.00
C326   C     0.06311   0.81464   0.53616   0.00000  Uiso   1.00
C327   C     0.99804   0.66373   0.52254   0.00000  Uiso   1.00
C328   C     0.24054   0.03834   0.61042   0.00000  Uiso   1.00
C329   C     0.30300   0.04469   0.60838   0.00000  Uiso   1.00
C330   C     0.35903   0.01990   0.64348   0.00000  Uiso   1.00
C331   C     0.46521   0.98784   0.69198   0.00000  Uiso   1.00
C332   C     0.13964   0.14777   0.59141   0.00000  Uiso   1.00
C333   C     0.11727   0.24615   0.57341   0.00000  Uiso   1.00
C334   C     0.08835   0.31351   0.59251   0.00000  Uiso   1.00
C335   C     0.03787   0.45135   0.61150   0.00000  Uiso   1.00
C336   C     0.16122   0.00665   0.64163   0.00000  Uiso   1.00
C337   C     0.12396   0.93180   0.60624   0.00000  Uiso   1.00
C338   C     0.08716   0.84266   0.60771   0.00000  Uiso   1.00
C339   C     0.05682   0.78455   0.57205   0.00000  Uiso   1.00
C340   C     0.23427   0.00830   0.64624   0.00000  Uiso   1.00
C341   C     0.29022   0.98350   0.68135   0.00000  Uiso   1.00
C342   C     0.35274   0.98981   0.67937   0.00000  Uiso   1.00
C343   C     0.13336   0.11773   0.62724   0.00000  Uiso   1.00
C344   C     0.10449   0.18496   0.64638   0.00000  Uiso   1.00
C345   C     0.08207   0.28341   0.62840   0.00000  Uiso   1.00
H346   H     0.17766   0.08534   0.54779   0.00000  Uiso   1.00
H347   H     0.10481   0.92712   0.50702   0.00000  Uiso   1.00
H348   H     0.30784   0.06795   0.58066   0.00000  Uiso   1.00
H349   H     0.12213   0.26937   0.54568   0.00000  Uiso   1.00
H350   H     0.02130   0.73843   0.47763   0.00000  Uiso   1.00
H351   H     0.44939   0.03542   0.63289   0.00000  Uiso   1.00
H352   H     0.05779   0.46015   0.55915   0.00000  Uiso   1.00
H353   H     0.15634   0.98326   0.66953   0.00000  Uiso   1.00
H354   H     0.08232   0.81943   0.63544   0.00000  Uiso   1.00
H355   H     0.28535   0.96027   0.70907   0.00000  Uiso   1.00
H356   H     0.09964   0.16168   0.67410   0.00000  Uiso   1.00
H357   H     0.00305   0.65102   0.58186   0.00000  Uiso   1.00
H358   H     0.43114   0.94802   0.73712   0.00000  Uiso   1.00
H359   H     0.03954   0.37275   0.66337   0.00000  Uiso   1.00
O360   O     0.96389   0.58877   0.50513   0.00000  Uiso   1.00
O361   O     0.52552   0.97844   0.70882   0.00000  Uiso   1.00
O362   O     0.01175   0.53568   0.61207   0.00000  Uiso   1.00
N363   N     0.02715   0.74035   0.50684   0.00000  Uiso   1.00
N364   N     0.42739   0.01800   0.65199   0.00000  Uiso   1.00
N365   N     0.06130   0.41511   0.58305   0.00000  Uiso   1.00
N366   N     0.01733   0.69332   0.56292   0.00000  Uiso   1.00
N367   N     0.41757   0.97097   0.70808   0.00000  Uiso   1.00
N368   N     0.05147   0.36808   0.63914   0.00000  Uiso   1.00
