data_job_06644
_audit_creation_date              2018-12-19
_audit_creation_method            'Materials Studio'
_symmetry_space_group_name_H-M    'P1'
_symmetry_Int_Tables_number       1
_symmetry_cell_setting            triclinic
loop_
_symmetry_equiv_pos_as_xyz
  x,y,z
_cell_length_a                    21.1181
_cell_length_b                    20.6416
_cell_length_c                    21.0698
_cell_angle_alpha                 106.1170
_cell_angle_beta                  108.5350
_cell_angle_gamma                 110.0580
loop_
_atom_site_label
_atom_site_type_symbol
_atom_site_fract_x
_atom_site_fract_y
_atom_site_fract_z
_atom_site_U_iso_or_equiv
_atom_site_adp_type
_atom_site_occupancy
C1     C     0.74525   0.32727   0.28549   0.00000  Uiso   1.00
C2     C     0.74835   0.25966   0.29975   0.00000  Uiso   1.00
C3     C     0.69293   0.18367   0.25747   0.00000  Uiso   1.00
C4     C     0.70641   0.13034   0.27967   0.00000  Uiso   1.00
C5     C     0.70108   0.02202   0.29238   0.00000  Uiso   1.00
C6     C     0.75473   0.38329   0.35691   0.00000  Uiso   1.00
C7     C     0.70468   0.41125   0.36268   0.00000  Uiso   1.00
C8     C     0.72354   0.46200   0.43299   0.00000  Uiso   1.00
C9     C     0.72815   0.54567   0.53443   0.00000  Uiso   1.00
C10    C     0.81660   0.36657   0.27833   0.00000  Uiso   1.00
C11    C     0.81859   0.38049   0.21805   0.00000  Uiso   1.00
C12    C     0.88955   0.41718   0.22221   0.00000  Uiso   1.00
C13    C     0.99023   0.47488   0.20164   0.00000  Uiso   1.00
C14    C     0.86773   0.36770   0.40009   0.00000  Uiso   1.00
C15    C     0.81488   0.28162   0.36200   0.00000  Uiso   1.00
C16    C     0.82845   0.22839   0.38427   0.00000  Uiso   1.00
C17    C     0.77306   0.15233   0.34203   0.00000  Uiso   1.00
C18    C     0.82125   0.40525   0.41916   0.00000  Uiso   1.00
C19    C     0.84020   0.45597   0.48948   0.00000  Uiso   1.00
C20    C     0.79019   0.48400   0.49535   0.00000  Uiso   1.00
C21    C     0.88314   0.38852   0.34058   0.00000  Uiso   1.00
C22    C     0.95410   0.42521   0.34484   0.00000  Uiso   1.00
C23    C     0.95620   0.43918   0.28457   0.00000  Uiso   1.00
H24    H     0.69345   0.31018   0.23703   0.00000  Uiso   1.00
H25    H     0.64144   0.16670   0.20931   0.00000  Uiso   1.00
H26    H     0.65320   0.39425   0.31450   0.00000  Uiso   1.00
H27    H     0.76709   0.36349   0.16989   0.00000  Uiso   1.00
H28    H     0.61311   0.01731   0.20604   0.00000  Uiso   1.00
H29    H     0.63792   0.49714   0.42784   0.00000  Uiso   1.00
H30    H     0.87807   0.43227   0.12290   0.00000  Uiso   1.00
H31    H     0.91953   0.38479   0.44855   0.00000  Uiso   1.00
H32    H     0.87994   0.24540   0.43244   0.00000  Uiso   1.00
H33    H     0.89169   0.47296   0.53763   0.00000  Uiso   1.00
H34    H     0.00558   0.44219   0.39302   0.00000  Uiso   1.00
H35    H     0.80668   0.08119   0.38715   0.00000  Uiso   1.00
H36    H     0.83148   0.56102   0.60894   0.00000  Uiso   1.00
H37    H     0.07164   0.49615   0.30400   0.00000  Uiso   1.00
O38    O     0.67976   0.95621   0.28219   0.00000  Uiso   1.00
O39    O     0.71230   0.58574   0.57318   0.00000  Uiso   1.00
O40    O     0.02738   0.50063   0.17310   0.00000  Uiso   1.00
N41    N     0.66411   0.05147   0.25087   0.00000  Uiso   1.00
N42    N     0.68729   0.50007   0.45824   0.00000  Uiso   1.00
N43    N     0.91182   0.43945   0.17315   0.00000  Uiso   1.00
N44    N     0.76827   0.08584   0.34832   0.00000  Uiso   1.00
N45    N     0.79145   0.53445   0.55569   0.00000  Uiso   1.00
N46    N     0.01598   0.47382   0.27060   0.00000  Uiso   1.00
C47    C     0.46658   0.69842   0.40307   0.00000  Uiso   1.00
C48    C     0.47714   0.66789   0.33458   0.00000  Uiso   1.00
C49    C     0.42972   0.59608   0.27499   0.00000  Uiso   1.00
C50    C     0.44917   0.57903   0.21771   0.00000  Uiso   1.00
C51    C     0.45577   0.52356   0.11103   0.00000  Uiso   1.00
C52    C     0.53958   0.72146   0.46974   0.00000  Uiso   1.00
C53    C     0.54466   0.69468   0.52379   0.00000  Uiso   1.00
C54    C     0.61667   0.72273   0.58029   0.00000  Uiso   1.00
C55    C     0.72020   0.75047   0.68348   0.00000  Uiso   1.00
C56    C     0.46448   0.77267   0.40782   0.00000  Uiso   1.00
C57    C     0.40642   0.78897   0.40982   0.00000  Uiso   1.00
C58    C     0.41522   0.86014   0.41420   0.00000  Uiso   1.00
C59    C     0.40215   0.96739   0.42124   0.00000  Uiso   1.00
C60    C     0.58545   0.79585   0.40733   0.00000  Uiso   1.00
C61    C     0.54171   0.72081   0.33690   0.00000  Uiso   1.00
C62    C     0.56123   0.70387   0.27969   0.00000  Uiso   1.00
C63    C     0.51385   0.63204   0.22002   0.00000  Uiso   1.00
C64    C     0.60414   0.77437   0.47206   0.00000  Uiso   1.00
C65    C     0.67617   0.80247   0.52850   0.00000  Uiso   1.00
C66    C     0.68135   0.77574   0.58261   0.00000  Uiso   1.00
C67    C     0.52904   0.82559   0.41013   0.00000  Uiso   1.00
C68    C     0.53794   0.89675   0.41452   0.00000  Uiso   1.00
C69    C     0.47990   0.91315   0.41652   0.00000  Uiso   1.00
H70    H     0.41632   0.65722   0.40128   0.00000  Uiso   1.00
H71    H     0.37976   0.55514   0.27322   0.00000  Uiso   1.00
H72    H     0.49468   0.65374   0.52199   0.00000  Uiso   1.00
H73    H     0.35647   0.74800   0.40803   0.00000  Uiso   1.00
H74    H     0.36773   0.46529   0.13228   0.00000  Uiso   1.00
H75    H     0.61003   0.67321   0.65683   0.00000  Uiso   1.00
H76    H     0.31859   0.87198   0.41653   0.00000  Uiso   1.00
H77    H     0.63572   0.83705   0.40913   0.00000  Uiso   1.00
H78    H     0.61120   0.74483   0.28150   0.00000  Uiso   1.00
H79    H     0.72612   0.84343   0.53027   0.00000  Uiso   1.00
H80    H     0.58791   0.93769   0.41631   0.00000  Uiso   1.00
H81    H     0.55557   0.61925   0.13900   0.00000  Uiso   1.00
H82    H     0.79788   0.82717   0.66356   0.00000  Uiso   1.00
H83    H     0.50643   0.02594   0.42325   0.00000  Uiso   1.00
O84    O     0.44158   0.47835   0.05155   0.00000  Uiso   1.00
O85    O     0.75947   0.75114   0.73975   0.00000  Uiso   1.00
O86    O     0.37710   0.01193   0.42447   0.00000  Uiso   1.00
N87    N     0.41529   0.51418   0.15137   0.00000  Uiso   1.00
N88    N     0.64184   0.70857   0.64179   0.00000  Uiso   1.00
N89    N     0.36937   0.89441   0.41714   0.00000  Uiso   1.00
N90    N     0.51637   0.59703   0.15498   0.00000  Uiso   1.00
N91    N     0.74291   0.79141   0.64540   0.00000  Uiso   1.00
N92    N     0.47044   0.97725   0.42076   0.00000  Uiso   1.00
C93    C     0.52876   0.40157   0.75388   0.00000  Uiso   1.00
C94    C     0.46073   0.41391   0.72096   0.00000  Uiso   1.00
C95    C     0.39196   0.35950   0.65948   0.00000  Uiso   1.00
C96    C     0.33686   0.38204   0.63810   0.00000  Uiso   1.00
C97    C     0.22923   0.38991   0.58107   0.00000  Uiso   1.00
C98    C     0.59509   0.46275   0.75443   0.00000  Uiso   1.00
C99    C     0.63929   0.44942   0.72110   0.00000  Uiso   1.00
C100   C     0.69730   0.51308   0.72790   0.00000  Uiso   1.00
C101   C     0.79830   0.59679   0.72288   0.00000  Uiso   1.00
C102   C     0.54721   0.42177   0.83514   0.00000  Uiso   1.00
C103   C     0.55118   0.37398   0.86968   0.00000  Uiso   1.00
C104   C     0.56890   0.40314   0.94444   0.00000  Uiso   1.00
C105   C     0.59555   0.42322   0.06473   0.00000  Uiso   1.00
C106   C     0.55320   0.53834   0.82524   0.00000  Uiso   1.00
C107   C     0.47401   0.48820   0.75972   0.00000  Uiso   1.00
C108   C     0.41900   0.51082   0.73843   0.00000  Uiso   1.00
C109   C     0.35016   0.45646   0.67693   0.00000  Uiso   1.00
C110   C     0.60837   0.53704   0.79319   0.00000  Uiso   1.00
C111   C     0.66633   0.60074   0.80005   0.00000  Uiso   1.00
C112   C     0.71060   0.58750   0.76673   0.00000  Uiso   1.00
C113   C     0.56048   0.49606   0.87390   0.00000  Uiso   1.00
C114   C     0.57821   0.52530   0.94863   0.00000  Uiso   1.00
C115   C     0.58220   0.47756   0.98327   0.00000  Uiso   1.00
H116   H     0.51843   0.34373   0.72371   0.00000  Uiso   1.00
H117   H     0.38171   0.30202   0.62950   0.00000  Uiso   1.00
H118   H     0.62901   0.39192   0.69112   0.00000  Uiso   1.00
H119   H     0.54090   0.31650   0.83967   0.00000  Uiso   1.00
H120   H     0.23600   0.28854   0.54213   0.00000  Uiso   1.00
H121   H     0.75745   0.47811   0.67207   0.00000  Uiso   1.00
H122   H     0.57166   0.31906   0.98533   0.00000  Uiso   1.00
H123   H     0.56354   0.59618   0.85542   0.00000  Uiso   1.00
H124   H     0.42929   0.56831   0.76843   0.00000  Uiso   1.00
H125   H     0.67659   0.65822   0.83005   0.00000  Uiso   1.00
H126   H     0.58848   0.58279   0.97860   0.00000  Uiso   1.00
H127   H     0.27462   0.50468   0.65489   0.00000  Uiso   1.00
H128   H     0.79608   0.69424   0.78483   0.00000  Uiso   1.00
H129   H     0.61028   0.53519   0.09809   0.00000  Uiso   1.00
O130   O     0.16619   0.37373   0.53890   0.00000  Uiso   1.00
O131   O     0.85033   0.62244   0.70939   0.00000  Uiso   1.00
O132   O     0.60657   0.41376   0.12037   0.00000  Uiso   1.00
N133   N     0.26351   0.34323   0.58061   0.00000  Uiso   1.00
N134   N     0.75103   0.52046   0.70209   0.00000  Uiso   1.00
N135   N     0.57735   0.37177   0.99497   0.00000  Uiso   1.00
N136   N     0.28429   0.45953   0.64129   0.00000  Uiso   1.00
N137   N     0.77181   0.63676   0.76277   0.00000  Uiso   1.00
N138   N     0.59813   0.48807   0.05564   0.00000  Uiso   1.00
C139   C     0.34093   0.90776   0.76081   0.00000  Uiso   1.00
C140   C     0.32273   0.91929   0.69000   0.00000  Uiso   1.00
C141   C     0.26834   0.86355   0.61902   0.00000  Uiso   1.00
C142   C     0.26034   0.88552   0.56155   0.00000  Uiso   1.00
C143   C     0.22524   0.89201   0.44961   0.00000  Uiso   1.00
C144   C     0.33116   0.96674   0.81353   0.00000  Uiso   1.00
C145   C     0.28387   0.95090   0.84641   0.00000  Uiso   1.00
C146   C     0.28297   0.01282   0.89294   0.00000  Uiso   1.00
C147   C     0.26101   0.09299   0.97281   0.00000  Uiso   1.00
C148   C     0.42543   0.93193   0.79547   0.00000  Uiso   1.00
C149   C     0.45740   0.88682   0.81319   0.00000  Uiso   1.00
C150   C     0.53588   0.91944   0.84454   0.00000  Uiso   1.00
C151   C     0.66027   0.94556   0.89638   0.00000  Uiso   1.00
C152   C     0.42344   0.04590   0.78498   0.00000  Uiso   1.00
C153   C     0.36755   0.99432   0.70313   0.00000  Uiso   1.00
C154   C     0.35963   0.01638   0.64576   0.00000  Uiso   1.00
C155   C     0.30524   0.96069   0.57470   0.00000  Uiso   1.00
C156   C     0.37598   0.04177   0.82666   0.00000  Uiso   1.00
C157   C     0.37516   0.10373   0.87315   0.00000  Uiso   1.00
C158   C     0.32787   0.08799   0.90609   0.00000  Uiso   1.00
C159   C     0.47025   0.00696   0.80860   0.00000  Uiso   1.00
C160   C     0.54869   0.03966   0.83993   0.00000  Uiso   1.00
C161   C     0.58077   0.99461   0.85769   0.00000  Uiso   1.00
H162   H     0.30603   0.84935   0.75059   0.00000  Uiso   1.00
H163   H     0.23366   0.80549   0.60888   0.00000  Uiso   1.00
H164   H     0.24920   0.89283   0.83624   0.00000  Uiso   1.00
H165   H     0.42270   0.82876   0.80302   0.00000  Uiso   1.00
H166   H     0.17318   0.78996   0.45756   0.00000  Uiso   1.00
H167   H     0.20594   0.97412   0.93698   0.00000  Uiso   1.00
H168   H     0.57181   0.83902   0.86694   0.00000  Uiso   1.00
H169   H     0.45834   0.10432   0.79521   0.00000  Uiso   1.00
H170   H     0.39432   0.07445   0.65594   0.00000  Uiso   1.00
H171   H     0.40985   0.16179   0.88330   0.00000  Uiso   1.00
H172   H     0.58336   0.09772   0.85008   0.00000  Uiso   1.00
H173   H     0.30357   0.00826   0.49575   0.00000  Uiso   1.00
H174   H     0.33634   0.19242   0.97518   0.00000  Uiso   1.00
H175   H     0.70220   0.05732   0.90514   0.00000  Uiso   1.00
O176   O     0.19350   0.87487   0.38424   0.00000  Uiso   1.00
O177   O     0.23650   0.11647   0.01324   0.00000  Uiso   1.00
O178   O     0.71650   0.93923   0.92134   0.00000  Uiso   1.00
N179   N     0.21266   0.84543   0.48566   0.00000  Uiso   1.00
N180   N     0.24328   0.01761   0.93388   0.00000  Uiso   1.00
N181   N     0.58534   0.89131   0.86842   0.00000  Uiso   1.00
N182   N     0.28282   0.96290   0.50621   0.00000  Uiso   1.00
N183   N     0.31345   0.13507   0.95444   0.00000  Uiso   1.00
N184   N     0.65551   0.00878   0.88897   0.00000  Uiso   1.00
C185   C     0.97823   0.99172   0.09742   0.00000  Uiso   1.00
C186   C     0.98148   0.91677   0.07122   0.00000  Uiso   1.00
C187   C     0.93121   0.85348   0.00332   0.00000  Uiso   1.00
C188   C     0.94389   0.79044   0.98985   0.00000  Uiso   1.00
C189   C     0.93972   0.67404   0.94115   0.00000  Uiso   1.00
C190   C     0.05497   0.05460   0.11652   0.00000  Uiso   1.00
C191   C     0.06648   0.10719   0.08673   0.00000  Uiso   1.00
C192   C     0.14102   0.16019   0.11141   0.00000  Uiso   1.00
C193   C     0.25093   0.25780   0.13309   0.00000  Uiso   1.00
C194   C     0.97494   0.00420   0.17087   0.00000  Uiso   1.00
C195   C     0.91917   0.01444   0.18677   0.00000  Uiso   1.00
C196   C     0.92635   0.02501   0.25722   0.00000  Uiso   1.00
C197   C     0.91201   0.04437   0.36327   0.00000  Uiso   1.00
C198   C     0.09014   0.99233   0.19424   0.00000  Uiso   1.00
C199   C     0.04227   0.91711   0.12381   0.00000  Uiso   1.00
C200   C     0.05503   0.85415   0.11044   0.00000  Uiso   1.00
C201   C     0.00479   0.79077   0.04254   0.00000  Uiso   1.00
C202   C     0.11575   0.05494   0.16911   0.00000  Uiso   1.00
C203   C     0.19030   0.10787   0.19385   0.00000  Uiso   1.00
C204   C     0.20192   0.16052   0.16409   0.00000  Uiso   1.00
C205   C     0.03573   0.00453   0.22346   0.00000  Uiso   1.00
C206   C     0.04299   0.01511   0.29389   0.00000  Uiso   1.00
C207   C     0.98725   0.02535   0.30990   0.00000  Uiso   1.00
H208   H     0.93091   0.99146   0.05648   0.00000  Uiso   1.00
H209   H     0.88418   0.85324   0.96263   0.00000  Uiso   1.00
H210   H     0.01942   0.10693   0.04604   0.00000  Uiso   1.00
H211   H     0.87214   0.01418   0.14606   0.00000  Uiso   1.00
H212   H     0.85919   0.70016   0.88177   0.00000  Uiso   1.00
H213   H     0.14437   0.23508   0.05765   0.00000  Uiso   1.00
H214   H     0.83380   0.03950   0.26857   0.00000  Uiso   1.00
H215   H     0.13747   0.99259   0.23519   0.00000  Uiso   1.00
H216   H     0.10208   0.85442   0.15115   0.00000  Uiso   1.00
H217   H     0.23733   0.10811   0.23455   0.00000  Uiso   1.00
H218   H     0.09004   0.01536   0.33457   0.00000  Uiso   1.00
H219   H     0.03605   0.70112   0.03478   0.00000  Uiso   1.00
H220   H     0.32123   0.23604   0.21065   0.00000  Uiso   1.00
H221   H     0.01065   0.04046   0.42158   0.00000  Uiso   1.00
O222   O     0.92063   0.60974   0.89976   0.00000  Uiso   1.00
O223   O     0.29476   0.31154   0.13051   0.00000  Uiso   1.00
O224   O     0.88730   0.05494   0.40723   0.00000  Uiso   1.00
N225   N     0.90566   0.71934   0.92932   0.00000  Uiso   1.00
N226   N     0.17229   0.21945   0.09374   0.00000  Uiso   1.00
N227   N     0.88194   0.03662   0.29095   0.00000  Uiso   1.00
N228   N     0.00083   0.71986   0.01165   0.00000  Uiso   1.00
N229   N     0.26745   0.21997   0.17607   0.00000  Uiso   1.00
N230   N     0.97710   0.03714   0.37328   0.00000  Uiso   1.00
C231   C     0.01217   0.25609   0.72016   0.00000  Uiso   1.00
C232   C     0.96014   0.26212   0.75518   0.00000  Uiso   1.00
C233   C     0.88911   0.20413   0.73385   0.00000  Uiso   1.00
C234   C     0.85043   0.22102   0.77286   0.00000  Uiso   1.00
C235   C     0.76490   0.21937   0.81840   0.00000  Uiso   1.00
C236   C     0.08695   0.27720   0.78335   0.00000  Uiso   1.00
C237   C     0.12254   0.23189   0.78570   0.00000  Uiso   1.00
C238   C     0.19061   0.26150   0.84842   0.00000  Uiso   1.00
C239   C     0.30198   0.28329   0.93768   0.00000  Uiso   1.00
C240   C     0.02891   0.32017   0.69543   0.00000  Uiso   1.00
C241   C     0.01572   0.31100   0.62385   0.00000  Uiso   1.00
C242   C     0.03494   0.37678   0.61256   0.00000  Uiso   1.00
C243   C     0.05619   0.46528   0.56530   0.00000  Uiso   1.00
C244   C     0.06978   0.38922   0.82738   0.00000  Uiso   1.00
C245   C     0.99144   0.33443   0.81342   0.00000  Uiso   1.00
C246   C     0.95285   0.35142   0.85247   0.00000  Uiso   1.00
C247   C     0.88178   0.29346   0.83119   0.00000  Uiso   1.00
C248   C     0.11824   0.34951   0.84159   0.00000  Uiso   1.00
C249   C     0.18628   0.37919   0.90432   0.00000  Uiso   1.00
C250   C     0.22196   0.33394   0.90677   0.00000  Uiso   1.00
C251   C     0.06020   0.39248   0.75367   0.00000  Uiso   1.00
C252   C     0.07945   0.45829   0.74248   0.00000  Uiso   1.00
C253   C     0.06629   0.44922   0.67090   0.00000  Uiso   1.00
H254   H     0.98781   0.19979   0.67483   0.00000  Uiso   1.00
H255   H     0.86492   0.14817   0.68878   0.00000  Uiso   1.00
H256   H     0.09831   0.17594   0.74062   0.00000  Uiso   1.00
H257   H     0.99150   0.25503   0.57880   0.00000  Uiso   1.00
H258   H     0.74248   0.12282   0.72995   0.00000  Uiso   1.00
H259   H     0.23461   0.18139   0.83925   0.00000  Uiso   1.00
H260   H     0.00939   0.34816   0.49802   0.00000  Uiso   1.00
H261   H     0.09415   0.44551   0.87272   0.00000  Uiso   1.00
H262   H     0.97708   0.40738   0.89753   0.00000  Uiso   1.00
H263   H     0.21048   0.43515   0.94938   0.00000  Uiso   1.00
H264   H     0.10367   0.51424   0.78756   0.00000  Uiso   1.00
H265   H     0.83352   0.33321   0.89938   0.00000  Uiso   1.00
H266   H     0.32566   0.39177   0.00868   0.00000  Uiso   1.00
H267   H     0.10043   0.55854   0.66746   0.00000  Uiso   1.00
O268   O     0.70908   0.19849   0.82744   0.00000  Uiso   1.00
O269   O     0.35475   0.27533   0.97082   0.00000  Uiso   1.00
O270   O     0.05925   0.49413   0.52314   0.00000  Uiso   1.00
N271   N     0.77996   0.17758   0.76641   0.00000  Uiso   1.00
N272   N     0.24008   0.23232   0.86861   0.00000  Uiso   1.00
N273   N     0.02952   0.38825   0.54959   0.00000  Uiso   1.00
N274   N     0.82895   0.29078   0.85758   0.00000  Uiso   1.00
N275   N     0.28906   0.34553   0.95978   0.00000  Uiso   1.00
N276   N     0.07851   0.50145   0.64076   0.00000  Uiso   1.00
C277   C     0.48561   0.68631   0.70546   0.00000  Uiso   1.00
C278   C     0.51256   0.75119   0.68338   0.00000  Uiso   1.00
C279   C     0.58359   0.81521   0.72222   0.00000  Uiso   1.00
C280   C     0.59721   0.86805   0.69286   0.00000  Uiso   1.00
C281   C     0.64750   0.97043   0.66857   0.00000  Uiso   1.00
C282   C     0.46051   0.61301   0.63922   0.00000  Uiso   1.00
C283   C     0.48778   0.56084   0.64094   0.00000  Uiso   1.00
C284   C     0.45758   0.49736   0.57441   0.00000  Uiso   1.00
C285   C     0.42703   0.38517   0.48157   0.00000  Uiso   1.00
C286   C     0.41377   0.68101   0.71070   0.00000  Uiso   1.00
C287   C     0.40173   0.68601   0.77253   0.00000  Uiso   1.00
C288   C     0.33217   0.67975   0.76617   0.00000  Uiso   1.00
C289   C     0.22906   0.67316   0.78433   0.00000  Uiso   1.00
C290   C     0.38347   0.66629   0.58423   0.00000  Uiso   1.00
C291   C     0.45708   0.74031   0.61753   0.00000  Uiso   1.00
C292   C     0.47059   0.79307   0.58810   0.00000  Uiso   1.00
C293   C     0.54164   0.85716   0.62690   0.00000  Uiso   1.00
C294   C     0.40503   0.60213   0.57337   0.00000  Uiso   1.00
C295   C     0.37478   0.53870   0.50682   0.00000  Uiso   1.00
C296   C     0.40201   0.48646   0.50844   0.00000  Uiso   1.00
C297   C     0.35829   0.67014   0.64486   0.00000  Uiso   1.00
C298   C     0.28873   0.66387   0.63840   0.00000  Uiso   1.00
C299   C     0.27659   0.66886   0.70021   0.00000  Uiso   1.00
H300   H     0.52880   0.69477   0.75672   0.00000  Uiso   1.00
H301   H     0.62651   0.82360   0.77318   0.00000  Uiso   1.00
H302   H     0.53071   0.56927   0.69191   0.00000  Uiso   1.00
H303   H     0.44468   0.69442   0.82347   0.00000  Uiso   1.00
H304   H     0.71039   0.96163   0.76237   0.00000  Uiso   1.00
H305   H     0.50837   0.42535   0.59102   0.00000  Uiso   1.00
H306   H     0.32695   0.68924   0.86845   0.00000  Uiso   1.00
H307   H     0.34028   0.65783   0.53296   0.00000  Uiso   1.00
H308   H     0.42765   0.78464   0.53714   0.00000  Uiso   1.00
H309   H     0.33185   0.53031   0.45587   0.00000  Uiso   1.00
H310   H     0.24581   0.65546   0.58744   0.00000  Uiso   1.00
H311   H     0.54899   0.93001   0.57079   0.00000  Uiso   1.00
H312   H     0.34696   0.39372   0.39944   0.00000  Uiso   1.00
H313   H     0.16555   0.65762   0.67687   0.00000  Uiso   1.00
O314   O     0.69057   0.02990   0.67335   0.00000  Uiso   1.00
O315   O     0.42552   0.32630   0.44855   0.00000  Uiso   1.00
O316   O     0.18751   0.67254   0.81254   0.00000  Uiso   1.00
N317   N     0.66041   0.93679   0.71671   0.00000  Uiso   1.00
N318   N     0.47154   0.43540   0.55651   0.00000  Uiso   1.00
N319   N     0.30192   0.68211   0.81588   0.00000  Uiso   1.00
N320   N     0.57356   0.91978   0.61363   0.00000  Uiso   1.00
N321   N     0.38469   0.41839   0.45343   0.00000  Uiso   1.00
N322   N     0.21507   0.66509   0.71279   0.00000  Uiso   1.00
C323   C     0.74240   0.28191   0.57096   0.00000  Uiso   1.00
C324   C     0.73927   0.30936   0.64443   0.00000  Uiso   1.00
C325   C     0.78974   0.37987   0.70514   0.00000  Uiso   1.00
C326   C     0.77715   0.39410   0.76719   0.00000  Uiso   1.00
C327   C     0.78154   0.44501   0.88107   0.00000  Uiso   1.00
C328   C     0.66572   0.26085   0.51074   0.00000  Uiso   1.00
C329   C     0.65436   0.29056   0.45903   0.00000  Uiso   1.00
C330   C     0.57986   0.26394   0.40853   0.00000  Uiso   1.00
C331   C     0.47007   0.23950   0.31482   0.00000  Uiso   1.00
C332   C     0.74536   0.20692   0.55924   0.00000  Uiso   1.00
C333   C     0.80094   0.19127   0.54830   0.00000  Uiso   1.00
C334   C     0.79346   0.11923   0.53862   0.00000  Uiso   1.00
C335   C     0.80731   0.01104   0.52021   0.00000  Uiso   1.00
C336   C     0.63028   0.18180   0.57320   0.00000  Uiso   1.00
C337   C     0.67837   0.25498   0.64564   0.00000  Uiso   1.00
C338   C     0.66570   0.26911   0.70762   0.00000  Uiso   1.00
C339   C     0.71615   0.33962   0.76841   0.00000  Uiso   1.00
C340   C     0.60483   0.20648   0.51195   0.00000  Uiso   1.00
C341   C     0.53032   0.17980   0.46151   0.00000  Uiso   1.00
C342   C     0.51885   0.20946   0.40975   0.00000  Uiso   1.00
C343   C     0.68446   0.15254   0.56046   0.00000  Uiso   1.00
C344   C     0.67689   0.08050   0.55078   0.00000  Uiso   1.00
C345   C     0.73245   0.06475   0.53983   0.00000  Uiso   1.00
H346   H     0.78980   0.32425   0.57001   0.00000  Uiso   1.00
H347   H     0.83686   0.42194   0.70417   0.00000  Uiso   1.00
H348   H     0.70150   0.33264   0.45810   0.00000  Uiso   1.00
H349   H     0.84805   0.23336   0.54736   0.00000  Uiso   1.00
H350   H     0.86216   0.50628   0.85345   0.00000  Uiso   1.00
H351   H     0.57675   0.31797   0.33458   0.00000  Uiso   1.00
H352   H     0.88578   0.10862   0.52279   0.00000  Uiso   1.00
H353   H     0.58286   0.13946   0.57414   0.00000  Uiso   1.00
H354   H     0.61857   0.22701   0.70854   0.00000  Uiso   1.00
H355   H     0.48321   0.13771   0.46247   0.00000  Uiso   1.00
H356   H     0.62976   0.03844   0.55173   0.00000  Uiso   1.00
H357   H     0.68498   0.34807   0.85699   0.00000  Uiso   1.00
H358   H     0.39957   0.15976   0.33812   0.00000  Uiso   1.00
H359   H     0.70861   0.95041   0.52634   0.00000  Uiso   1.00
O360   O     0.80078   0.48812   0.94355   0.00000  Uiso   1.00
O361   O     0.42633   0.24104   0.26280   0.00000  Uiso   1.00
O362   O     0.83178   0.96639   0.50974   0.00000  Uiso   1.00
N363   N     0.81557   0.45702   0.83584   0.00000  Uiso   1.00
N364   N     0.54873   0.28097   0.35074   0.00000  Uiso   1.00
N365   N     0.83764   0.08524   0.52668   0.00000  Uiso   1.00
N366   N     0.72023   0.37189   0.83775   0.00000  Uiso   1.00
N367   N     0.45339   0.19584   0.35265   0.00000  Uiso   1.00
N368   N     0.74230   0.00011   0.52859   0.00000  Uiso   1.00
C369   C     0.74359   0.68980   0.41416   0.00000  Uiso   1.00
C370   C     0.80718   0.66909   0.43834   0.00000  Uiso   1.00
C371   C     0.86540   0.70202   0.50989   0.00000  Uiso   1.00
C372   C     0.91803   0.67514   0.52066   0.00000  Uiso   1.00
C373   C     0.01758   0.65173   0.56715   0.00000  Uiso   1.00
C374   C     0.66972   0.61545   0.37844   0.00000  Uiso   1.00
C375   C     0.61237   0.60329   0.39962   0.00000  Uiso   1.00
C376   C     0.54929   0.53125   0.35995   0.00000  Uiso   1.00
C377   C     0.43541   0.42459   0.31341   0.00000  Uiso   1.00
C378   C     0.74696   0.71200   0.35160   0.00000  Uiso   1.00
C379   C     0.75454   0.78102   0.35020   0.00000  Uiso   1.00
C380   C     0.75648   0.79026   0.28791   0.00000  Uiso   1.00
C381   C     0.76253   0.83351   0.19969   0.00000  Uiso   1.00
C382   C     0.73352   0.58348   0.30603   0.00000  Uiso   1.00
C383   C     0.80170   0.61134   0.37961   0.00000  Uiso   1.00
C384   C     0.85426   0.58439   0.39027   0.00000  Uiso   1.00
C385   C     0.91256   0.61729   0.46182   0.00000  Uiso   1.00
C386   C     0.66425   0.55770   0.31971   0.00000  Uiso   1.00
C387   C     0.60123   0.48566   0.28000   0.00000  Uiso   1.00
C388   C     0.54381   0.47340   0.30111   0.00000  Uiso   1.00
C389   C     0.74150   0.65425   0.29287   0.00000  Uiso   1.00
C390   C     0.74341   0.66338   0.23057   0.00000  Uiso   1.00
C391   C     0.75099   0.73240   0.22908   0.00000  Uiso   1.00
H392   H     0.74784   0.73476   0.45988   0.00000  Uiso   1.00
H393   H     0.86961   0.74671   0.55533   0.00000  Uiso   1.00
H394   H     0.61662   0.64800   0.44507   0.00000  Uiso   1.00
H395   H     0.75877   0.82569   0.39565   0.00000  Uiso   1.00
H396   H     0.00219   0.73447   0.63526   0.00000  Uiso   1.00
H397   H     0.46873   0.52634   0.40275   0.00000  Uiso   1.00
H398   H     0.76849   0.90105   0.29855   0.00000  Uiso   1.00
H399   H     0.72926   0.53852   0.26031   0.00000  Uiso   1.00
H400   H     0.85001   0.53970   0.34481   0.00000  Uiso   1.00
H401   H     0.59702   0.44099   0.23455   0.00000  Uiso   1.00
H402   H     0.73917   0.61868   0.18514   0.00000  Uiso   1.00
H403   H     0.98628   0.56646   0.46440   0.00000  Uiso   1.00
H404   H     0.45281   0.35832   0.23188   0.00000  Uiso   1.00
H405   H     0.75258   0.73303   0.12768   0.00000  Uiso   1.00
O406   O     0.07399   0.65477   0.60902   0.00000  Uiso   1.00
O407   O     0.37411   0.38171   0.30397   0.00000  Uiso   1.00
O408   O     0.76739   0.87332   0.16726   0.00000  Uiso   1.00
N409   N     0.98188   0.69478   0.58345   0.00000  Uiso   1.00
N410   N     0.48313   0.50018   0.36607   0.00000  Uiso   1.00
N411   N     0.76336   0.85049   0.26864   0.00000  Uiso   1.00
N412   N     0.97332   0.60437   0.49151   0.00000  Uiso   1.00
N413   N     0.47457   0.40977   0.27413   0.00000  Uiso   1.00
N414   N     0.75480   0.76009   0.17670   0.00000  Uiso   1.00
C415   C     0.94670   0.27097   0.03381   0.00000  Uiso   1.00
C416   C     0.99394   0.27535   0.10819   0.00000  Uiso   1.00
C417   C     0.06162   0.33800   0.16455   0.00000  Uiso   1.00
C418   C     0.09616   0.33062   0.22833   0.00000  Uiso   1.00
C419   C     0.17441   0.34769   0.34274   0.00000  Uiso   1.00
C420   C     0.93791   0.20173   0.97426   0.00000  Uiso   1.00
C421   C     0.95846   0.20250   0.91801   0.00000  Uiso   1.00
C422   C     0.94581   0.13314   0.86903   0.00000  Uiso   1.00
C423   C     0.93701   0.03592   0.77548   0.00000  Uiso   1.00
C424   C     0.86782   0.25050   0.02790   0.00000  Uiso   1.00
C425   C     0.82943   0.29226   0.01673   0.00000  Uiso   1.00
C426   C     0.75777   0.26396   0.01290   0.00000  Uiso   1.00
C427   C     0.64015   0.24245   0.00263   0.00000  Uiso   1.00
C428   C     0.88769   0.14645   0.04685   0.00000  Uiso   1.00
C429   C     0.96189   0.20771   0.11527   0.00000  Uiso   1.00
C430   C     0.99633   0.20023   0.17898   0.00000  Uiso   1.00
C431   C     0.06405   0.26287   0.23543   0.00000  Uiso   1.00
C432   C     0.90585   0.13410   0.98134   0.00000  Uiso   1.00
C433   C     0.89316   0.06473   0.93243   0.00000  Uiso   1.00
C434   C     0.91370   0.06539   0.87613   0.00000  Uiso   1.00
C435   C     0.83577   0.18287   0.03498   0.00000  Uiso   1.00
C436   C     0.76414   0.15449   0.03116   0.00000  Uiso   1.00
C437   C     0.72566   0.19620   0.01999   0.00000  Uiso   1.00
H438   H     0.97166   0.32363   0.02829   0.00000  Uiso   1.00
H439   H     0.08642   0.39033   0.15905   0.00000  Uiso   1.00
H440   H     0.98326   0.25484   0.91254   0.00000  Uiso   1.00
H441   H     0.85426   0.34459   0.01125   0.00000  Uiso   1.00
H442   H     0.19952   0.43445   0.30713   0.00000  Uiso   1.00
H443   H     0.98198   0.14876   0.78733   0.00000  Uiso   1.00
H444   H     0.70996   0.33802   0.99549   0.00000  Uiso   1.00
H445   H     0.86273   0.09379   0.05236   0.00000  Uiso   1.00
H446   H     0.97151   0.14788   0.18445   0.00000  Uiso   1.00
H447   H     0.86835   0.01240   0.93793   0.00000  Uiso   1.00
H448   H     0.73936   0.10215   0.03664   0.00000  Uiso   1.00
H449   H     0.10626   0.23767   0.32775   0.00000  Uiso   1.00
H450   H     0.88872   0.95199   0.80794   0.00000  Uiso   1.00
H451   H     0.61670   0.14124   0.01610   0.00000  Uiso   1.00
O452   O     0.22643   0.37578   0.40389   0.00000  Uiso   1.00
O453   O     0.94102   0.00098   0.72192   0.00000  Uiso   1.00
O454   O     0.58414   0.24928   0.99502   0.00000  Uiso   1.00
N455   N     0.16264   0.38072   0.29386   0.00000  Uiso   1.00
N456   N     0.95926   0.11362   0.80789   0.00000  Uiso   1.00
N457   N     0.70494   0.29055   0.00248   0.00000  Uiso   1.00
N458   N     0.11246   0.27483   0.30496   0.00000  Uiso   1.00
N459   N     0.90908   0.00774   0.81898   0.00000  Uiso   1.00
N460   N     0.65476   0.18467   0.01357   0.00000  Uiso   1.00
C461   C     0.28545   0.17457   0.68555   0.00000  Uiso   1.00
C462   C     0.28147   0.24797   0.71853   0.00000  Uiso   1.00
C463   C     0.33670   0.31177   0.78450   0.00000  Uiso   1.00
C464   C     0.32237   0.37316   0.80511   0.00000  Uiso   1.00
C465   C     0.32639   0.48748   0.86302   0.00000  Uiso   1.00
C466   C     0.21482   0.10977   0.67525   0.00000  Uiso   1.00
C467   C     0.21402   0.05737   0.70481   0.00000  Uiso   1.00
C468   C     0.14357   0.00243   0.68898   0.00000  Uiso   1.00
C469   C     0.04412   0.90217   0.67965   0.00000  Uiso   1.00
C470   C     0.27530   0.16293   0.60756   0.00000  Uiso   1.00
C471   C     0.32533   0.15521   0.58019   0.00000  Uiso   1.00
C472   C     0.30579   0.14501   0.50736   0.00000  Uiso   1.00
C473   C     0.30024   0.12729   0.39293   0.00000  Uiso   1.00
C474   C     0.16177   0.17015   0.60486   0.00000  Uiso   1.00
C475   C     0.21429   0.24556   0.67471   0.00000  Uiso   1.00
C476   C     0.19987   0.30688   0.69523   0.00000  Uiso   1.00
C477   C     0.25507   0.37076   0.76121   0.00000  Uiso   1.00
C478   C     0.14765   0.10737   0.63143   0.00000  Uiso   1.00
C479   C     0.07719   0.05249   0.61554   0.00000  Uiso   1.00
C480   C     0.07627   0.00003   0.64507   0.00000  Uiso   1.00
C481   C     0.20812   0.16053   0.56373   0.00000  Uiso   1.00
C482   C     0.18850   0.15033   0.49093   0.00000  Uiso   1.00
C483   C     0.23850   0.14260   0.46346   0.00000  Uiso   1.00
H484   H     0.33774   0.17643   0.71966   0.00000  Uiso   1.00
H485   H     0.38868   0.31360   0.81840   0.00000  Uiso   1.00
H486   H     0.26601   0.05924   0.73872   0.00000  Uiso   1.00
H487   H     0.37731   0.15707   0.61413   0.00000  Uiso   1.00
H488   H     0.41551   0.46460   0.90855   0.00000  Uiso   1.00
H489   H     0.15686   0.92826   0.74052   0.00000  Uiso   1.00
H490   H     0.39155   0.13455   0.47779   0.00000  Uiso   1.00
H491   H     0.10947   0.16828   0.57073   0.00000  Uiso   1.00
H492   H     0.14788   0.30501   0.66130   0.00000  Uiso   1.00
H493   H     0.02521   0.05065   0.58162   0.00000  Uiso   1.00
H494   H     0.13651   0.14848   0.45703   0.00000  Uiso   1.00
H495   H     0.22007   0.45763   0.78105   0.00000  Uiso   1.00
H496   H     0.96142   0.92129   0.61301   0.00000  Uiso   1.00
H497   H     0.19611   0.12758   0.35028   0.00000  Uiso   1.00
O498   O     0.34717   0.55120   0.90708   0.00000  Uiso   1.00
O499   O     0.00782   0.84753   0.68661   0.00000  Uiso   1.00
O500   O     0.31574   0.11818   0.34192   0.00000  Uiso   1.00
N501   N     0.36425   0.44421   0.86611   0.00000  Uiso   1.00
N502   N     0.12242   0.94277   0.70902   0.00000  Uiso   1.00
N503   N     0.34183   0.13561   0.46338   0.00000  Uiso   1.00
N504   N     0.25909   0.44046   0.79750   0.00000  Uiso   1.00
N505   N     0.01726   0.93901   0.64041   0.00000  Uiso   1.00
N506   N     0.23667   0.13186   0.39477   0.00000  Uiso   1.00
C507   C     0.24455   0.95292   0.08489   0.00000  Uiso   1.00
C508   C     0.30565   0.95628   0.06021   0.00000  Uiso   1.00
C509   C     0.37276   0.02134   0.08451   0.00000  Uiso   1.00
C510   C     0.42124   0.01251   0.05527   0.00000  Uiso   1.00
C511   C     0.51884   0.02859   0.02477   0.00000  Uiso   1.00
C512   C     0.17123   0.91942   0.01409   0.00000  Uiso   1.00
C513   C     0.12533   0.95350   0.99963   0.00000  Uiso   1.00
C514   C     0.06065   0.91363   0.93157   0.00000  Uiso   1.00
C515   C     0.94953   0.87246   0.82950   0.00000  Uiso   1.00
C516   C     0.23398   0.89301   0.11518   0.00000  Uiso   1.00
C517   C     0.24082   0.90487   0.18570   0.00000  Uiso   1.00
C518   C     0.22895   0.84276   0.20274   0.00000  Uiso   1.00
C519   C     0.21526   0.76059   0.25762   0.00000  Uiso   1.00
C520   C     0.21130   0.82152   0.98975   0.00000  Uiso   1.00
C521   C     0.28758   0.88491   0.00853   0.00000  Uiso   1.00
C522   C     0.33597   0.87597   0.97924   0.00000  Uiso   1.00
C523   C     0.40315   0.94101   0.00350   0.00000  Uiso   1.00
C524   C     0.15317   0.84806   0.96242   0.00000  Uiso   1.00
C525   C     0.08854   0.80812   0.89436   0.00000  Uiso   1.00
C526   C     0.04255   0.84213   0.87980   0.00000  Uiso   1.00
C527   C     0.21592   0.82164   0.06350   0.00000  Uiso   1.00
C528   C     0.20403   0.75950   0.08043   0.00000  Uiso   1.00
C529   C     0.21085   0.77126   0.15097   0.00000  Uiso   1.00
H530   H     0.25861   0.00848   0.12512   0.00000  Uiso   1.00
H531   H     0.38672   0.07656   0.12450   0.00000  Uiso   1.00
H532   H     0.13932   0.00872   0.03963   0.00000  Uiso   1.00
H533   H     0.25480   0.96011   0.22567   0.00000  Uiso   1.00
H534   H     0.52077   0.12058   0.10099   0.00000  Uiso   1.00
H535   H     0.99910   0.97752   0.92206   0.00000  Uiso   1.00
H536   H     0.24261   0.87500   0.31437   0.00000  Uiso   1.00
H537   H     0.19723   0.76596   0.94951   0.00000  Uiso   1.00
H538   H     0.32198   0.82073   0.93925   0.00000  Uiso   1.00
H539   H     0.07457   0.75289   0.85439   0.00000  Uiso   1.00
H540   H     0.19005   0.70428   0.04043   0.00000  Uiso   1.00
H541   H     0.46822   0.91294   0.95064   0.00000  Uiso   1.00
H542   H     0.94655   0.76988   0.77171   0.00000  Uiso   1.00
H543   H     0.19006   0.66736   0.16401   0.00000  Uiso   1.00
O544   O     0.57766   0.05717   0.02221   0.00000  Uiso   1.00
O545   O     0.89324   0.86948   0.78748   0.00000  Uiso   1.00
O546   O     0.21271   0.73498   0.30216   0.00000  Uiso   1.00
N547   N     0.49129   0.06419   0.06702   0.00000  Uiso   1.00
N548   N     0.00357   0.93045   0.89973   0.00000  Uiso   1.00
N549   N     0.23120   0.83460   0.26650   0.00000  Uiso   1.00
N550   N     0.46302   0.95246   0.98612   0.00000  Uiso   1.00
N551   N     0.97529   0.81872   0.81883   0.00000  Uiso   1.00
N552   N     0.20293   0.72287   0.18559   0.00000  Uiso   1.00
