data_job_03863
_audit_creation_date              2018-12-19
_audit_creation_method            'Materials Studio'
_symmetry_space_group_name_H-M    'P1'
_symmetry_Int_Tables_number       1
_symmetry_cell_setting            triclinic
loop_
_symmetry_equiv_pos_as_xyz
  x,y,z
_cell_length_a                    11.6399
_cell_length_b                    15.7471
_cell_length_c                    32.8166
_cell_angle_alpha                 90.0000
_cell_angle_beta                  90.0000
_cell_angle_gamma                 90.0000
loop_
_atom_site_label
_atom_site_type_symbol
_atom_site_fract_x
_atom_site_fract_y
_atom_site_fract_z
_atom_site_U_iso_or_equiv
_atom_site_adp_type
_atom_site_occupancy
C1     C     0.45974   0.29809   0.62560   0.00000  Uiso   1.00
C2     C     0.36524   0.33732   0.59949   0.00000  Uiso   1.00
C3     C     0.31607   0.30062   0.56523   0.00000  Uiso   1.00
C4     C     0.23086   0.34671   0.54555   0.00000  Uiso   1.00
C5     C     0.08945   0.39549   0.50285   0.00000  Uiso   1.00
C6     C     0.55757   0.36249   0.62617   0.00000  Uiso   1.00
C7     C     0.67010   0.34695   0.61435   0.00000  Uiso   1.00
C8     C     0.74678   0.41423   0.61714   0.00000  Uiso   1.00
C9     C     0.90398   0.50207   0.61590   0.00000  Uiso   1.00
C10    C     0.41263   0.29528   0.66893   0.00000  Uiso   1.00
C11    C     0.40333   0.22324   0.69307   0.00000  Uiso   1.00
C12    C     0.35801   0.23395   0.73187   0.00000  Uiso   1.00
C13    C     0.29017   0.21744   0.79702   0.00000  Uiso   1.00
C14    C     0.39584   0.44521   0.65159   0.00000  Uiso   1.00
C15    C     0.33054   0.41723   0.61361   0.00000  Uiso   1.00
C16    C     0.24537   0.46339   0.59398   0.00000  Uiso   1.00
C17    C     0.19608   0.42677   0.55969   0.00000  Uiso   1.00
C18    C     0.52287   0.44240   0.64029   0.00000  Uiso   1.00
C19    C     0.59940   0.50972   0.64310   0.00000  Uiso   1.00
C20    C     0.71202   0.49429   0.63129   0.00000  Uiso   1.00
C21    C     0.37792   0.37519   0.68305   0.00000  Uiso   1.00
C22    C     0.33262   0.38601   0.72182   0.00000  Uiso   1.00
C23    C     0.32324   0.31400   0.74601   0.00000  Uiso   1.00
H24    H     0.48677   0.23588   0.61461   0.00000  Uiso   1.00
H25    H     0.34296   0.23878   0.55431   0.00000  Uiso   1.00
H26    H     0.69693   0.28510   0.60343   0.00000  Uiso   1.00
H27    H     0.43019   0.16142   0.68213   0.00000  Uiso   1.00
H28    H     0.16825   0.27725   0.49367   0.00000  Uiso   1.00
H29    H     0.91463   0.37491   0.59726   0.00000  Uiso   1.00
H30    H     0.35216   0.11410   0.76323   0.00000  Uiso   1.00
H31    H     0.36883   0.50742   0.66258   0.00000  Uiso   1.00
H32    H     0.21854   0.52523   0.60491   0.00000  Uiso   1.00
H33    H     0.57252   0.57155   0.65403   0.00000  Uiso   1.00
H34    H     0.30577   0.44786   0.73274   0.00000  Uiso   1.00
H35    H     0.06726   0.50974   0.53474   0.00000  Uiso   1.00
H36    H     0.81365   0.60740   0.63834   0.00000  Uiso   1.00
H37    H     0.25117   0.34659   0.80430   0.00000  Uiso   1.00
O38    O     0.02105   0.40032   0.47540   0.00000  Uiso   1.00
O39    O     0.00027   0.52844   0.61132   0.00000  Uiso   1.00
O40    O     0.26232   0.18626   0.82905   0.00000  Uiso   1.00
N41    N     0.16509   0.32952   0.51126   0.00000  Uiso   1.00
N42    N     0.86291   0.42083   0.60810   0.00000  Uiso   1.00
N43    N     0.33707   0.17699   0.76327   0.00000  Uiso   1.00
N44    N     0.11075   0.45462   0.53336   0.00000  Uiso   1.00
N45    N     0.80857   0.54593   0.63020   0.00000  Uiso   1.00
N46    N     0.28273   0.30209   0.78537   0.00000  Uiso   1.00
C47    C     0.04026   0.20191   0.12560   0.00000  Uiso   1.00
C48    C     0.13476   0.16268   0.09949   0.00000  Uiso   1.00
C49    C     0.18393   0.19938   0.06523   0.00000  Uiso   1.00
C50    C     0.26914   0.15329   0.04555   0.00000  Uiso   1.00
C51    C     0.41055   0.10451   0.00285   0.00000  Uiso   1.00
C52    C     0.94243   0.13751   0.12617   0.00000  Uiso   1.00
C53    C     0.82990   0.15305   0.11435   0.00000  Uiso   1.00
C54    C     0.75322   0.08577   0.11714   0.00000  Uiso   1.00
C55    C     0.59602   0.99793   0.11590   0.00000  Uiso   1.00
C56    C     0.08737   0.20472   0.16893   0.00000  Uiso   1.00
C57    C     0.09667   0.27676   0.19307   0.00000  Uiso   1.00
C58    C     0.14199   0.26605   0.23187   0.00000  Uiso   1.00
C59    C     0.20983   0.28256   0.29702   0.00000  Uiso   1.00
C60    C     0.10416   0.05479   0.15159   0.00000  Uiso   1.00
C61    C     0.16946   0.08277   0.11361   0.00000  Uiso   1.00
C62    C     0.25463   0.03661   0.09398   0.00000  Uiso   1.00
C63    C     0.30392   0.07323   0.05969   0.00000  Uiso   1.00
C64    C     0.97713   0.05760   0.14029   0.00000  Uiso   1.00
C65    C     0.90060   0.99028   0.14310   0.00000  Uiso   1.00
C66    C     0.78798   0.00571   0.13129   0.00000  Uiso   1.00
C67    C     0.12208   0.12481   0.18305   0.00000  Uiso   1.00
C68    C     0.16738   0.11399   0.22182   0.00000  Uiso   1.00
C69    C     0.17676   0.18600   0.24601   0.00000  Uiso   1.00
H70    H     0.01323   0.26412   0.11461   0.00000  Uiso   1.00
H71    H     0.15704   0.26122   0.05431   0.00000  Uiso   1.00
H72    H     0.80307   0.21490   0.10343   0.00000  Uiso   1.00
H73    H     0.06981   0.33858   0.18213   0.00000  Uiso   1.00
H74    H     0.33175   0.22275   0.99367   0.00000  Uiso   1.00
H75    H     0.58537   0.12509   0.09726   0.00000  Uiso   1.00
H76    H     0.14784   0.38590   0.26323   0.00000  Uiso   1.00
H77    H     0.13117   0.99258   0.16258   0.00000  Uiso   1.00
H78    H     0.28146   0.97477   0.10491   0.00000  Uiso   1.00
H79    H     0.92748   0.92845   0.15403   0.00000  Uiso   1.00
H80    H     0.19423   0.05214   0.23274   0.00000  Uiso   1.00
H81    H     0.43274   0.99026   0.03474   0.00000  Uiso   1.00
H82    H     0.68635   0.89260   0.13834   0.00000  Uiso   1.00
H83    H     0.24883   0.15341   0.30430   0.00000  Uiso   1.00
O84    O     0.47895   0.09968   0.97540   0.00000  Uiso   1.00
O85    O     0.49973   0.97156   0.11132   0.00000  Uiso   1.00
O86    O     0.23768   0.31374   0.32905   0.00000  Uiso   1.00
N87    N     0.33491   0.17048   0.01126   0.00000  Uiso   1.00
N88    N     0.63709   0.07917   0.10810   0.00000  Uiso   1.00
N89    N     0.16293   0.32301   0.26327   0.00000  Uiso   1.00
N90    N     0.38925   0.04538   0.03336   0.00000  Uiso   1.00
N91    N     0.69143   0.95407   0.13020   0.00000  Uiso   1.00
N92    N     0.21727   0.19791   0.28537   0.00000  Uiso   1.00
C93    C     0.54026   0.29809   0.87440   0.00000  Uiso   1.00
C94    C     0.63476   0.33732   0.90051   0.00000  Uiso   1.00
C95    C     0.68393   0.30062   0.93477   0.00000  Uiso   1.00
C96    C     0.76914   0.34671   0.95445   0.00000  Uiso   1.00
C97    C     0.91055   0.39549   0.99715   0.00000  Uiso   1.00
C98    C     0.44243   0.36249   0.87383   0.00000  Uiso   1.00
C99    C     0.32990   0.34695   0.88565   0.00000  Uiso   1.00
C100   C     0.25322   0.41423   0.88286   0.00000  Uiso   1.00
C101   C     0.09602   0.50207   0.88410   0.00000  Uiso   1.00
C102   C     0.58737   0.29528   0.83107   0.00000  Uiso   1.00
C103   C     0.59667   0.22324   0.80693   0.00000  Uiso   1.00
C104   C     0.64199   0.23395   0.76813   0.00000  Uiso   1.00
C105   C     0.70983   0.21744   0.70298   0.00000  Uiso   1.00
C106   C     0.60416   0.44521   0.84841   0.00000  Uiso   1.00
C107   C     0.66946   0.41723   0.88639   0.00000  Uiso   1.00
C108   C     0.75463   0.46339   0.90602   0.00000  Uiso   1.00
C109   C     0.80392   0.42677   0.94031   0.00000  Uiso   1.00
C110   C     0.47713   0.44240   0.85971   0.00000  Uiso   1.00
C111   C     0.40060   0.50972   0.85690   0.00000  Uiso   1.00
C112   C     0.28798   0.49429   0.86871   0.00000  Uiso   1.00
C113   C     0.62208   0.37519   0.81695   0.00000  Uiso   1.00
C114   C     0.66738   0.38601   0.77818   0.00000  Uiso   1.00
C115   C     0.67676   0.31400   0.75399   0.00000  Uiso   1.00
H116   H     0.51323   0.23588   0.88539   0.00000  Uiso   1.00
H117   H     0.65704   0.23878   0.94569   0.00000  Uiso   1.00
H118   H     0.30307   0.28510   0.89657   0.00000  Uiso   1.00
H119   H     0.56981   0.16142   0.81787   0.00000  Uiso   1.00
H120   H     0.83175   0.27725   0.00633   0.00000  Uiso   1.00
H121   H     0.08537   0.37491   0.90274   0.00000  Uiso   1.00
H122   H     0.64784   0.11410   0.73677   0.00000  Uiso   1.00
H123   H     0.63117   0.50742   0.83742   0.00000  Uiso   1.00
H124   H     0.78146   0.52523   0.89509   0.00000  Uiso   1.00
H125   H     0.42748   0.57155   0.84597   0.00000  Uiso   1.00
H126   H     0.69423   0.44786   0.76726   0.00000  Uiso   1.00
H127   H     0.93274   0.50974   0.96526   0.00000  Uiso   1.00
H128   H     0.18635   0.60740   0.86166   0.00000  Uiso   1.00
H129   H     0.74883   0.34659   0.69570   0.00000  Uiso   1.00
O130   O     0.97895   0.40032   0.02460   0.00000  Uiso   1.00
O131   O     0.99973   0.52844   0.88868   0.00000  Uiso   1.00
O132   O     0.73768   0.18626   0.67095   0.00000  Uiso   1.00
N133   N     0.83491   0.32952   0.98874   0.00000  Uiso   1.00
N134   N     0.13709   0.42083   0.89190   0.00000  Uiso   1.00
N135   N     0.66293   0.17699   0.73673   0.00000  Uiso   1.00
N136   N     0.88925   0.45462   0.96664   0.00000  Uiso   1.00
N137   N     0.19143   0.54593   0.86980   0.00000  Uiso   1.00
N138   N     0.71727   0.30209   0.71463   0.00000  Uiso   1.00
C139   C     0.95974   0.20191   0.37440   0.00000  Uiso   1.00
C140   C     0.86524   0.16268   0.40051   0.00000  Uiso   1.00
C141   C     0.81607   0.19938   0.43477   0.00000  Uiso   1.00
C142   C     0.73086   0.15329   0.45445   0.00000  Uiso   1.00
C143   C     0.58945   0.10451   0.49715   0.00000  Uiso   1.00
C144   C     0.05757   0.13751   0.37383   0.00000  Uiso   1.00
C145   C     0.17010   0.15305   0.38565   0.00000  Uiso   1.00
C146   C     0.24678   0.08577   0.38286   0.00000  Uiso   1.00
C147   C     0.40398   0.99793   0.38410   0.00000  Uiso   1.00
C148   C     0.91263   0.20472   0.33107   0.00000  Uiso   1.00
C149   C     0.90333   0.27676   0.30693   0.00000  Uiso   1.00
C150   C     0.85801   0.26605   0.26813   0.00000  Uiso   1.00
C151   C     0.79017   0.28256   0.20298   0.00000  Uiso   1.00
C152   C     0.89584   0.05479   0.34841   0.00000  Uiso   1.00
C153   C     0.83054   0.08277   0.38639   0.00000  Uiso   1.00
C154   C     0.74537   0.03661   0.40602   0.00000  Uiso   1.00
C155   C     0.69608   0.07323   0.44031   0.00000  Uiso   1.00
C156   C     0.02287   0.05760   0.35971   0.00000  Uiso   1.00
C157   C     0.09940   0.99028   0.35690   0.00000  Uiso   1.00
C158   C     0.21202   0.00571   0.36871   0.00000  Uiso   1.00
C159   C     0.87792   0.12481   0.31695   0.00000  Uiso   1.00
C160   C     0.83262   0.11399   0.27818   0.00000  Uiso   1.00
C161   C     0.82324   0.18600   0.25399   0.00000  Uiso   1.00
H162   H     0.98677   0.26412   0.38539   0.00000  Uiso   1.00
H163   H     0.84296   0.26122   0.44569   0.00000  Uiso   1.00
H164   H     0.19693   0.21490   0.39657   0.00000  Uiso   1.00
H165   H     0.93019   0.33858   0.31787   0.00000  Uiso   1.00
H166   H     0.66825   0.22275   0.50633   0.00000  Uiso   1.00
H167   H     0.41463   0.12509   0.40274   0.00000  Uiso   1.00
H168   H     0.85216   0.38590   0.23677   0.00000  Uiso   1.00
H169   H     0.86883   0.99258   0.33742   0.00000  Uiso   1.00
H170   H     0.71854   0.97477   0.39509   0.00000  Uiso   1.00
H171   H     0.07252   0.92845   0.34597   0.00000  Uiso   1.00
H172   H     0.80577   0.05214   0.26726   0.00000  Uiso   1.00
H173   H     0.56726   0.99026   0.46526   0.00000  Uiso   1.00
H174   H     0.31365   0.89260   0.36166   0.00000  Uiso   1.00
H175   H     0.75117   0.15341   0.19570   0.00000  Uiso   1.00
O176   O     0.52105   0.09968   0.52460   0.00000  Uiso   1.00
O177   O     0.50027   0.97156   0.38868   0.00000  Uiso   1.00
O178   O     0.76232   0.31374   0.17095   0.00000  Uiso   1.00
N179   N     0.66509   0.17048   0.48874   0.00000  Uiso   1.00
N180   N     0.36291   0.07917   0.39190   0.00000  Uiso   1.00
N181   N     0.83707   0.32301   0.23673   0.00000  Uiso   1.00
N182   N     0.61075   0.04538   0.46664   0.00000  Uiso   1.00
N183   N     0.30857   0.95407   0.36980   0.00000  Uiso   1.00
N184   N     0.78273   0.19791   0.21463   0.00000  Uiso   1.00
C185   C     0.54026   0.70191   0.37440   0.00000  Uiso   1.00
C186   C     0.63476   0.66268   0.40051   0.00000  Uiso   1.00
C187   C     0.68393   0.69938   0.43477   0.00000  Uiso   1.00
C188   C     0.76914   0.65329   0.45445   0.00000  Uiso   1.00
C189   C     0.91055   0.60451   0.49715   0.00000  Uiso   1.00
C190   C     0.44243   0.63751   0.37383   0.00000  Uiso   1.00
C191   C     0.32990   0.65305   0.38565   0.00000  Uiso   1.00
C192   C     0.25322   0.58577   0.38286   0.00000  Uiso   1.00
C193   C     0.09602   0.49793   0.38410   0.00000  Uiso   1.00
C194   C     0.58737   0.70472   0.33107   0.00000  Uiso   1.00
C195   C     0.59667   0.77676   0.30693   0.00000  Uiso   1.00
C196   C     0.64199   0.76605   0.26813   0.00000  Uiso   1.00
C197   C     0.70983   0.78256   0.20298   0.00000  Uiso   1.00
C198   C     0.60416   0.55479   0.34841   0.00000  Uiso   1.00
C199   C     0.66946   0.58277   0.38639   0.00000  Uiso   1.00
C200   C     0.75463   0.53661   0.40602   0.00000  Uiso   1.00
C201   C     0.80392   0.57323   0.44031   0.00000  Uiso   1.00
C202   C     0.47713   0.55760   0.35971   0.00000  Uiso   1.00
C203   C     0.40060   0.49028   0.35690   0.00000  Uiso   1.00
C204   C     0.28798   0.50571   0.36871   0.00000  Uiso   1.00
C205   C     0.62208   0.62481   0.31695   0.00000  Uiso   1.00
C206   C     0.66738   0.61399   0.27818   0.00000  Uiso   1.00
C207   C     0.67676   0.68600   0.25399   0.00000  Uiso   1.00
H208   H     0.51323   0.76412   0.38539   0.00000  Uiso   1.00
H209   H     0.65704   0.76122   0.44569   0.00000  Uiso   1.00
H210   H     0.30307   0.71490   0.39657   0.00000  Uiso   1.00
H211   H     0.56981   0.83858   0.31787   0.00000  Uiso   1.00
H212   H     0.83175   0.72275   0.50633   0.00000  Uiso   1.00
H213   H     0.08537   0.62509   0.40274   0.00000  Uiso   1.00
H214   H     0.64784   0.88590   0.23677   0.00000  Uiso   1.00
H215   H     0.63117   0.49258   0.33742   0.00000  Uiso   1.00
H216   H     0.78146   0.47477   0.39509   0.00000  Uiso   1.00
H217   H     0.42748   0.42845   0.34597   0.00000  Uiso   1.00
H218   H     0.69423   0.55214   0.26726   0.00000  Uiso   1.00
H219   H     0.93274   0.49026   0.46526   0.00000  Uiso   1.00
H220   H     0.18635   0.39260   0.36166   0.00000  Uiso   1.00
H221   H     0.74883   0.65341   0.19570   0.00000  Uiso   1.00
O222   O     0.97895   0.59968   0.52460   0.00000  Uiso   1.00
O223   O     0.99973   0.47156   0.38868   0.00000  Uiso   1.00
O224   O     0.73768   0.81374   0.17095   0.00000  Uiso   1.00
N225   N     0.83491   0.67048   0.48874   0.00000  Uiso   1.00
N226   N     0.13709   0.57917   0.39190   0.00000  Uiso   1.00
N227   N     0.66293   0.82301   0.23673   0.00000  Uiso   1.00
N228   N     0.88925   0.54538   0.46664   0.00000  Uiso   1.00
N229   N     0.19143   0.45407   0.36980   0.00000  Uiso   1.00
N230   N     0.71727   0.69791   0.21463   0.00000  Uiso   1.00
C231   C     0.95974   0.79809   0.87440   0.00000  Uiso   1.00
C232   C     0.86524   0.83732   0.90051   0.00000  Uiso   1.00
C233   C     0.81607   0.80062   0.93477   0.00000  Uiso   1.00
C234   C     0.73086   0.84671   0.95445   0.00000  Uiso   1.00
C235   C     0.58945   0.89549   0.99715   0.00000  Uiso   1.00
C236   C     0.05757   0.86249   0.87383   0.00000  Uiso   1.00
C237   C     0.17010   0.84695   0.88565   0.00000  Uiso   1.00
C238   C     0.24678   0.91423   0.88286   0.00000  Uiso   1.00
C239   C     0.40398   0.00207   0.88410   0.00000  Uiso   1.00
C240   C     0.91263   0.79528   0.83107   0.00000  Uiso   1.00
C241   C     0.90333   0.72324   0.80693   0.00000  Uiso   1.00
C242   C     0.85801   0.73395   0.76813   0.00000  Uiso   1.00
C243   C     0.79017   0.71744   0.70298   0.00000  Uiso   1.00
C244   C     0.89584   0.94521   0.84841   0.00000  Uiso   1.00
C245   C     0.83054   0.91723   0.88639   0.00000  Uiso   1.00
C246   C     0.74537   0.96339   0.90602   0.00000  Uiso   1.00
C247   C     0.69608   0.92677   0.94031   0.00000  Uiso   1.00
C248   C     0.02287   0.94240   0.85971   0.00000  Uiso   1.00
C249   C     0.09940   0.00972   0.85690   0.00000  Uiso   1.00
C250   C     0.21202   0.99429   0.86871   0.00000  Uiso   1.00
C251   C     0.87792   0.87519   0.81695   0.00000  Uiso   1.00
C252   C     0.83262   0.88601   0.77818   0.00000  Uiso   1.00
C253   C     0.82324   0.81400   0.75399   0.00000  Uiso   1.00
H254   H     0.98677   0.73588   0.88539   0.00000  Uiso   1.00
H255   H     0.84296   0.73878   0.94569   0.00000  Uiso   1.00
H256   H     0.19693   0.78510   0.89657   0.00000  Uiso   1.00
H257   H     0.93019   0.66142   0.81787   0.00000  Uiso   1.00
H258   H     0.66825   0.77725   0.00633   0.00000  Uiso   1.00
H259   H     0.41463   0.87491   0.90274   0.00000  Uiso   1.00
H260   H     0.85216   0.61410   0.73677   0.00000  Uiso   1.00
H261   H     0.86883   0.00742   0.83742   0.00000  Uiso   1.00
H262   H     0.71854   0.02523   0.89509   0.00000  Uiso   1.00
H263   H     0.07252   0.07155   0.84597   0.00000  Uiso   1.00
H264   H     0.80577   0.94786   0.76726   0.00000  Uiso   1.00
H265   H     0.56726   0.00974   0.96526   0.00000  Uiso   1.00
H266   H     0.31365   0.10740   0.86166   0.00000  Uiso   1.00
H267   H     0.75117   0.84659   0.69570   0.00000  Uiso   1.00
O268   O     0.52105   0.90032   0.02460   0.00000  Uiso   1.00
O269   O     0.50027   0.02844   0.88868   0.00000  Uiso   1.00
O270   O     0.76232   0.68626   0.67095   0.00000  Uiso   1.00
N271   N     0.66509   0.82952   0.98874   0.00000  Uiso   1.00
N272   N     0.36291   0.92083   0.89190   0.00000  Uiso   1.00
N273   N     0.83707   0.67699   0.73673   0.00000  Uiso   1.00
N274   N     0.61075   0.95462   0.96664   0.00000  Uiso   1.00
N275   N     0.30857   0.04593   0.86980   0.00000  Uiso   1.00
N276   N     0.78273   0.80209   0.71463   0.00000  Uiso   1.00
C277   C     0.45974   0.70191   0.12560   0.00000  Uiso   1.00
C278   C     0.36524   0.66268   0.09949   0.00000  Uiso   1.00
C279   C     0.31607   0.69938   0.06523   0.00000  Uiso   1.00
C280   C     0.23086   0.65329   0.04555   0.00000  Uiso   1.00
C281   C     0.08945   0.60451   0.00285   0.00000  Uiso   1.00
C282   C     0.55757   0.63751   0.12617   0.00000  Uiso   1.00
C283   C     0.67010   0.65305   0.11435   0.00000  Uiso   1.00
C284   C     0.74678   0.58577   0.11714   0.00000  Uiso   1.00
C285   C     0.90398   0.49793   0.11590   0.00000  Uiso   1.00
C286   C     0.41263   0.70472   0.16893   0.00000  Uiso   1.00
C287   C     0.40333   0.77676   0.19307   0.00000  Uiso   1.00
C288   C     0.35801   0.76605   0.23187   0.00000  Uiso   1.00
C289   C     0.29017   0.78256   0.29702   0.00000  Uiso   1.00
C290   C     0.39584   0.55479   0.15159   0.00000  Uiso   1.00
C291   C     0.33054   0.58277   0.11361   0.00000  Uiso   1.00
C292   C     0.24537   0.53661   0.09398   0.00000  Uiso   1.00
C293   C     0.19608   0.57323   0.05969   0.00000  Uiso   1.00
C294   C     0.52287   0.55760   0.14029   0.00000  Uiso   1.00
C295   C     0.59940   0.49028   0.14310   0.00000  Uiso   1.00
C296   C     0.71202   0.50571   0.13129   0.00000  Uiso   1.00
C297   C     0.37792   0.62481   0.18305   0.00000  Uiso   1.00
C298   C     0.33262   0.61399   0.22182   0.00000  Uiso   1.00
C299   C     0.32324   0.68600   0.24601   0.00000  Uiso   1.00
H300   H     0.48677   0.76412   0.11461   0.00000  Uiso   1.00
H301   H     0.34296   0.76122   0.05431   0.00000  Uiso   1.00
H302   H     0.69693   0.71490   0.10343   0.00000  Uiso   1.00
H303   H     0.43019   0.83858   0.18213   0.00000  Uiso   1.00
H304   H     0.16825   0.72275   0.99367   0.00000  Uiso   1.00
H305   H     0.91463   0.62509   0.09726   0.00000  Uiso   1.00
H306   H     0.35216   0.88590   0.26323   0.00000  Uiso   1.00
H307   H     0.36883   0.49258   0.16258   0.00000  Uiso   1.00
H308   H     0.21854   0.47477   0.10491   0.00000  Uiso   1.00
H309   H     0.57252   0.42845   0.15403   0.00000  Uiso   1.00
H310   H     0.30577   0.55214   0.23274   0.00000  Uiso   1.00
H311   H     0.06726   0.49026   0.03474   0.00000  Uiso   1.00
H312   H     0.81365   0.39260   0.13834   0.00000  Uiso   1.00
H313   H     0.25117   0.65341   0.30430   0.00000  Uiso   1.00
O314   O     0.02105   0.59968   0.97540   0.00000  Uiso   1.00
O315   O     0.00027   0.47156   0.11132   0.00000  Uiso   1.00
O316   O     0.26232   0.81374   0.32905   0.00000  Uiso   1.00
N317   N     0.16509   0.67048   0.01126   0.00000  Uiso   1.00
N318   N     0.86291   0.57917   0.10810   0.00000  Uiso   1.00
N319   N     0.33707   0.82301   0.26327   0.00000  Uiso   1.00
N320   N     0.11075   0.54538   0.03336   0.00000  Uiso   1.00
N321   N     0.80857   0.45407   0.13020   0.00000  Uiso   1.00
N322   N     0.28273   0.69791   0.28537   0.00000  Uiso   1.00
C323   C     0.04026   0.79809   0.62560   0.00000  Uiso   1.00
C324   C     0.13476   0.83732   0.59949   0.00000  Uiso   1.00
C325   C     0.18393   0.80062   0.56523   0.00000  Uiso   1.00
C326   C     0.26914   0.84671   0.54555   0.00000  Uiso   1.00
C327   C     0.41055   0.89549   0.50285   0.00000  Uiso   1.00
C328   C     0.94243   0.86249   0.62617   0.00000  Uiso   1.00
C329   C     0.82990   0.84695   0.61435   0.00000  Uiso   1.00
C330   C     0.75322   0.91423   0.61714   0.00000  Uiso   1.00
C331   C     0.59602   0.00207   0.61590   0.00000  Uiso   1.00
C332   C     0.08737   0.79528   0.66893   0.00000  Uiso   1.00
C333   C     0.09667   0.72324   0.69307   0.00000  Uiso   1.00
C334   C     0.14199   0.73395   0.73187   0.00000  Uiso   1.00
C335   C     0.20983   0.71744   0.79702   0.00000  Uiso   1.00
C336   C     0.10416   0.94521   0.65159   0.00000  Uiso   1.00
C337   C     0.16946   0.91723   0.61361   0.00000  Uiso   1.00
C338   C     0.25463   0.96339   0.59398   0.00000  Uiso   1.00
C339   C     0.30392   0.92677   0.55969   0.00000  Uiso   1.00
C340   C     0.97713   0.94240   0.64029   0.00000  Uiso   1.00
C341   C     0.90060   0.00972   0.64310   0.00000  Uiso   1.00
C342   C     0.78798   0.99429   0.63129   0.00000  Uiso   1.00
C343   C     0.12208   0.87519   0.68305   0.00000  Uiso   1.00
C344   C     0.16738   0.88601   0.72182   0.00000  Uiso   1.00
C345   C     0.17676   0.81400   0.74601   0.00000  Uiso   1.00
H346   H     0.01323   0.73588   0.61461   0.00000  Uiso   1.00
H347   H     0.15704   0.73878   0.55431   0.00000  Uiso   1.00
H348   H     0.80307   0.78510   0.60343   0.00000  Uiso   1.00
H349   H     0.06981   0.66142   0.68213   0.00000  Uiso   1.00
H350   H     0.33175   0.77725   0.49367   0.00000  Uiso   1.00
H351   H     0.58537   0.87491   0.59726   0.00000  Uiso   1.00
H352   H     0.14784   0.61410   0.76323   0.00000  Uiso   1.00
H353   H     0.13117   0.00742   0.66258   0.00000  Uiso   1.00
H354   H     0.28146   0.02523   0.60491   0.00000  Uiso   1.00
H355   H     0.92748   0.07155   0.65403   0.00000  Uiso   1.00
H356   H     0.19423   0.94786   0.73274   0.00000  Uiso   1.00
H357   H     0.43274   0.00974   0.53474   0.00000  Uiso   1.00
H358   H     0.68635   0.10740   0.63834   0.00000  Uiso   1.00
H359   H     0.24883   0.84659   0.80430   0.00000  Uiso   1.00
O360   O     0.47895   0.90032   0.47540   0.00000  Uiso   1.00
O361   O     0.49973   0.02844   0.61132   0.00000  Uiso   1.00
O362   O     0.23768   0.68626   0.82905   0.00000  Uiso   1.00
N363   N     0.33491   0.82952   0.51126   0.00000  Uiso   1.00
N364   N     0.63709   0.92083   0.60810   0.00000  Uiso   1.00
N365   N     0.16293   0.67699   0.76327   0.00000  Uiso   1.00
N366   N     0.38925   0.95462   0.53336   0.00000  Uiso   1.00
N367   N     0.69143   0.04593   0.63020   0.00000  Uiso   1.00
N368   N     0.21727   0.80209   0.78537   0.00000  Uiso   1.00
