data_job_00255
_audit_creation_date              2018-12-19
_audit_creation_method            'Materials Studio'
_symmetry_space_group_name_H-M    'P1'
_symmetry_Int_Tables_number       1
_symmetry_cell_setting            triclinic
loop_
_symmetry_equiv_pos_as_xyz
  x,y,z
_cell_length_a                    13.2860
_cell_length_b                    27.5054
_cell_length_c                    12.5452
_cell_angle_alpha                 90.0000
_cell_angle_beta                  90.0000
_cell_angle_gamma                 90.0000
loop_
_atom_site_label
_atom_site_type_symbol
_atom_site_fract_x
_atom_site_fract_y
_atom_site_fract_z
_atom_site_U_iso_or_equiv
_atom_site_adp_type
_atom_site_occupancy
C1     C     0.79111   0.36869   0.13000   0.00000  Uiso   1.00
C2     C     0.86738   0.38558   0.04706   0.00000  Uiso   1.00
C3     C     0.84473   0.40834   0.95129   0.00000  Uiso   1.00
C4     C     0.92521   0.42095   0.88633   0.00000  Uiso   1.00
C5     C     0.02850   0.44864   0.75297   0.00000  Uiso   1.00
C6     C     0.81076   0.31459   0.14652   0.00000  Uiso   1.00
C7     C     0.74049   0.27767   0.13439   0.00000  Uiso   1.00
C8     C     0.77330   0.23052   0.15317   0.00000  Uiso   1.00
C9     C     0.78866   0.14800   0.17431   0.00000  Uiso   1.00
C10    C     0.82075   0.39351   0.23407   0.00000  Uiso   1.00
C11    C     0.75887   0.42292   0.29558   0.00000  Uiso   1.00
C12    C     0.80008   0.44220   0.38809   0.00000  Uiso   1.00
C13    C     0.83095   0.48221   0.54517   0.00000  Uiso   1.00
C14    C     0.97432   0.35060   0.18493   0.00000  Uiso   1.00
C15    C     0.96690   0.37575   0.07689   0.00000  Uiso   1.00
C16    C     0.04743   0.38833   0.01206   0.00000  Uiso   1.00
C17    C     0.02490   0.41110   0.91622   0.00000  Uiso   1.00
C18    C     0.91027   0.30477   0.17635   0.00000  Uiso   1.00
C19    C     0.94319   0.25766   0.19517   0.00000  Uiso   1.00
C20    C     0.87299   0.22067   0.18306   0.00000  Uiso   1.00
C21    C     0.92026   0.38368   0.26391   0.00000  Uiso   1.00
C22    C     0.96157   0.40291   0.35635   0.00000  Uiso   1.00
C23    C     0.89977   0.43235   0.41798   0.00000  Uiso   1.00
H24    H     0.71363   0.37634   0.10677   0.00000  Uiso   1.00
H25    H     0.76771   0.41594   0.92822   0.00000  Uiso   1.00
H26    H     0.66348   0.28529   0.11131   0.00000  Uiso   1.00
H27    H     0.68186   0.43052   0.27247   0.00000  Uiso   1.00
H28    H     0.87154   0.45549   0.74341   0.00000  Uiso   1.00
H29    H     0.65176   0.18001   0.12949   0.00000  Uiso   1.00
H30    H     0.69052   0.48625   0.46932   0.00000  Uiso   1.00
H31    H     0.05180   0.34295   0.20816   0.00000  Uiso   1.00
H32    H     0.12444   0.38072   0.03517   0.00000  Uiso   1.00
H33    H     0.02020   0.25007   0.21826   0.00000  Uiso   1.00
H34    H     0.03859   0.39530   0.37941   0.00000  Uiso   1.00
H35    H     0.16107   0.42690   0.83021   0.00000  Uiso   1.00
H36    H     0.94129   0.15142   0.21630   0.00000  Uiso   1.00
H37    H     0.98005   0.45767   0.55612   0.00000  Uiso   1.00
O38    O     0.05798   0.46662   0.67117   0.00000  Uiso   1.00
O39    O     0.76963   0.10521   0.17771   0.00000  Uiso   1.00
O40    O     0.82049   0.50700   0.62355   0.00000  Uiso   1.00
N41    N     0.92972   0.44359   0.78759   0.00000  Uiso   1.00
N42    N     0.72424   0.18603   0.14853   0.00000  Uiso   1.00
N43    N     0.76047   0.47233   0.46626   0.00000  Uiso   1.00
N44    N     0.08551   0.42820   0.83430   0.00000  Uiso   1.00
N45    N     0.88003   0.17064   0.19524   0.00000  Uiso   1.00
N46    N     0.91626   0.45695   0.51297   0.00000  Uiso   1.00
C47    C     0.70889   0.63131   0.63000   0.00000  Uiso   1.00
C48    C     0.63262   0.61442   0.54706   0.00000  Uiso   1.00
C49    C     0.65527   0.59166   0.45129   0.00000  Uiso   1.00
C50    C     0.57479   0.57905   0.38633   0.00000  Uiso   1.00
C51    C     0.47150   0.55136   0.25297   0.00000  Uiso   1.00
C52    C     0.68924   0.68541   0.64652   0.00000  Uiso   1.00
C53    C     0.75951   0.72233   0.63439   0.00000  Uiso   1.00
C54    C     0.72670   0.76948   0.65317   0.00000  Uiso   1.00
C55    C     0.71134   0.85200   0.67431   0.00000  Uiso   1.00
C56    C     0.67925   0.60649   0.73407   0.00000  Uiso   1.00
C57    C     0.74113   0.57708   0.79558   0.00000  Uiso   1.00
C58    C     0.69992   0.55780   0.88809   0.00000  Uiso   1.00
C59    C     0.66905   0.51779   0.04517   0.00000  Uiso   1.00
C60    C     0.52568   0.64940   0.68493   0.00000  Uiso   1.00
C61    C     0.53310   0.62425   0.57689   0.00000  Uiso   1.00
C62    C     0.45257   0.61167   0.51206   0.00000  Uiso   1.00
C63    C     0.47510   0.58890   0.41622   0.00000  Uiso   1.00
C64    C     0.58973   0.69523   0.67635   0.00000  Uiso   1.00
C65    C     0.55681   0.74234   0.69517   0.00000  Uiso   1.00
C66    C     0.62701   0.77933   0.68306   0.00000  Uiso   1.00
C67    C     0.57974   0.61632   0.76391   0.00000  Uiso   1.00
C68    C     0.53843   0.59709   0.85635   0.00000  Uiso   1.00
C69    C     0.60023   0.56765   0.91798   0.00000  Uiso   1.00
H70    H     0.78637   0.62366   0.60677   0.00000  Uiso   1.00
H71    H     0.73229   0.58406   0.42822   0.00000  Uiso   1.00
H72    H     0.83652   0.71471   0.61131   0.00000  Uiso   1.00
H73    H     0.81814   0.56948   0.77247   0.00000  Uiso   1.00
H74    H     0.62846   0.54451   0.24341   0.00000  Uiso   1.00
H75    H     0.84824   0.81999   0.62949   0.00000  Uiso   1.00
H76    H     0.80948   0.51375   0.96932   0.00000  Uiso   1.00
H77    H     0.44820   0.65705   0.70816   0.00000  Uiso   1.00
H78    H     0.37556   0.61928   0.53517   0.00000  Uiso   1.00
H79    H     0.47980   0.74993   0.71826   0.00000  Uiso   1.00
H80    H     0.46141   0.60470   0.87941   0.00000  Uiso   1.00
H81    H     0.33893   0.57310   0.33021   0.00000  Uiso   1.00
H82    H     0.55871   0.84858   0.71630   0.00000  Uiso   1.00
H83    H     0.51995   0.54233   0.05612   0.00000  Uiso   1.00
O84    O     0.44202   0.53338   0.17117   0.00000  Uiso   1.00
O85    O     0.73037   0.89479   0.67771   0.00000  Uiso   1.00
O86    O     0.67951   0.49300   0.12355   0.00000  Uiso   1.00
N87    N     0.57028   0.55641   0.28759   0.00000  Uiso   1.00
N88    N     0.77576   0.81397   0.64853   0.00000  Uiso   1.00
N89    N     0.73953   0.52767   0.96626   0.00000  Uiso   1.00
N90    N     0.41449   0.57180   0.33430   0.00000  Uiso   1.00
N91    N     0.61997   0.82936   0.69524   0.00000  Uiso   1.00
N92    N     0.58374   0.54305   0.01297   0.00000  Uiso   1.00
C93    C     0.20889   0.86869   0.37000   0.00000  Uiso   1.00
C94    C     0.13262   0.88558   0.45294   0.00000  Uiso   1.00
C95    C     0.15527   0.90834   0.54871   0.00000  Uiso   1.00
C96    C     0.07479   0.92095   0.61367   0.00000  Uiso   1.00
C97    C     0.97150   0.94864   0.74703   0.00000  Uiso   1.00
C98    C     0.18924   0.81459   0.35348   0.00000  Uiso   1.00
C99    C     0.25951   0.77767   0.36561   0.00000  Uiso   1.00
C100   C     0.22670   0.73052   0.34683   0.00000  Uiso   1.00
C101   C     0.21134   0.64800   0.32569   0.00000  Uiso   1.00
C102   C     0.17925   0.89351   0.26593   0.00000  Uiso   1.00
C103   C     0.24113   0.92292   0.20442   0.00000  Uiso   1.00
C104   C     0.19992   0.94220   0.11191   0.00000  Uiso   1.00
C105   C     0.16905   0.98221   0.95483   0.00000  Uiso   1.00
C106   C     0.02568   0.85060   0.31507   0.00000  Uiso   1.00
C107   C     0.03310   0.87575   0.42311   0.00000  Uiso   1.00
C108   C     0.95257   0.88833   0.48794   0.00000  Uiso   1.00
C109   C     0.97510   0.91110   0.58378   0.00000  Uiso   1.00
C110   C     0.08973   0.80477   0.32365   0.00000  Uiso   1.00
C111   C     0.05681   0.75766   0.30483   0.00000  Uiso   1.00
C112   C     0.12701   0.72067   0.31694   0.00000  Uiso   1.00
C113   C     0.07974   0.88368   0.23609   0.00000  Uiso   1.00
C114   C     0.03843   0.90291   0.14365   0.00000  Uiso   1.00
C115   C     0.10023   0.93235   0.08202   0.00000  Uiso   1.00
H116   H     0.28637   0.87634   0.39323   0.00000  Uiso   1.00
H117   H     0.23229   0.91594   0.57178   0.00000  Uiso   1.00
H118   H     0.33652   0.78529   0.38869   0.00000  Uiso   1.00
H119   H     0.31814   0.93052   0.22753   0.00000  Uiso   1.00
H120   H     0.12846   0.95549   0.75659   0.00000  Uiso   1.00
H121   H     0.34824   0.68001   0.37051   0.00000  Uiso   1.00
H122   H     0.30948   0.98625   0.03068   0.00000  Uiso   1.00
H123   H     0.94820   0.84295   0.29184   0.00000  Uiso   1.00
H124   H     0.87556   0.88072   0.46483   0.00000  Uiso   1.00
H125   H     0.97980   0.75007   0.28174   0.00000  Uiso   1.00
H126   H     0.96141   0.89530   0.12059   0.00000  Uiso   1.00
H127   H     0.83893   0.92690   0.66979   0.00000  Uiso   1.00
H128   H     0.05871   0.65142   0.28370   0.00000  Uiso   1.00
H129   H     0.01995   0.95767   0.94388   0.00000  Uiso   1.00
O130   O     0.94202   0.96662   0.82883   0.00000  Uiso   1.00
O131   O     0.23037   0.60521   0.32229   0.00000  Uiso   1.00
O132   O     0.17951   0.00700   0.87645   0.00000  Uiso   1.00
N133   N     0.07028   0.94359   0.71241   0.00000  Uiso   1.00
N134   N     0.27576   0.68603   0.35147   0.00000  Uiso   1.00
N135   N     0.23953   0.97233   0.03374   0.00000  Uiso   1.00
N136   N     0.91449   0.92820   0.66570   0.00000  Uiso   1.00
N137   N     0.11997   0.67064   0.30476   0.00000  Uiso   1.00
N138   N     0.08374   0.95695   0.98703   0.00000  Uiso   1.00
C139   C     0.29111   0.13131   0.87000   0.00000  Uiso   1.00
C140   C     0.36738   0.11442   0.95294   0.00000  Uiso   1.00
C141   C     0.34473   0.09166   0.04871   0.00000  Uiso   1.00
C142   C     0.42521   0.07905   0.11367   0.00000  Uiso   1.00
C143   C     0.52850   0.05136   0.24703   0.00000  Uiso   1.00
C144   C     0.31076   0.18541   0.85348   0.00000  Uiso   1.00
C145   C     0.24049   0.22233   0.86561   0.00000  Uiso   1.00
C146   C     0.27330   0.26948   0.84683   0.00000  Uiso   1.00
C147   C     0.28866   0.35200   0.82569   0.00000  Uiso   1.00
C148   C     0.32075   0.10649   0.76593   0.00000  Uiso   1.00
C149   C     0.25887   0.07708   0.70442   0.00000  Uiso   1.00
C150   C     0.30008   0.05780   0.61191   0.00000  Uiso   1.00
C151   C     0.33095   0.01779   0.45483   0.00000  Uiso   1.00
C152   C     0.47432   0.14940   0.81507   0.00000  Uiso   1.00
C153   C     0.46690   0.12425   0.92311   0.00000  Uiso   1.00
C154   C     0.54743   0.11167   0.98794   0.00000  Uiso   1.00
C155   C     0.52490   0.08890   0.08378   0.00000  Uiso   1.00
C156   C     0.41027   0.19523   0.82365   0.00000  Uiso   1.00
C157   C     0.44319   0.24234   0.80483   0.00000  Uiso   1.00
C158   C     0.37299   0.27933   0.81694   0.00000  Uiso   1.00
C159   C     0.42026   0.11632   0.73609   0.00000  Uiso   1.00
C160   C     0.46157   0.09709   0.64365   0.00000  Uiso   1.00
C161   C     0.39977   0.06765   0.58202   0.00000  Uiso   1.00
H162   H     0.21363   0.12366   0.89323   0.00000  Uiso   1.00
H163   H     0.26771   0.08406   0.07178   0.00000  Uiso   1.00
H164   H     0.16348   0.21471   0.88869   0.00000  Uiso   1.00
H165   H     0.18186   0.06948   0.72753   0.00000  Uiso   1.00
H166   H     0.37154   0.04451   0.25659   0.00000  Uiso   1.00
H167   H     0.15176   0.31999   0.87051   0.00000  Uiso   1.00
H168   H     0.19052   0.01375   0.53068   0.00000  Uiso   1.00
H169   H     0.55180   0.15705   0.79184   0.00000  Uiso   1.00
H170   H     0.62444   0.11928   0.96483   0.00000  Uiso   1.00
H171   H     0.52020   0.24993   0.78174   0.00000  Uiso   1.00
H172   H     0.53859   0.10470   0.62059   0.00000  Uiso   1.00
H173   H     0.66107   0.07310   0.16979   0.00000  Uiso   1.00
H174   H     0.44129   0.34858   0.78370   0.00000  Uiso   1.00
H175   H     0.48005   0.04233   0.44388   0.00000  Uiso   1.00
O176   O     0.55798   0.03338   0.32883   0.00000  Uiso   1.00
O177   O     0.26963   0.39479   0.82229   0.00000  Uiso   1.00
O178   O     0.32049   0.99300   0.37645   0.00000  Uiso   1.00
N179   N     0.42972   0.05641   0.21241   0.00000  Uiso   1.00
N180   N     0.22424   0.31397   0.85147   0.00000  Uiso   1.00
N181   N     0.26047   0.02767   0.53374   0.00000  Uiso   1.00
N182   N     0.58551   0.07180   0.16570   0.00000  Uiso   1.00
N183   N     0.38003   0.32936   0.80476   0.00000  Uiso   1.00
N184   N     0.41626   0.04305   0.48703   0.00000  Uiso   1.00
C185   C     0.20889   0.63131   0.87000   0.00000  Uiso   1.00
C186   C     0.13262   0.61442   0.95294   0.00000  Uiso   1.00
C187   C     0.15527   0.59166   0.04871   0.00000  Uiso   1.00
C188   C     0.07479   0.57905   0.11367   0.00000  Uiso   1.00
C189   C     0.97150   0.55136   0.24703   0.00000  Uiso   1.00
C190   C     0.18924   0.68541   0.85348   0.00000  Uiso   1.00
C191   C     0.25951   0.72233   0.86561   0.00000  Uiso   1.00
C192   C     0.22670   0.76948   0.84683   0.00000  Uiso   1.00
C193   C     0.21134   0.85200   0.82569   0.00000  Uiso   1.00
C194   C     0.17925   0.60649   0.76593   0.00000  Uiso   1.00
C195   C     0.24113   0.57708   0.70442   0.00000  Uiso   1.00
C196   C     0.19992   0.55780   0.61191   0.00000  Uiso   1.00
C197   C     0.16905   0.51779   0.45483   0.00000  Uiso   1.00
C198   C     0.02568   0.64940   0.81507   0.00000  Uiso   1.00
C199   C     0.03310   0.62425   0.92311   0.00000  Uiso   1.00
C200   C     0.95257   0.61167   0.98794   0.00000  Uiso   1.00
C201   C     0.97510   0.58890   0.08378   0.00000  Uiso   1.00
C202   C     0.08973   0.69523   0.82365   0.00000  Uiso   1.00
C203   C     0.05681   0.74234   0.80483   0.00000  Uiso   1.00
C204   C     0.12701   0.77933   0.81694   0.00000  Uiso   1.00
C205   C     0.07974   0.61632   0.73609   0.00000  Uiso   1.00
C206   C     0.03843   0.59709   0.64365   0.00000  Uiso   1.00
C207   C     0.10023   0.56765   0.58202   0.00000  Uiso   1.00
H208   H     0.28637   0.62366   0.89323   0.00000  Uiso   1.00
H209   H     0.23229   0.58406   0.07178   0.00000  Uiso   1.00
H210   H     0.33652   0.71471   0.88869   0.00000  Uiso   1.00
H211   H     0.31814   0.56948   0.72753   0.00000  Uiso   1.00
H212   H     0.12846   0.54451   0.25659   0.00000  Uiso   1.00
H213   H     0.34824   0.81999   0.87051   0.00000  Uiso   1.00
H214   H     0.30948   0.51375   0.53068   0.00000  Uiso   1.00
H215   H     0.94820   0.65705   0.79184   0.00000  Uiso   1.00
H216   H     0.87556   0.61928   0.96483   0.00000  Uiso   1.00
H217   H     0.97980   0.74993   0.78174   0.00000  Uiso   1.00
H218   H     0.96141   0.60470   0.62059   0.00000  Uiso   1.00
H219   H     0.83893   0.57310   0.16979   0.00000  Uiso   1.00
H220   H     0.05871   0.84858   0.78370   0.00000  Uiso   1.00
H221   H     0.01995   0.54233   0.44388   0.00000  Uiso   1.00
O222   O     0.94202   0.53338   0.32883   0.00000  Uiso   1.00
O223   O     0.23037   0.89479   0.82229   0.00000  Uiso   1.00
O224   O     0.17951   0.49300   0.37645   0.00000  Uiso   1.00
N225   N     0.07028   0.55641   0.21241   0.00000  Uiso   1.00
N226   N     0.27576   0.81397   0.85147   0.00000  Uiso   1.00
N227   N     0.23953   0.52767   0.53374   0.00000  Uiso   1.00
N228   N     0.91449   0.57180   0.16570   0.00000  Uiso   1.00
N229   N     0.11997   0.82936   0.80476   0.00000  Uiso   1.00
N230   N     0.08374   0.54305   0.48703   0.00000  Uiso   1.00
C231   C     0.29111   0.36869   0.37000   0.00000  Uiso   1.00
C232   C     0.36738   0.38558   0.45294   0.00000  Uiso   1.00
C233   C     0.34473   0.40834   0.54871   0.00000  Uiso   1.00
C234   C     0.42521   0.42095   0.61367   0.00000  Uiso   1.00
C235   C     0.52850   0.44864   0.74703   0.00000  Uiso   1.00
C236   C     0.31076   0.31459   0.35348   0.00000  Uiso   1.00
C237   C     0.24049   0.27767   0.36561   0.00000  Uiso   1.00
C238   C     0.27330   0.23052   0.34683   0.00000  Uiso   1.00
C239   C     0.28866   0.14800   0.32569   0.00000  Uiso   1.00
C240   C     0.32075   0.39351   0.26593   0.00000  Uiso   1.00
C241   C     0.25887   0.42292   0.20442   0.00000  Uiso   1.00
C242   C     0.30008   0.44220   0.11191   0.00000  Uiso   1.00
C243   C     0.33095   0.48221   0.95483   0.00000  Uiso   1.00
C244   C     0.47432   0.35060   0.31507   0.00000  Uiso   1.00
C245   C     0.46690   0.37575   0.42311   0.00000  Uiso   1.00
C246   C     0.54743   0.38833   0.48794   0.00000  Uiso   1.00
C247   C     0.52490   0.41110   0.58378   0.00000  Uiso   1.00
C248   C     0.41027   0.30477   0.32365   0.00000  Uiso   1.00
C249   C     0.44319   0.25766   0.30483   0.00000  Uiso   1.00
C250   C     0.37299   0.22067   0.31694   0.00000  Uiso   1.00
C251   C     0.42026   0.38368   0.23609   0.00000  Uiso   1.00
C252   C     0.46157   0.40291   0.14365   0.00000  Uiso   1.00
C253   C     0.39977   0.43235   0.08202   0.00000  Uiso   1.00
H254   H     0.21363   0.37634   0.39323   0.00000  Uiso   1.00
H255   H     0.26771   0.41594   0.57178   0.00000  Uiso   1.00
H256   H     0.16348   0.28529   0.38869   0.00000  Uiso   1.00
H257   H     0.18186   0.43052   0.22753   0.00000  Uiso   1.00
H258   H     0.37154   0.45549   0.75659   0.00000  Uiso   1.00
H259   H     0.15176   0.18001   0.37051   0.00000  Uiso   1.00
H260   H     0.19052   0.48625   0.03068   0.00000  Uiso   1.00
H261   H     0.55180   0.34295   0.29184   0.00000  Uiso   1.00
H262   H     0.62444   0.38072   0.46483   0.00000  Uiso   1.00
H263   H     0.52020   0.25007   0.28174   0.00000  Uiso   1.00
H264   H     0.53859   0.39530   0.12059   0.00000  Uiso   1.00
H265   H     0.66107   0.42690   0.66979   0.00000  Uiso   1.00
H266   H     0.44129   0.15142   0.28370   0.00000  Uiso   1.00
H267   H     0.48005   0.45767   0.94388   0.00000  Uiso   1.00
O268   O     0.55798   0.46662   0.82883   0.00000  Uiso   1.00
O269   O     0.26963   0.10521   0.32229   0.00000  Uiso   1.00
O270   O     0.32049   0.50700   0.87645   0.00000  Uiso   1.00
N271   N     0.42972   0.44359   0.71241   0.00000  Uiso   1.00
N272   N     0.22424   0.18603   0.35147   0.00000  Uiso   1.00
N273   N     0.26047   0.47233   0.03374   0.00000  Uiso   1.00
N274   N     0.58551   0.42820   0.66570   0.00000  Uiso   1.00
N275   N     0.38003   0.17064   0.30476   0.00000  Uiso   1.00
N276   N     0.41626   0.45695   0.98703   0.00000  Uiso   1.00
C277   C     0.79111   0.13131   0.63000   0.00000  Uiso   1.00
C278   C     0.86738   0.11442   0.54706   0.00000  Uiso   1.00
C279   C     0.84473   0.09166   0.45129   0.00000  Uiso   1.00
C280   C     0.92521   0.07905   0.38633   0.00000  Uiso   1.00
C281   C     0.02850   0.05136   0.25297   0.00000  Uiso   1.00
C282   C     0.81076   0.18541   0.64652   0.00000  Uiso   1.00
C283   C     0.74049   0.22233   0.63439   0.00000  Uiso   1.00
C284   C     0.77330   0.26948   0.65317   0.00000  Uiso   1.00
C285   C     0.78866   0.35200   0.67431   0.00000  Uiso   1.00
C286   C     0.82075   0.10649   0.73407   0.00000  Uiso   1.00
C287   C     0.75887   0.07708   0.79558   0.00000  Uiso   1.00
C288   C     0.80008   0.05780   0.88809   0.00000  Uiso   1.00
C289   C     0.83095   0.01779   0.04517   0.00000  Uiso   1.00
C290   C     0.97432   0.14940   0.68493   0.00000  Uiso   1.00
C291   C     0.96690   0.12425   0.57689   0.00000  Uiso   1.00
C292   C     0.04743   0.11167   0.51206   0.00000  Uiso   1.00
C293   C     0.02490   0.08890   0.41622   0.00000  Uiso   1.00
C294   C     0.91027   0.19523   0.67635   0.00000  Uiso   1.00
C295   C     0.94319   0.24234   0.69517   0.00000  Uiso   1.00
C296   C     0.87299   0.27933   0.68306   0.00000  Uiso   1.00
C297   C     0.92026   0.11632   0.76391   0.00000  Uiso   1.00
C298   C     0.96157   0.09709   0.85635   0.00000  Uiso   1.00
C299   C     0.89977   0.06765   0.91798   0.00000  Uiso   1.00
H300   H     0.71363   0.12366   0.60677   0.00000  Uiso   1.00
H301   H     0.76771   0.08406   0.42822   0.00000  Uiso   1.00
H302   H     0.66348   0.21471   0.61131   0.00000  Uiso   1.00
H303   H     0.68186   0.06948   0.77247   0.00000  Uiso   1.00
H304   H     0.87154   0.04451   0.24341   0.00000  Uiso   1.00
H305   H     0.65176   0.31999   0.62949   0.00000  Uiso   1.00
H306   H     0.69052   0.01375   0.96932   0.00000  Uiso   1.00
H307   H     0.05180   0.15705   0.70816   0.00000  Uiso   1.00
H308   H     0.12444   0.11928   0.53517   0.00000  Uiso   1.00
H309   H     0.02020   0.24993   0.71826   0.00000  Uiso   1.00
H310   H     0.03859   0.10470   0.87941   0.00000  Uiso   1.00
H311   H     0.16107   0.07310   0.33021   0.00000  Uiso   1.00
H312   H     0.94129   0.34858   0.71630   0.00000  Uiso   1.00
H313   H     0.98005   0.04233   0.05612   0.00000  Uiso   1.00
O314   O     0.05798   0.03338   0.17117   0.00000  Uiso   1.00
O315   O     0.76963   0.39479   0.67771   0.00000  Uiso   1.00
O316   O     0.82049   0.99300   0.12355   0.00000  Uiso   1.00
N317   N     0.92972   0.05641   0.28759   0.00000  Uiso   1.00
N318   N     0.72424   0.31397   0.64853   0.00000  Uiso   1.00
N319   N     0.76047   0.02767   0.96626   0.00000  Uiso   1.00
N320   N     0.08551   0.07180   0.33430   0.00000  Uiso   1.00
N321   N     0.88003   0.32936   0.69524   0.00000  Uiso   1.00
N322   N     0.91626   0.04305   0.01297   0.00000  Uiso   1.00
C323   C     0.70889   0.86869   0.13000   0.00000  Uiso   1.00
C324   C     0.63262   0.88558   0.04706   0.00000  Uiso   1.00
C325   C     0.65527   0.90834   0.95129   0.00000  Uiso   1.00
C326   C     0.57479   0.92095   0.88633   0.00000  Uiso   1.00
C327   C     0.47150   0.94864   0.75297   0.00000  Uiso   1.00
C328   C     0.68924   0.81459   0.14652   0.00000  Uiso   1.00
C329   C     0.75951   0.77767   0.13439   0.00000  Uiso   1.00
C330   C     0.72670   0.73052   0.15317   0.00000  Uiso   1.00
C331   C     0.71134   0.64800   0.17431   0.00000  Uiso   1.00
C332   C     0.67925   0.89351   0.23407   0.00000  Uiso   1.00
C333   C     0.74113   0.92292   0.29558   0.00000  Uiso   1.00
C334   C     0.69992   0.94220   0.38809   0.00000  Uiso   1.00
C335   C     0.66905   0.98221   0.54517   0.00000  Uiso   1.00
C336   C     0.52568   0.85060   0.18493   0.00000  Uiso   1.00
C337   C     0.53310   0.87575   0.07689   0.00000  Uiso   1.00
C338   C     0.45257   0.88833   0.01206   0.00000  Uiso   1.00
C339   C     0.47510   0.91110   0.91622   0.00000  Uiso   1.00
C340   C     0.58973   0.80477   0.17635   0.00000  Uiso   1.00
C341   C     0.55681   0.75766   0.19517   0.00000  Uiso   1.00
C342   C     0.62701   0.72067   0.18306   0.00000  Uiso   1.00
C343   C     0.57974   0.88368   0.26391   0.00000  Uiso   1.00
C344   C     0.53843   0.90291   0.35635   0.00000  Uiso   1.00
C345   C     0.60023   0.93235   0.41798   0.00000  Uiso   1.00
H346   H     0.78637   0.87634   0.10677   0.00000  Uiso   1.00
H347   H     0.73229   0.91594   0.92822   0.00000  Uiso   1.00
H348   H     0.83652   0.78529   0.11131   0.00000  Uiso   1.00
H349   H     0.81814   0.93052   0.27247   0.00000  Uiso   1.00
H350   H     0.62846   0.95549   0.74341   0.00000  Uiso   1.00
H351   H     0.84824   0.68001   0.12949   0.00000  Uiso   1.00
H352   H     0.80948   0.98625   0.46932   0.00000  Uiso   1.00
H353   H     0.44820   0.84295   0.20816   0.00000  Uiso   1.00
H354   H     0.37556   0.88072   0.03517   0.00000  Uiso   1.00
H355   H     0.47980   0.75007   0.21826   0.00000  Uiso   1.00
H356   H     0.46141   0.89530   0.37941   0.00000  Uiso   1.00
H357   H     0.33893   0.92690   0.83021   0.00000  Uiso   1.00
H358   H     0.55871   0.65142   0.21630   0.00000  Uiso   1.00
H359   H     0.51995   0.95767   0.55612   0.00000  Uiso   1.00
O360   O     0.44202   0.96662   0.67117   0.00000  Uiso   1.00
O361   O     0.73037   0.60521   0.17771   0.00000  Uiso   1.00
O362   O     0.67951   0.00700   0.62355   0.00000  Uiso   1.00
N363   N     0.57028   0.94359   0.78759   0.00000  Uiso   1.00
N364   N     0.77576   0.68603   0.14853   0.00000  Uiso   1.00
N365   N     0.73953   0.97233   0.46626   0.00000  Uiso   1.00
N366   N     0.41449   0.92820   0.83430   0.00000  Uiso   1.00
N367   N     0.61997   0.67064   0.19524   0.00000  Uiso   1.00
N368   N     0.58374   0.95695   0.51297   0.00000  Uiso   1.00
