data_job_07093
_audit_creation_date              2018-12-19
_audit_creation_method            'Materials Studio'
_symmetry_space_group_name_H-M    'P1'
_symmetry_Int_Tables_number       1
_symmetry_cell_setting            triclinic
loop_
_symmetry_equiv_pos_as_xyz
  x,y,z
_cell_length_a                    20.7439
_cell_length_b                    22.7708
_cell_length_c                    22.8449
_cell_angle_alpha                 69.3293
_cell_angle_beta                  71.4695
_cell_angle_gamma                 78.0131
loop_
_atom_site_label
_atom_site_type_symbol
_atom_site_fract_x
_atom_site_fract_y
_atom_site_fract_z
_atom_site_U_iso_or_equiv
_atom_site_adp_type
_atom_site_occupancy
C1     C     0.14775   0.19926   0.63155   0.00000  Uiso   1.00
C2     C     0.21366   0.22295   0.62606   0.00000  Uiso   1.00
C3     C     0.25580   0.19516   0.66732   0.00000  Uiso   1.00
C4     C     0.31377   0.22405   0.65410   0.00000  Uiso   1.00
C5     C     0.41378   0.25252   0.65360   0.00000  Uiso   1.00
C6     C     0.09201   0.25422   0.63570   0.00000  Uiso   1.00
C7     C     0.03185   0.25272   0.68506   0.00000  Uiso   1.00
C8     C     0.98741   0.30794   0.67995   0.00000  Uiso   1.00
C9     C     0.89852   0.38495   0.69438   0.00000  Uiso   1.00
C10    C     0.15679   0.18964   0.56653   0.00000  Uiso   1.00
C11    C     0.15109   0.13385   0.55774   0.00000  Uiso   1.00
C12    C     0.16118   0.13470   0.49439   0.00000  Uiso   1.00
C13    C     0.17287   0.11144   0.40143   0.00000  Uiso   1.00
C14    C     0.17578   0.29998   0.53470   0.00000  Uiso   1.00
C15    C     0.22888   0.27766   0.57345   0.00000  Uiso   1.00
C16    C     0.28681   0.30659   0.56016   0.00000  Uiso   1.00
C17    C     0.32902   0.27885   0.60140   0.00000  Uiso   1.00
C18    C     0.10723   0.30893   0.58309   0.00000  Uiso   1.00
C19    C     0.06286   0.36416   0.57790   0.00000  Uiso   1.00
C20    C     0.00266   0.36275   0.62725   0.00000  Uiso   1.00
C21    C     0.17202   0.24435   0.51392   0.00000  Uiso   1.00
C22    C     0.18210   0.24529   0.45058   0.00000  Uiso   1.00
C23    C     0.17642   0.18951   0.44169   0.00000  Uiso   1.00
H24    H     0.13590   0.15667   0.67251   0.00000  Uiso   1.00
H25    H     0.24400   0.15282   0.70804   0.00000  Uiso   1.00
H26    H     0.02008   0.21038   0.72577   0.00000  Uiso   1.00
H27    H     0.13931   0.09152   0.59846   0.00000  Uiso   1.00
H28    H     0.37055   0.17270   0.72423   0.00000  Uiso   1.00
H29    H     0.89840   0.29405   0.76161   0.00000  Uiso   1.00
H30    H     0.14981   0.04342   0.49316   0.00000  Uiso   1.00
H31    H     0.18763   0.34258   0.49374   0.00000  Uiso   1.00
H32    H     0.29858   0.34893   0.51945   0.00000  Uiso   1.00
H33    H     0.07466   0.40649   0.53718   0.00000  Uiso   1.00
H34    H     0.19388   0.28763   0.40988   0.00000  Uiso   1.00
H35    H     0.41484   0.33187   0.57117   0.00000  Uiso   1.00
H36    H     0.94269   0.45322   0.60855   0.00000  Uiso   1.00
H37    H     0.19410   0.20259   0.34010   0.00000  Uiso   1.00
O38    O     0.46473   0.25312   0.66785   0.00000  Uiso   1.00
O39    O     0.84528   0.41232   0.71688   0.00000  Uiso   1.00
O40    O     0.17513   0.08350   0.36469   0.00000  Uiso   1.00
N41    N     0.36575   0.20928   0.68467   0.00000  Uiso   1.00
N42    N     0.92433   0.32274   0.71962   0.00000  Uiso   1.00
N43    N     0.15936   0.08843   0.46865   0.00000  Uiso   1.00
N44    N     0.38959   0.29493   0.60231   0.00000  Uiso   1.00
N45    N     0.94816   0.40839   0.63726   0.00000  Uiso   1.00
N46    N     0.18319   0.17407   0.38628   0.00000  Uiso   1.00
C47    C     0.64913   0.95148   0.24955   0.00000  Uiso   1.00
C48    C     0.67856   0.00873   0.24683   0.00000  Uiso   1.00
C49    C     0.70681   0.05516   0.19077   0.00000  Uiso   1.00
C50    C     0.73095   0.10367   0.19856   0.00000  Uiso   1.00
C51    C     0.77729   0.19225   0.18496   0.00000  Uiso   1.00
C52    C     0.68794   0.89381   0.28751   0.00000  Uiso   1.00
C53    C     0.72407   0.84362   0.26566   0.00000  Uiso   1.00
C54    C     0.75610   0.79539   0.30770   0.00000  Uiso   1.00
C55    C     0.81697   0.70554   0.35727   0.00000  Uiso   1.00
C56    C     0.57583   0.95434   0.29211   0.00000  Uiso   1.00
C57    C     0.51769   0.95503   0.27413   0.00000  Uiso   1.00
C58    C     0.45532   0.95774   0.32004   0.00000  Uiso   1.00
C59    C     0.34212   0.96188   0.37675   0.00000  Uiso   1.00
C60    C     0.64175   0.95505   0.36308   0.00000  Uiso   1.00
C61    C     0.67456   0.01067   0.30849   0.00000  Uiso   1.00
C62    C     0.69865   0.05912   0.31637   0.00000  Uiso   1.00
C63    C     0.72693   0.10562   0.26033   0.00000  Uiso   1.00
C64    C     0.68394   0.89575   0.34917   0.00000  Uiso   1.00
C65    C     0.71592   0.84758   0.39126   0.00000  Uiso   1.00
C66    C     0.75209   0.79734   0.36947   0.00000  Uiso   1.00
C67    C     0.57182   0.95628   0.35377   0.00000  Uiso   1.00
C68    C     0.50953   0.95899   0.39972   0.00000  Uiso   1.00
C69    C     0.45131   0.95969   0.38181   0.00000  Uiso   1.00
H70    H     0.65225   0.94996   0.20155   0.00000  Uiso   1.00
H71    H     0.70990   0.05364   0.14306   0.00000  Uiso   1.00
H72    H     0.72716   0.84213   0.21794   0.00000  Uiso   1.00
H73    H     0.52081   0.95352   0.22641   0.00000  Uiso   1.00
H74    H     0.77209   0.16943   0.10541   0.00000  Uiso   1.00
H75    H     0.80845   0.72344   0.26331   0.00000  Uiso   1.00
H76    H     0.37332   0.95834   0.28116   0.00000  Uiso   1.00
H77    H     0.63864   0.95656   0.41108   0.00000  Uiso   1.00
H78    H     0.69555   0.06061   0.36409   0.00000  Uiso   1.00
H79    H     0.71280   0.84910   0.43897   0.00000  Uiso   1.00
H80    H     0.50645   0.96049   0.44744   0.00000  Uiso   1.00
H81    H     0.76044   0.17509   0.28481   0.00000  Uiso   1.00
H82    H     0.79680   0.72910   0.44271   0.00000  Uiso   1.00
H83    H     0.36167   0.96399   0.46055   0.00000  Uiso   1.00
O84    O     0.80397   0.24057   0.16042   0.00000  Uiso   1.00
O85    O     0.85166   0.65545   0.36757   0.00000  Uiso   1.00
O86    O     0.28078   0.96363   0.39099   0.00000  Uiso   1.00
N87    N     0.76152   0.15649   0.15408   0.00000  Uiso   1.00
N88    N     0.79553   0.73952   0.30170   0.00000  Uiso   1.00
N89    N     0.38872   0.95911   0.31839   0.00000  Uiso   1.00
N90    N     0.75525   0.15953   0.25061   0.00000  Uiso   1.00
N91    N     0.78926   0.74257   0.39823   0.00000  Uiso   1.00
N92    N     0.38245   0.96216   0.41492   0.00000  Uiso   1.00
C93    C     0.24974   0.35107   0.17163   0.00000  Uiso   1.00
C94    C     0.26309   0.37208   0.22278   0.00000  Uiso   1.00
C95    C     0.21404   0.38427   0.27601   0.00000  Uiso   1.00
C96    C     0.23658   0.40299   0.31714   0.00000  Uiso   1.00
C97    C     0.24679   0.43468   0.39832   0.00000  Uiso   1.00
C98    C     0.27762   0.39953   0.10649   0.00000  Uiso   1.00
C99    C     0.24080   0.43480   0.06195   0.00000  Uiso   1.00
C100   C     0.27557   0.47663   0.00519   0.00000  Uiso   1.00
C101   C     0.30836   0.55090   0.90581   0.00000  Uiso   1.00
C102   C     0.29570   0.28954   0.17081   0.00000  Uiso   1.00
C103   C     0.27408   0.23232   0.18034   0.00000  Uiso   1.00
C104   C     0.32408   0.18154   0.17772   0.00000  Uiso   1.00
C105   C     0.38494   0.08503   0.17822   0.00000  Uiso   1.00
C106   C     0.37698   0.36262   0.15001   0.00000  Uiso   1.00
C107   C     0.33220   0.37835   0.21103   0.00000  Uiso   1.00
C108   C     0.35482   0.39705   0.25209   0.00000  Uiso   1.00
C109   C     0.30581   0.40927   0.30538   0.00000  Uiso   1.00
C110   C     0.34673   0.40580   0.09475   0.00000  Uiso   1.00
C111   C     0.38157   0.44758   0.03803   0.00000  Uiso   1.00
C112   C     0.34481   0.48291   0.99342   0.00000  Uiso   1.00
C113   C     0.36481   0.29581   0.15907   0.00000  Uiso   1.00
C114   C     0.41486   0.24510   0.15643   0.00000  Uiso   1.00
C115   C     0.39332   0.18782   0.16595   0.00000  Uiso   1.00
H116   H     0.19593   0.34619   0.18077   0.00000  Uiso   1.00
H117   H     0.16056   0.37942   0.28508   0.00000  Uiso   1.00
H118   H     0.18732   0.42994   0.07105   0.00000  Uiso   1.00
H119   H     0.22060   0.22749   0.18943   0.00000  Uiso   1.00
H120   H     0.15182   0.41905   0.39553   0.00000  Uiso   1.00
H121   H     0.20824   0.52555   0.94423   0.00000  Uiso   1.00
H122   H     0.27842   0.09865   0.19385   0.00000  Uiso   1.00
H123   H     0.43079   0.36750   0.14087   0.00000  Uiso   1.00
H124   H     0.40830   0.40190   0.24299   0.00000  Uiso   1.00
H125   H     0.43505   0.45242   0.02896   0.00000  Uiso   1.00
H126   H     0.46834   0.24997   0.14734   0.00000  Uiso   1.00
H127   H     0.35289   0.43729   0.36137   0.00000  Uiso   1.00
H128   H     0.40931   0.54379   0.91007   0.00000  Uiso   1.00
H129   H     0.47949   0.11690   0.15969   0.00000  Uiso   1.00
O130   O     0.23332   0.45043   0.44633   0.00000  Uiso   1.00
O131   O     0.30734   0.59015   0.85425   0.00000  Uiso   1.00
O132   O     0.39942   0.03007   0.18174   0.00000  Uiso   1.00
N133   N     0.20223   0.41861   0.37348   0.00000  Uiso   1.00
N134   N     0.25497   0.51819   0.95155   0.00000  Uiso   1.00
N135   N     0.32059   0.11908   0.18491   0.00000  Uiso   1.00
N136   N     0.31043   0.42843   0.35510   0.00000  Uiso   1.00
N137   N     0.36317   0.52801   0.93317   0.00000  Uiso   1.00
N138   N     0.42878   0.12889   0.16652   0.00000  Uiso   1.00
C139   C     0.71176   0.04610   0.71586   0.00000  Uiso   1.00
C140   C     0.76316   0.05045   0.74891   0.00000  Uiso   1.00
C141   C     0.81736   0.08712   0.71998   0.00000  Uiso   1.00
C142   C     0.85857   0.08461   0.75844   0.00000  Uiso   1.00
C143   C     0.94029   0.09716   0.79987   0.00000  Uiso   1.00
C144   C     0.64137   0.06383   0.75688   0.00000  Uiso   1.00
C145   C     0.59318   0.11174   0.73465   0.00000  Uiso   1.00
C146   C     0.53186   0.12048   0.77982   0.00000  Uiso   1.00
C147   C     0.42448   0.15376   0.83361   0.00000  Uiso   1.00
C148   C     0.71484   0.97628   0.72386   0.00000  Uiso   1.00
C149   C     0.72839   0.95057   0.67386   0.00000  Uiso   1.00
C150   C     0.72891   0.88560   0.69123   0.00000  Uiso   1.00
C151   C     0.73559   0.78294   0.69375   0.00000  Uiso   1.00
C152   C     0.68857   0.97644   0.83561   0.00000  Uiso   1.00
C153   C     0.75056   0.01262   0.81395   0.00000  Uiso   1.00
C154   C     0.79170   0.01005   0.85246   0.00000  Uiso   1.00
C155   C     0.84596   0.04671   0.82360   0.00000  Uiso   1.00
C156   C     0.62878   0.02600   0.82192   0.00000  Uiso   1.00
C157   C     0.56752   0.03467   0.86713   0.00000  Uiso   1.00
C158   C     0.51924   0.08258   0.84498   0.00000  Uiso   1.00
C159   C     0.70224   0.93844   0.78890   0.00000  Uiso   1.00
C160   C     0.70273   0.87350   0.80635   0.00000  Uiso   1.00
C161   C     0.71629   0.84770   0.75639   0.00000  Uiso   1.00
H162   H     0.72156   0.07555   0.66523   0.00000  Uiso   1.00
H163   H     0.82709   0.11640   0.66965   0.00000  Uiso   1.00
H164   H     0.60294   0.14100   0.68431   0.00000  Uiso   1.00
H165   H     0.73813   0.97986   0.62354   0.00000  Uiso   1.00
H166   H     0.93852   0.14501   0.70324   0.00000  Uiso   1.00
H167   H     0.46587   0.19688   0.73416   0.00000  Uiso   1.00
H168   H     0.75095   0.85708   0.60600   0.00000  Uiso   1.00
H169   H     0.67876   0.94699   0.88625   0.00000  Uiso   1.00
H170   H     0.78194   0.98077   0.90280   0.00000  Uiso   1.00
H171   H     0.55779   0.00538   0.91746   0.00000  Uiso   1.00
H172   H     0.69298   0.84424   0.85668   0.00000  Uiso   1.00
H173   H     0.90187   0.03494   0.89247   0.00000  Uiso   1.00
H174   H     0.42922   0.08681   0.92339   0.00000  Uiso   1.00
H175   H     0.71431   0.74700   0.79523   0.00000  Uiso   1.00
O176   O     0.98883   0.11453   0.80476   0.00000  Uiso   1.00
O177   O     0.36873   0.18258   0.84532   0.00000  Uiso   1.00
O178   O     0.74276   0.73677   0.67717   0.00000  Uiso   1.00
N179   N     0.91574   0.11446   0.74550   0.00000  Uiso   1.00
N180   N     0.47385   0.16296   0.77441   0.00000  Uiso   1.00
N181   N     0.74036   0.84528   0.65459   0.00000  Uiso   1.00
N182   N     0.89602   0.05523   0.84732   0.00000  Uiso   1.00
N183   N     0.45413   0.10373   0.87623   0.00000  Uiso   1.00
N184   N     0.72064   0.78605   0.75641   0.00000  Uiso   1.00
C185   C     0.07422   0.62384   0.61983   0.00000  Uiso   1.00
C186   C     0.09475   0.63434   0.67353   0.00000  Uiso   1.00
C187   C     0.08532   0.59448   0.73694   0.00000  Uiso   1.00
C188   C     0.10762   0.61245   0.77873   0.00000  Uiso   1.00
C189   C     0.13487   0.62025   0.86530   0.00000  Uiso   1.00
C190   C     0.13920   0.62512   0.56442   0.00000  Uiso   1.00
C191   C     0.16713   0.57751   0.53609   0.00000  Uiso   1.00
C192   C     0.22684   0.58772   0.48603   0.00000  Uiso   1.00
C193   C     0.32307   0.58122   0.40317   0.00000  Uiso   1.00
C194   C     0.02734   0.68248   0.59511   0.00000  Uiso   1.00
C195   C     0.96124   0.68311   0.59256   0.00000  Uiso   1.00
C196   C     0.92678   0.74162   0.56831   0.00000  Uiso   1.00
C197   C     0.84933   0.82419   0.53309   0.00000  Uiso   1.00
C198   C     0.13057   0.72663   0.58128   0.00000  Uiso   1.00
C199   C     0.12536   0.69017   0.65259   0.00000  Uiso   1.00
C200   C     0.14767   0.70821   0.69430   0.00000  Uiso   1.00
C201   C     0.13828   0.66838   0.75776   0.00000  Uiso   1.00
C202   C     0.16981   0.68095   0.54349   0.00000  Uiso   1.00
C203   C     0.22948   0.69123   0.49345   0.00000  Uiso   1.00
C204   C     0.25751   0.64365   0.46505   0.00000  Uiso   1.00
C205   C     0.05795   0.73832   0.57417   0.00000  Uiso   1.00
C206   C     0.02359   0.79683   0.54991   0.00000  Uiso   1.00
C207   C     0.95744   0.79755   0.54733   0.00000  Uiso   1.00
H208   H     0.05039   0.58037   0.63612   0.00000  Uiso   1.00
H209   H     0.06164   0.55128   0.75312   0.00000  Uiso   1.00
H210   H     0.14343   0.53431   0.55230   0.00000  Uiso   1.00
H211   H     0.93757   0.63989   0.60876   0.00000  Uiso   1.00
H212   H     0.08763   0.54363   0.87360   0.00000  Uiso   1.00
H213   H     0.26008   0.50786   0.45014   0.00000  Uiso   1.00
H214   H     0.82597   0.73051   0.56920   0.00000  Uiso   1.00
H215   H     0.15441   0.77009   0.56498   0.00000  Uiso   1.00
H216   H     0.17136   0.75142   0.67808   0.00000  Uiso   1.00
H217   H     0.25316   0.73444   0.47726   0.00000  Uiso   1.00
H218   H     0.04729   0.84003   0.53372   0.00000  Uiso   1.00
H219   H     0.17669   0.70607   0.81269   0.00000  Uiso   1.00
H220   H     0.34914   0.67030   0.38923   0.00000  Uiso   1.00
H221   H     0.91503   0.89295   0.50829   0.00000  Uiso   1.00
O222   O     0.14146   0.60913   0.91882   0.00000  Uiso   1.00
O223   O     0.36770   0.56221   0.36326   0.00000  Uiso   1.00
O224   O     0.79816   0.85431   0.51946   0.00000  Uiso   1.00
N225   N     0.10625   0.58443   0.84375   0.00000  Uiso   1.00
N226   N     0.26749   0.55099   0.44785   0.00000  Uiso   1.00
N227   N     0.86164   0.75914   0.55914   0.00000  Uiso   1.00
N228   N     0.15417   0.67184   0.81097   0.00000  Uiso   1.00
N229   N     0.31541   0.63839   0.41507   0.00000  Uiso   1.00
N230   N     0.90956   0.84655   0.52636   0.00000  Uiso   1.00
C231   C     0.74954   0.51609   0.03090   0.00000  Uiso   1.00
C232   C     0.77700   0.56345   0.04778   0.00000  Uiso   1.00
C233   C     0.75060   0.58049   0.10417   0.00000  Uiso   1.00
C234   C     0.78301   0.62463   0.11048   0.00000  Uiso   1.00
C235   C     0.81705   0.69418   0.14408   0.00000  Uiso   1.00
C236   C     0.80947   0.46647   0.01817   0.00000  Uiso   1.00
C237   C     0.81036   0.40197   0.04965   0.00000  Uiso   1.00
C238   C     0.87010   0.36447   0.03102   0.00000  Uiso   1.00
C239   C     0.95453   0.28345   0.01861   0.00000  Uiso   1.00
C240   C     0.73376   0.55129   0.96571   0.00000  Uiso   1.00
C241   C     0.67099   0.55808   0.95308   0.00000  Uiso   1.00
C242   C     0.66700   0.59198   0.89028   0.00000  Uiso   1.00
C243   C     0.63386   0.64265   0.79642   0.00000  Uiso   1.00
C244   C     0.85405   0.56417   0.94184   0.00000  Uiso   1.00
C245   C     0.83377   0.58957   0.99941   0.00000  Uiso   1.00
C246   C     0.86623   0.63369   0.00564   0.00000  Uiso   1.00
C247   C     0.83988   0.65080   0.06202   0.00000  Uiso   1.00
C248   C     0.86624   0.49259   0.96980   0.00000  Uiso   1.00
C249   C     0.92599   0.45517   0.95112   0.00000  Uiso   1.00
C250   C     0.92697   0.39063   0.98257   0.00000  Uiso   1.00
C251   C     0.79052   0.57741   0.91734   0.00000  Uiso   1.00
C252   C     0.78662   0.61129   0.85455   0.00000  Uiso   1.00
C253   C     0.72386   0.61814   0.84182   0.00000  Uiso   1.00
H254   H     0.70535   0.49575   0.06855   0.00000  Uiso   1.00
H255   H     0.70667   0.56026   0.14159   0.00000  Uiso   1.00
H256   H     0.76642   0.38177   0.08707   0.00000  Uiso   1.00
H257   H     0.62708   0.53787   0.99052   0.00000  Uiso   1.00
H258   H     0.73320   0.64329   0.20125   0.00000  Uiso   1.00
H259   H     0.85917   0.26693   0.08628   0.00000  Uiso   1.00
H260   H     0.56533   0.59608   0.88267   0.00000  Uiso   1.00
H261   H     0.89824   0.58451   0.90418   0.00000  Uiso   1.00
H262   H     0.91016   0.65390   0.96820   0.00000  Uiso   1.00
H263   H     0.96991   0.47540   0.91369   0.00000  Uiso   1.00
H264   H     0.83056   0.63150   0.81713   0.00000  Uiso   1.00
H265   H     0.89835   0.71929   0.06052   0.00000  Uiso   1.00
H266   H     0.02433   0.34292   0.94555   0.00000  Uiso   1.00
H267   H     0.73049   0.67207   0.74195   0.00000  Uiso   1.00
O268   O     0.82014   0.72532   0.17597   0.00000  Uiso   1.00
O269   O     0.98541   0.23154   0.02513   0.00000  Uiso   1.00
O270   O     0.59991   0.66339   0.75801   0.00000  Uiso   1.00
N271   N     0.77042   0.65167   0.15934   0.00000  Uiso   1.00
N272   N     0.88821   0.29979   0.05185   0.00000  Uiso   1.00
N273   N     0.61350   0.60750   0.86150   0.00000  Uiso   1.00
N274   N     0.85929   0.69256   0.08361   0.00000  Uiso   1.00
N275   N     0.97707   0.34068   0.97613   0.00000  Uiso   1.00
N276   N     0.70237   0.64839   0.78577   0.00000  Uiso   1.00
C277   C     0.84470   0.47539   0.24914   0.00000  Uiso   1.00
C278   C     0.79604   0.42514   0.27182   0.00000  Uiso   1.00
C279   C     0.72752   0.43639   0.27235   0.00000  Uiso   1.00
C280   C     0.69174   0.38406   0.29491   0.00000  Uiso   1.00
C281   C     0.61137   0.31536   0.32687   0.00000  Uiso   1.00
C282   C     0.90456   0.45843   0.19630   0.00000  Uiso   1.00
C283   C     0.92728   0.49767   0.13334   0.00000  Uiso   1.00
C284   C     0.98285   0.47336   0.09232   0.00000  Uiso   1.00
C285   C     0.07100   0.45636   0.00704   0.00000  Uiso   1.00
C286   C     0.87345   0.46520   0.30610   0.00000  Uiso   1.00
C287   C     0.87004   0.51014   0.33545   0.00000  Uiso   1.00
C288   C     0.89943   0.49153   0.38688   0.00000  Uiso   1.00
C289   C     0.93927   0.48505   0.47208   0.00000  Uiso   1.00
C290   C     0.90299   0.36244   0.28825   0.00000  Uiso   1.00
C291   C     0.82770   0.36379   0.29306   0.00000  Uiso   1.00
C292   C     0.79201   0.31143   0.31563   0.00000  Uiso   1.00
C293   C     0.72345   0.32260   0.31620   0.00000  Uiso   1.00
C294   C     0.93622   0.39708   0.21754   0.00000  Uiso   1.00
C295   C     0.99177   0.37271   0.17661   0.00000  Uiso   1.00
C296   C     0.01457   0.41190   0.11361   0.00000  Uiso   1.00
C297   C     0.90511   0.40385   0.32735   0.00000  Uiso   1.00
C298   C     0.93452   0.38517   0.37873   0.00000  Uiso   1.00
C299   C     0.93115   0.43007   0.40816   0.00000  Uiso   1.00
H300   H     0.82006   0.52315   0.23260   0.00000  Uiso   1.00
H301   H     0.70304   0.48388   0.25590   0.00000  Uiso   1.00
H302   H     0.90278   0.54515   0.11691   0.00000  Uiso   1.00
H303   H     0.84554   0.55761   0.31900   0.00000  Uiso   1.00
H304   H     0.58728   0.41327   0.29109   0.00000  Uiso   1.00
H305   H     0.00844   0.54247   0.99803   0.00000  Uiso   1.00
H306   H     0.88774   0.56876   0.42416   0.00000  Uiso   1.00
H307   H     0.92764   0.31468   0.30479   0.00000  Uiso   1.00
H308   H     0.81652   0.26396   0.33207   0.00000  Uiso   1.00
H309   H     0.01626   0.32523   0.19307   0.00000  Uiso   1.00
H310   H     0.95901   0.33769   0.39516   0.00000  Uiso   1.00
H311   H     0.67938   0.23478   0.35290   0.00000  Uiso   1.00
H312   H     0.10055   0.36398   0.05984   0.00000  Uiso   1.00
H313   H     0.97984   0.39027   0.48597   0.00000  Uiso   1.00
O314   O     0.55830   0.29442   0.33861   0.00000  Uiso   1.00
O315   O     0.11086   0.46393   0.95413   0.00000  Uiso   1.00
O316   O     0.95249   0.49842   0.51321   0.00000  Uiso   1.00
N317   N     0.62420   0.37822   0.30191   0.00000  Uiso   1.00
N318   N     0.01796   0.49902   0.02791   0.00000  Uiso   1.00
N319   N     0.90513   0.52360   0.42630   0.00000  Uiso   1.00
N320   N     0.67376   0.28218   0.33517   0.00000  Uiso   1.00
N321   N     0.06752   0.40297   0.06117   0.00000  Uiso   1.00
N322   N     0.95468   0.42755   0.45956   0.00000  Uiso   1.00
C323   C     0.38192   0.68573   0.66117   0.00000  Uiso   1.00
C324   C     0.36174   0.63027   0.65065   0.00000  Uiso   1.00
C325   C     0.33469   0.57765   0.69918   0.00000  Uiso   1.00
C326   C     0.31957   0.53209   0.67958   0.00000  Uiso   1.00
C327   C     0.28645   0.44495   0.67326   0.00000  Uiso   1.00
C328   C     0.34177   0.74460   0.62644   0.00000  Uiso   1.00
C329   C     0.29793   0.78810   0.65461   0.00000  Uiso   1.00
C330   C     0.26601   0.83878   0.61462   0.00000  Uiso   1.00
C331   C     0.20192   0.92915   0.57070   0.00000  Uiso   1.00
C332   C     0.45682   0.69101   0.62341   0.00000  Uiso   1.00
C333   C     0.50973   0.68947   0.64903   0.00000  Uiso   1.00
C334   C     0.57468   0.69506   0.60648   0.00000  Uiso   1.00
C335   C     0.68923   0.70222   0.55785   0.00000  Uiso   1.00
C336   C     0.40319   0.69840   0.54005   0.00000  Uiso   1.00
C337   C     0.37329   0.63716   0.58486   0.00000  Uiso   1.00
C338   C     0.35822   0.59166   0.56518   0.00000  Uiso   1.00
C339   C     0.33115   0.53898   0.61367   0.00000  Uiso   1.00
C340   C     0.35331   0.75148   0.56066   0.00000  Uiso   1.00
C341   C     0.32146   0.80211   0.52061   0.00000  Uiso   1.00
C342   C     0.27758   0.84567   0.54871   0.00000  Uiso   1.00
C343   C     0.46838   0.69789   0.55762   0.00000  Uiso   1.00
C344   C     0.53326   0.70348   0.51502   0.00000  Uiso   1.00
C345   C     0.58625   0.70195   0.54057   0.00000  Uiso   1.00
H346   H     0.37292   0.68038   0.71239   0.00000  Uiso   1.00
H347   H     0.32575   0.57234   0.75009   0.00000  Uiso   1.00
H348   H     0.28901   0.78276   0.70553   0.00000  Uiso   1.00
H349   H     0.50077   0.68415   0.69994   0.00000  Uiso   1.00
H350   H     0.27852   0.45561   0.76288   0.00000  Uiso   1.00
H351   H     0.20106   0.89930   0.66891   0.00000  Uiso   1.00
H352   H     0.64761   0.69136   0.65713   0.00000  Uiso   1.00
H353   H     0.41218   0.70376   0.48883   0.00000  Uiso   1.00
H354   H     0.36716   0.59700   0.51426   0.00000  Uiso   1.00
H355   H     0.33041   0.80742   0.46970   0.00000  Uiso   1.00
H356   H     0.54218   0.70881   0.46412   0.00000  Uiso   1.00
H357   H     0.31212   0.47563   0.57147   0.00000  Uiso   1.00
H358   H     0.23467   0.91932   0.47750   0.00000  Uiso   1.00
H359   H     0.68122   0.71137   0.46573   0.00000  Uiso   1.00
O360   O     0.26498   0.39498   0.68794   0.00000  Uiso   1.00
O361   O     0.16336   0.97709   0.56465   0.00000  Uiso   1.00
O362   O     0.74922   0.70427   0.54921   0.00000  Uiso   1.00
N363   N     0.29262   0.47497   0.71434   0.00000  Uiso   1.00
N364   N     0.22019   0.88978   0.62648   0.00000  Uiso   1.00
N365   N     0.63767   0.69539   0.61547   0.00000  Uiso   1.00
N366   N     0.31070   0.48574   0.61135   0.00000  Uiso   1.00
N367   N     0.23827   0.90055   0.52349   0.00000  Uiso   1.00
N368   N     0.65576   0.70616   0.51248   0.00000  Uiso   1.00
C369   C     0.73715   0.28364   0.80116   0.00000  Uiso   1.00
C370   C     0.73236   0.27486   0.73956   0.00000  Uiso   1.00
C371   C     0.78251   0.28556   0.68091   0.00000  Uiso   1.00
C372   C     0.76833   0.27477   0.63034   0.00000  Uiso   1.00
C373   C     0.77036   0.26426   0.53351   0.00000  Uiso   1.00
C374   C     0.72526   0.22034   0.85398   0.00000  Uiso   1.00
C375   C     0.76943   0.18519   0.89153   0.00000  Uiso   1.00
C376   C     0.74925   0.12851   0.93729   0.00000  Uiso   1.00
C377   C     0.74022   0.03337   0.01813   0.00000  Uiso   1.00
C378   C     0.67547   0.32955   0.81987   0.00000  Uiso   1.00
C379   C     0.67777   0.38623   0.82876   0.00000  Uiso   1.00
C380   C     0.61567   0.42149   0.84582   0.00000  Uiso   1.00
C381   C     0.52934   0.49592   0.87370   0.00000  Uiso   1.00
C382   C     0.62279   0.24546   0.81566   0.00000  Uiso   1.00
C383   C     0.67024   0.25412   0.74744   0.00000  Uiso   1.00
C384   C     0.65598   0.24332   0.69696   0.00000  Uiso   1.00
C385   C     0.70610   0.25400   0.63823   0.00000  Uiso   1.00
C386   C     0.66314   0.19960   0.86186   0.00000  Uiso   1.00
C387   C     0.64289   0.14295   0.90758   0.00000  Uiso   1.00
C388   C     0.68702   0.10773   0.94518   0.00000  Uiso   1.00
C389   C     0.61335   0.30881   0.82775   0.00000  Uiso   1.00
C390   C     0.55123   0.34399   0.84480   0.00000  Uiso   1.00
C391   C     0.55344   0.40071   0.85371   0.00000  Uiso   1.00
H392   H     0.78551   0.29978   0.79503   0.00000  Uiso   1.00
H393   H     0.83058   0.30160   0.67483   0.00000  Uiso   1.00
H394   H     0.81749   0.20126   0.88543   0.00000  Uiso   1.00
H395   H     0.72585   0.40226   0.82266   0.00000  Uiso   1.00
H396   H     0.85317   0.29445   0.54505   0.00000  Uiso   1.00
H397   H     0.82555   0.08288   0.98912   0.00000  Uiso   1.00
H398   H     0.63230   0.50674   0.85677   0.00000  Uiso   1.00
H399   H     0.57442   0.22931   0.82180   0.00000  Uiso   1.00
H400   H     0.60791   0.22727   0.70307   0.00000  Uiso   1.00
H401   H     0.59482   0.12692   0.91366   0.00000  Uiso   1.00
H402   H     0.50317   0.32793   0.85090   0.00000  Uiso   1.00
H403   H     0.67243   0.23411   0.56797   0.00000  Uiso   1.00
H404   H     0.64482   0.02254   0.01204   0.00000  Uiso   1.00
H405   H     0.45157   0.44640   0.87969   0.00000  Uiso   1.00
O406   O     0.78865   0.26419   0.47793   0.00000  Uiso   1.00
O407   O     0.75241   0.98662   0.06054   0.00000  Uiso   1.00
O408   O     0.49887   0.54271   0.88689   0.00000  Uiso   1.00
N409   N     0.80603   0.28054   0.56674   0.00000  Uiso   1.00
N410   N     0.78022   0.08273   0.98191   0.00000  Uiso   1.00
N411   N     0.59954   0.47900   0.85818   0.00000  Uiso   1.00
N412   N     0.70878   0.24808   0.57907   0.00000  Uiso   1.00
N413   N     0.68297   0.05027   0.99424   0.00000  Uiso   1.00
N414   N     0.50229   0.44653   0.87052   0.00000  Uiso   1.00
C415   C     0.27429   0.72255   0.15043   0.00000  Uiso   1.00
C416   C     0.23239   0.70727   0.11459   0.00000  Uiso   1.00
C417   C     0.16338   0.69893   0.13757   0.00000  Uiso   1.00
C418   C     0.13445   0.68521   0.09745   0.00000  Uiso   1.00
C419   C     0.06351   0.66224   0.05108   0.00000  Uiso   1.00
C420   C     0.33401   0.67071   0.15469   0.00000  Uiso   1.00
C421   C     0.35044   0.63165   0.21139   0.00000  Uiso   1.00
C422   C     0.40705   0.58717   0.20501   0.00000  Uiso   1.00
C423   C     0.49390   0.50748   0.22090   0.00000  Uiso   1.00
C424   C     0.30535   0.78311   0.10517   0.00000  Uiso   1.00
C425   C     0.29770   0.83855   0.12024   0.00000  Uiso   1.00
C426   C     0.33020   0.88870   0.07218   0.00000  Uiso   1.00
C427   C     0.37255   0.98353   0.01118   0.00000  Uiso   1.00
C428   C     0.34563   0.71301   0.03831   0.00000  Uiso   1.00
C429   C     0.27115   0.70209   0.05369   0.00000  Uiso   1.00
C430   C     0.24231   0.68838   0.01352   0.00000  Uiso   1.00
C431   C     0.17327   0.68002   0.03644   0.00000  Uiso   1.00
C432   C     0.37276   0.66553   0.09379   0.00000  Uiso   1.00
C433   C     0.42936   0.62110   0.08734   0.00000  Uiso   1.00
C434   C     0.44587   0.58198   0.14401   0.00000  Uiso   1.00
C435   C     0.34410   0.77794   0.04427   0.00000  Uiso   1.00
C436   C     0.37662   0.82800   0.99619   0.00000  Uiso   1.00
C437   C     0.36902   0.88351   0.01117   0.00000  Uiso   1.00
H438   H     0.24412   0.72657   0.19784   0.00000  Uiso   1.00
H439   H     0.13341   0.70293   0.18471   0.00000  Uiso   1.00
H440   H     0.32044   0.63567   0.25850   0.00000  Uiso   1.00
H441   H     0.26771   0.84254   0.16737   0.00000  Uiso   1.00
H442   H     0.02777   0.67442   0.14329   0.00000  Uiso   1.00
H443   H     0.42214   0.53261   0.29890   0.00000  Uiso   1.00
H444   H     0.31094   0.96883   0.10673   0.00000  Uiso   1.00
H445   H     0.37580   0.70898   0.99089   0.00000  Uiso   1.00
H446   H     0.27231   0.68437   0.96640   0.00000  Uiso   1.00
H447   H     0.45934   0.61711   0.04020   0.00000  Uiso   1.00
H448   H     0.40660   0.82398   0.94907   0.00000  Uiso   1.00
H449   H     0.14050   0.65935   0.96611   0.00000  Uiso   1.00
H450   H     0.53488   0.51754   0.12172   0.00000  Uiso   1.00
H451   H     0.42367   0.95376   0.92954   0.00000  Uiso   1.00
O452   O     0.01368   0.65100   0.04233   0.00000  Uiso   1.00
O453   O     0.53110   0.46495   0.24648   0.00000  Uiso   1.00
O454   O     0.38520   0.03727   0.99435   0.00000  Uiso   1.00
N455   N     0.06850   0.67426   0.10495   0.00000  Uiso   1.00
N456   N     0.43721   0.54167   0.25044   0.00000  Uiso   1.00
N457   N     0.33326   0.94950   0.07077   0.00000  Uiso   1.00
N458   N     0.12916   0.66615   0.00961   0.00000  Uiso   1.00
N459   N     0.49787   0.53356   0.15509   0.00000  Uiso   1.00
N460   N     0.39392   0.94139   0.97543   0.00000  Uiso   1.00
C461   C     0.95601   0.07947   0.30251   0.00000  Uiso   1.00
C462   C     0.93590   0.06958   0.24826   0.00000  Uiso   1.00
C463   C     0.94695   0.10921   0.18467   0.00000  Uiso   1.00
C464   C     0.92478   0.09190   0.14236   0.00000  Uiso   1.00
C465   C     0.89841   0.08493   0.05499   0.00000  Uiso   1.00
C466   C     0.89042   0.07958   0.35702   0.00000  Uiso   1.00
C467   C     0.86324   0.12761   0.38487   0.00000  Uiso   1.00
C468   C     0.80278   0.11872   0.43413   0.00000  Uiso   1.00
C469   C     0.70582   0.12725   0.51564   0.00000  Uiso   1.00
C470   C     0.00123   0.01990   0.32827   0.00000  Uiso   1.00
C471   C     0.06722   0.01774   0.33198   0.00000  Uiso   1.00
C472   C     0.10005   0.95860   0.35705   0.00000  Uiso   1.00
C473   C     0.17515   0.87447   0.39394   0.00000  Uiso   1.00
C474   C     0.89697   0.97828   0.34046   0.00000  Uiso   1.00
C475   C     0.90383   0.01462   0.26887   0.00000  Uiso   1.00
C476   C     0.88164   0.99725   0.22665   0.00000  Uiso   1.00
C477   C     0.89266   0.03684   0.16301   0.00000  Uiso   1.00
C478   C     0.85835   0.02462   0.37763   0.00000  Uiso   1.00
C479   C     0.79792   0.01565   0.42686   0.00000  Uiso   1.00
C480   C     0.77065   0.06366   0.45478   0.00000  Uiso   1.00
C481   C     0.96917   0.96493   0.34888   0.00000  Uiso   1.00
C482   C     0.00190   0.90579   0.37396   0.00000  Uiso   1.00
C483   C     0.06793   0.90354   0.37770   0.00000  Uiso   1.00
H484   H     0.98097   0.12226   0.28647   0.00000  Uiso   1.00
H485   H     0.97176   0.15174   0.16873   0.00000  Uiso   1.00
H486   H     0.88807   0.17013   0.36892   0.00000  Uiso   1.00
H487   H     0.09201   0.06029   0.31603   0.00000  Uiso   1.00
H488   H     0.94740   0.16020   0.04730   0.00000  Uiso   1.00
H489   H     0.77093   0.19898   0.46941   0.00000  Uiso   1.00
H490   H     0.20100   0.96734   0.35789   0.00000  Uiso   1.00
H491   H     0.87200   0.93548   0.35651   0.00000  Uiso   1.00
H492   H     0.85683   0.95471   0.24261   0.00000  Uiso   1.00
H493   H     0.77312   0.97311   0.44280   0.00000  Uiso   1.00
H494   H     0.97707   0.86326   0.38991   0.00000  Uiso   1.00
H495   H     0.85411   0.00029   0.10726   0.00000  Uiso   1.00
H496   H     0.67764   0.03906   0.52938   0.00000  Uiso   1.00
H497   H     0.10770   0.80743   0.41785   0.00000  Uiso   1.00
O498   O     0.89271   0.09628   0.00110   0.00000  Uiso   1.00
O499   O     0.66120   0.14714   0.55490   0.00000  Uiso   1.00
O500   O     0.22544   0.84324   0.40858   0.00000  Uiso   1.00
N501   N     0.92754   0.11992   0.07704   0.00000  Uiso   1.00
N502   N     0.76254   0.15618   0.47168   0.00000  Uiso   1.00
N503   N     0.16461   0.93962   0.36743   0.00000  Uiso   1.00
N504   N     0.87734   0.03387   0.10931   0.00000  Uiso   1.00
N505   N     0.71234   0.07013   0.50395   0.00000  Uiso   1.00
N506   N     0.11441   0.85357   0.39970   0.00000  Uiso   1.00
C507   C     0.21303   0.13953   0.86316   0.00000  Uiso   1.00
C508   C     0.19146   0.08671   0.84940   0.00000  Uiso   1.00
C509   C     0.23319   0.05095   0.81063   0.00000  Uiso   1.00
C510   C     0.20381   0.00487   0.80413   0.00000  Uiso   1.00
C511   C     0.18076   0.92439   0.77798   0.00000  Uiso   1.00
C512   C     0.16391   0.19788   0.84258   0.00000  Uiso   1.00
C513   C     0.18248   0.25557   0.79810   0.00000  Uiso   1.00
C514   C     0.12991   0.30307   0.78587   0.00000  Uiso   1.00
C515   C     0.06409   0.39519   0.74918   0.00000  Uiso   1.00
C516   C     0.19710   0.12151   0.93683   0.00000  Uiso   1.00
C517   C     0.24356   0.11502   0.97160   0.00000  Uiso   1.00
C518   C     0.21892   0.09824   0.03872   0.00000  Uiso   1.00
C519   C     0.20463   0.07179   0.14837   0.00000  Uiso   1.00
C520   C     0.08664   0.12130   0.92055   0.00000  Uiso   1.00
C521   C     0.12281   0.07682   0.88057   0.00000  Uiso   1.00
C522   C     0.09336   0.03078   0.87412   0.00000  Uiso   1.00
C523   C     0.13504   0.99495   0.83536   0.00000  Uiso   1.00
C524   C     0.09527   0.18798   0.87375   0.00000  Uiso   1.00
C525   C     0.04265   0.23540   0.86159   0.00000  Uiso   1.00
C526   C     0.06114   0.29316   0.81709   0.00000  Uiso   1.00
C527   C     0.12845   0.11161   0.96801   0.00000  Uiso   1.00
C528   C     0.10373   0.09485   0.03509   0.00000  Uiso   1.00
C529   C     0.15015   0.08833   0.06994   0.00000  Uiso   1.00
H530   H     0.26647   0.14724   0.83890   0.00000  Uiso   1.00
H531   H     0.28631   0.05863   0.78651   0.00000  Uiso   1.00
H532   H     0.23561   0.26322   0.77399   0.00000  Uiso   1.00
H533   H     0.29668   0.12269   0.94746   0.00000  Uiso   1.00
H534   H     0.27803   0.95604   0.74216   0.00000  Uiso   1.00
H535   H     0.17112   0.38744   0.71577   0.00000  Uiso   1.00
H536   H     0.29990   0.09109   0.08157   0.00000  Uiso   1.00
H537   H     0.03320   0.11359   0.94482   0.00000  Uiso   1.00
H538   H     0.04024   0.02313   0.89825   0.00000  Uiso   1.00
H539   H     0.98954   0.22772   0.88572   0.00000  Uiso   1.00
H540   H     0.05061   0.08719   0.05919   0.00000  Uiso   1.00
H541   H     0.07830   0.92722   0.83285   0.00000  Uiso   1.00
H542   H     0.97140   0.35863   0.80645   0.00000  Uiso   1.00
H543   H     0.10018   0.06228   0.17225   0.00000  Uiso   1.00
O544   O     0.18700   0.88274   0.75494   0.00000  Uiso   1.00
O545   O     0.04675   0.44873   0.72032   0.00000  Uiso   1.00
O546   O     0.21571   0.05993   0.20024   0.00000  Uiso   1.00
N547   N     0.23006   0.96166   0.76991   0.00000  Uiso   1.00
N548   N     0.13011   0.36499   0.74522   0.00000  Uiso   1.00
N549   N     0.25051   0.08795   0.08721   0.00000  Uiso   1.00
N550   N     0.12259   0.94616   0.81871   0.00000  Uiso   1.00
N551   N     0.02264   0.34949   0.79402   0.00000  Uiso   1.00
N552   N     0.14304   0.07245   0.13601   0.00000  Uiso   1.00
