data_job_06503
_audit_creation_date              2018-12-19
_audit_creation_method            'Materials Studio'
_symmetry_space_group_name_H-M    'P1'
_symmetry_Int_Tables_number       1
_symmetry_cell_setting            triclinic
loop_
_symmetry_equiv_pos_as_xyz
  x,y,z
_cell_length_a                    24.1205
_cell_length_b                    18.4954
_cell_length_c                    21.9078
_cell_angle_alpha                 110.6740
_cell_angle_beta                  110.1300
_cell_angle_gamma                 101.0590
loop_
_atom_site_label
_atom_site_type_symbol
_atom_site_fract_x
_atom_site_fract_y
_atom_site_fract_z
_atom_site_U_iso_or_equiv
_atom_site_adp_type
_atom_site_occupancy
C1     C     0.60717   0.60689   0.34716   0.00000  Uiso   1.00
C2     C     0.61347   0.62938   0.28865   0.00000  Uiso   1.00
C3     C     0.60471   0.69775   0.27993   0.00000  Uiso   1.00
C4     C     0.61263   0.70740   0.22307   0.00000  Uiso   1.00
C5     C     0.61993   0.75092   0.13926   0.00000  Uiso   1.00
C6     C     0.55834   0.51946   0.30649   0.00000  Uiso   1.00
C7     C     0.50324   0.49542   0.31278   0.00000  Uiso   1.00
C8     C     0.46476   0.41254   0.27096   0.00000  Uiso   1.00
C9     C     0.38650   0.28541   0.21489   0.00000  Uiso   1.00
C10    C     0.67002   0.60024   0.38777   0.00000  Uiso   1.00
C11    C     0.70881   0.64411   0.46240   0.00000  Uiso   1.00
C12    C     0.76436   0.62923   0.48901   0.00000  Uiso   1.00
C13    C     0.85950   0.62753   0.55913   0.00000  Uiso   1.00
C14    C     0.63684   0.50244   0.26170   0.00000  Uiso   1.00
C15    C     0.62958   0.57264   0.24223   0.00000  Uiso   1.00
C16    C     0.63753   0.58219   0.18538   0.00000  Uiso   1.00
C17    C     0.62878   0.65057   0.17657   0.00000  Uiso   1.00
C18    C     0.57446   0.46273   0.26008   0.00000  Uiso   1.00
C19    C     0.53606   0.37986   0.21824   0.00000  Uiso   1.00
C20    C     0.48090   0.35571   0.22446   0.00000  Uiso   1.00
C21    C     0.68614   0.54351   0.34136   0.00000  Uiso   1.00
C22    C     0.74163   0.52855   0.36785   0.00000  Uiso   1.00
C23    C     0.78050   0.57239   0.44251   0.00000  Uiso   1.00
H24    H     0.59463   0.65105   0.38330   0.00000  Uiso   1.00
H25    H     0.59223   0.74164   0.31585   0.00000  Uiso   1.00
H26    H     0.49078   0.53934   0.34871   0.00000  Uiso   1.00
H27    H     0.69633   0.68801   0.49830   0.00000  Uiso   1.00
H28    H     0.59666   0.81703   0.22060   0.00000  Uiso   1.00
H29    H     0.38276   0.39047   0.28990   0.00000  Uiso   1.00
H30    H     0.81619   0.70397   0.60535   0.00000  Uiso   1.00
H31    H     0.64938   0.45826   0.22557   0.00000  Uiso   1.00
H32    H     0.65000   0.53827   0.14947   0.00000  Uiso   1.00
H33    H     0.54854   0.33598   0.18233   0.00000  Uiso   1.00
H34    H     0.75409   0.48464   0.33192   0.00000  Uiso   1.00
H35    H     0.64354   0.65197   0.08555   0.00000  Uiso   1.00
H36    H     0.42964   0.22541   0.15485   0.00000  Uiso   1.00
H37    H     0.86307   0.53891   0.47030   0.00000  Uiso   1.00
O38    O     0.61949   0.79059   0.10584   0.00000  Uiso   1.00
O39    O     0.33887   0.23097   0.19678   0.00000  Uiso   1.00
O40    O     0.90752   0.64227   0.61063   0.00000  Uiso   1.00
N41    N     0.60762   0.76721   0.19926   0.00000  Uiso   1.00
N42    N     0.40763   0.36841   0.26405   0.00000  Uiso   1.00
N43    N     0.81285   0.66148   0.55897   0.00000  Uiso   1.00
N44    N     0.63285   0.67840   0.12660   0.00000  Uiso   1.00
N45    N     0.43286   0.27959   0.19138   0.00000  Uiso   1.00
N46    N     0.83807   0.57267   0.48630   0.00000  Uiso   1.00
C47    C     0.23389   0.65572   0.56690   0.00000  Uiso   1.00
C48    C     0.17582   0.64088   0.58055   0.00000  Uiso   1.00
C49    C     0.16760   0.60838   0.62637   0.00000  Uiso   1.00
C50    C     0.11109   0.59963   0.63141   0.00000  Uiso   1.00
C51    C     0.02799   0.57307   0.65857   0.00000  Uiso   1.00
C52    C     0.20981   0.60812   0.48460   0.00000  Uiso   1.00
C53    C     0.23018   0.54807   0.44975   0.00000  Uiso   1.00
C54    C     0.20229   0.51175   0.37402   0.00000  Uiso   1.00
C55    C     0.17200   0.43437   0.25222   0.00000  Uiso   1.00
C56    C     0.25728   0.74710   0.58583   0.00000  Uiso   1.00
C57    C     0.31758   0.80392   0.63610   0.00000  Uiso   1.00
C58    C     0.32966   0.88462   0.64559   0.00000  Uiso   1.00
C59    C     0.37308   0.02302   0.68098   0.00000  Uiso   1.00
C60    C     0.14816   0.69798   0.49436   0.00000  Uiso   1.00
C61    C     0.12925   0.66384   0.54115   0.00000  Uiso   1.00
C62    C     0.07275   0.65514   0.54612   0.00000  Uiso   1.00
C63    C     0.06444   0.62263   0.59195   0.00000  Uiso   1.00
C64    C     0.16325   0.63107   0.44520   0.00000  Uiso   1.00
C65    C     0.13533   0.59484   0.36951   0.00000  Uiso   1.00
C66    C     0.15564   0.53475   0.33455   0.00000  Uiso   1.00
C67    C     0.21072   0.77006   0.54644   0.00000  Uiso   1.00
C68    C     0.22272   0.85068   0.55585   0.00000  Uiso   1.00
C69    C     0.28301   0.90761   0.60612   0.00000  Uiso   1.00
H70    H     0.27014   0.63784   0.59756   0.00000  Uiso   1.00
H71    H     0.20364   0.59062   0.65684   0.00000  Uiso   1.00
H72    H     0.26622   0.53033   0.48026   0.00000  Uiso   1.00
H73    H     0.35360   0.78613   0.66657   0.00000  Uiso   1.00
H74    H     0.10937   0.54835   0.70517   0.00000  Uiso   1.00
H75    H     0.24133   0.42125   0.33283   0.00000  Uiso   1.00
H76    H     0.42559   0.96067   0.72571   0.00000  Uiso   1.00
H77    H     0.11190   0.71585   0.46369   0.00000  Uiso   1.00
H78    H     0.03672   0.67291   0.51563   0.00000  Uiso   1.00
H79    H     0.09929   0.61262   0.33904   0.00000  Uiso   1.00
H80    H     0.18667   0.86842   0.52536   0.00000  Uiso   1.00
H81    H     0.97389   0.61514   0.59055   0.00000  Uiso   1.00
H82    H     0.10585   0.48804   0.21821   0.00000  Uiso   1.00
H83    H     0.29011   0.02746   0.61109   0.00000  Uiso   1.00
O84    O     0.99502   0.55207   0.68443   0.00000  Uiso   1.00
O85    O     0.16815   0.38533   0.19592   0.00000  Uiso   1.00
O86    O     0.40989   0.09303   0.71138   0.00000  Uiso   1.00
N87    N     0.08781   0.56998   0.67108   0.00000  Uiso   1.00
N88    N     0.21117   0.45114   0.32296   0.00000  Uiso   1.00
N89    N     0.38345   0.95544   0.69026   0.00000  Uiso   1.00
N90    N     0.01491   0.60592   0.60941   0.00000  Uiso   1.00
N91    N     0.13827   0.48708   0.26128   0.00000  Uiso   1.00
N92    N     0.31055   0.99138   0.62859   0.00000  Uiso   1.00
C93    C     0.62104   0.38342   0.64318   0.00000  Uiso   1.00
C94    C     0.63582   0.30407   0.62505   0.00000  Uiso   1.00
C95    C     0.68835   0.29423   0.61554   0.00000  Uiso   1.00
C96    C     0.69327   0.21676   0.59920   0.00000  Uiso   1.00
C97    C     0.72320   0.10345   0.57202   0.00000  Uiso   1.00
C98    C     0.55564   0.36105   0.58319   0.00000  Uiso   1.00
C99    C     0.54077   0.39913   0.53849   0.00000  Uiso   1.00
C100   C     0.47819   0.36963   0.48690   0.00000  Uiso   1.00
C101   C     0.38364   0.34484   0.39476   0.00000  Uiso   1.00
C102   C     0.61361   0.40284   0.71299   0.00000  Uiso   1.00
C103   C     0.64747   0.47607   0.77742   0.00000  Uiso   1.00
C104   C     0.63369   0.48176   0.83511   0.00000  Uiso   1.00
C105   C     0.62914   0.52185   0.94450   0.00000  Uiso   1.00
C106   C     0.53634   0.26332   0.63106   0.00000  Uiso   1.00
C107   C     0.58981   0.23883   0.61847   0.00000  Uiso   1.00
C108   C     0.59465   0.16135   0.60214   0.00000  Uiso   1.00
C109   C     0.64718   0.15140   0.59261   0.00000  Uiso   1.00
C110   C     0.50964   0.29582   0.57661   0.00000  Uiso   1.00
C111   C     0.44706   0.26626   0.52508   0.00000  Uiso   1.00
C112   C     0.43210   0.30428   0.48031   0.00000  Uiso   1.00
C113   C     0.56761   0.33761   0.70641   0.00000  Uiso   1.00
C114   C     0.55376   0.34319   0.76401   0.00000  Uiso   1.00
C115   C     0.58760   0.41641   0.82851   0.00000  Uiso   1.00
H116   H     0.65685   0.43421   0.64830   0.00000  Uiso   1.00
H117   H     0.72394   0.34473   0.62063   0.00000  Uiso   1.00
H118   H     0.57638   0.44962   0.54360   0.00000  Uiso   1.00
H119   H     0.68307   0.52654   0.78249   0.00000  Uiso   1.00
H120   H     0.77803   0.21674   0.58703   0.00000  Uiso   1.00
H121   H     0.46688   0.43793   0.42461   0.00000  Uiso   1.00
H122   H     0.69185   0.60014   0.92836   0.00000  Uiso   1.00
H123   H     0.50052   0.21253   0.62594   0.00000  Uiso   1.00
H124   H     0.55904   0.11088   0.59705   0.00000  Uiso   1.00
H125   H     0.41147   0.21578   0.52001   0.00000  Uiso   1.00
H126   H     0.51816   0.29270   0.75890   0.00000  Uiso   1.00
H127   H     0.64418   0.02695   0.56788   0.00000  Uiso   1.00
H128   H     0.33303   0.24814   0.40546   0.00000  Uiso   1.00
H129   H     0.55800   0.41034   0.90921   0.00000  Uiso   1.00
O130   O     0.75241   0.05897   0.55883   0.00000  Uiso   1.00
O131   O     0.34419   0.34918   0.34575   0.00000  Uiso   1.00
O132   O     0.63935   0.56198   0.00666   0.00000  Uiso   1.00
N133   N     0.73850   0.18603   0.58651   0.00000  Uiso   1.00
N134   N     0.44760   0.39282   0.43464   0.00000  Uiso   1.00
N135   N     0.65791   0.54447   0.90560   0.00000  Uiso   1.00
N136   N     0.66648   0.08390   0.57620   0.00000  Uiso   1.00
N137   N     0.37558   0.29069   0.42434   0.00000  Uiso   1.00
N138   N     0.58589   0.44235   0.89530   0.00000  Uiso   1.00
C139   C     0.11156   0.89675   0.05915   0.00000  Uiso   1.00
C140   C     0.11239   0.83007   0.08473   0.00000  Uiso   1.00
C141   C     0.10316   0.83154   0.14422   0.00000  Uiso   1.00
C142   C     0.10571   0.76461   0.15864   0.00000  Uiso   1.00
C143   C     0.10524   0.67109   0.20497   0.00000  Uiso   1.00
C144   C     0.06170   0.85315   0.97963   0.00000  Uiso   1.00
C145   C     0.00986   0.87402   0.95074   0.00000  Uiso   1.00
C146   C     0.96975   0.82652   0.87667   0.00000  Uiso   1.00
C147   C     0.89061   0.76886   0.75982   0.00000  Uiso   1.00
C148   C     0.17493   0.92380   0.05812   0.00000  Uiso   1.00
C149   C     0.21829   0.00408   0.09523   0.00000  Uiso   1.00
C150   C     0.27350   0.01607   0.08723   0.00000  Uiso   1.00
C151   C     0.37016   0.06810   0.09225   0.00000  Uiso   1.00
C152   C     0.13250   0.77529   0.97896   0.00000  Uiso   1.00
C153   C     0.12377   0.76410   0.04117   0.00000  Uiso   1.00
C154   C     0.12633   0.69715   0.05550   0.00000  Uiso   1.00
C155   C     0.11711   0.69852   0.11500   0.00000  Uiso   1.00
C156   C     0.07308   0.78717   0.93607   0.00000  Uiso   1.00
C157   C     0.03303   0.73964   0.86202   0.00000  Uiso   1.00
C158   C     0.98114   0.76043   0.83304   0.00000  Uiso   1.00
C159   C     0.18631   0.85782   0.01457   0.00000  Uiso   1.00
C160   C     0.24146   0.86969   0.00651   0.00000  Uiso   1.00
C161   C     0.28489   0.94997   0.04360   0.00000  Uiso   1.00
H162   H     0.10270   0.94812   0.09305   0.00000  Uiso   1.00
H163   H     0.09436   0.88260   0.17791   0.00000  Uiso   1.00
H164   H     0.00108   0.92508   0.98446   0.00000  Uiso   1.00
H165   H     0.20947   0.05512   0.12893   0.00000  Uiso   1.00
H166   H     0.09010   0.78086   0.25277   0.00000  Uiso   1.00
H167   H     0.89342   0.87045   0.84487   0.00000  Uiso   1.00
H168   H     0.33286   0.14466   0.14949   0.00000  Uiso   1.00
H169   H     0.14136   0.72392   0.94504   0.00000  Uiso   1.00
H170   H     0.13514   0.64611   0.02179   0.00000  Uiso   1.00
H171   H     0.04185   0.68859   0.82834   0.00000  Uiso   1.00
H172   H     0.25024   0.81862   0.97280   0.00000  Uiso   1.00
H173   H     0.12319   0.58891   0.12605   0.00000  Uiso   1.00
H174   H     0.92651   0.67850   0.71814   0.00000  Uiso   1.00
H175   H     0.36595   0.95271   0.02278   0.00000  Uiso   1.00
O176   O     0.10183   0.63772   0.24255   0.00000  Uiso   1.00
O177   O     0.84381   0.75528   0.70739   0.00000  Uiso   1.00
O178   O     0.42034   0.11503   0.10706   0.00000  Uiso   1.00
N179   N     0.09875   0.74637   0.21242   0.00000  Uiso   1.00
N180   N     0.91486   0.83012   0.83106   0.00000  Uiso   1.00
N181   N     0.32569   0.08649   0.11585   0.00000  Uiso   1.00
N182   N     0.11656   0.64308   0.14424   0.00000  Uiso   1.00
N183   N     0.93267   0.72684   0.76287   0.00000  Uiso   1.00
N184   N     0.34350   0.98320   0.04766   0.00000  Uiso   1.00
C185   C     0.86720   0.13253   0.18530   0.00000  Uiso   1.00
C186   C     0.82598   0.18546   0.18876   0.00000  Uiso   1.00
C187   C     0.82734   0.24744   0.16698   0.00000  Uiso   1.00
C188   C     0.78588   0.28871   0.17451   0.00000  Uiso   1.00
C189   C     0.72814   0.37392   0.17555   0.00000  Uiso   1.00
C190   C     0.82178   0.04292   0.14009   0.00000  Uiso   1.00
C191   C     0.81961   0.98506   0.07739   0.00000  Uiso   1.00
C192   C     0.77462   0.90634   0.04396   0.00000  Uiso   1.00
C193   C     0.71038   0.77024   0.96947   0.00000  Uiso   1.00
C194   C     0.90171   0.14390   0.26275   0.00000  Uiso   1.00
C195   C     0.96676   0.17091   0.30318   0.00000  Uiso   1.00
C196   C     0.98907   0.17719   0.37302   0.00000  Uiso   1.00
C197   C     0.04895   0.19787   0.48898   0.00000  Uiso   1.00
C198   C     0.79114   0.09560   0.23743   0.00000  Uiso   1.00
C199   C     0.78467   0.16540   0.21708   0.00000  Uiso   1.00
C200   C     0.74320   0.20659   0.22465   0.00000  Uiso   1.00
C201   C     0.74450   0.26863   0.20288   0.00000  Uiso   1.00
C202   C     0.78047   0.02286   0.16840   0.00000  Uiso   1.00
C203   C     0.73547   0.94421   0.13506   0.00000  Uiso   1.00
C204   C     0.73323   0.88625   0.07233   0.00000  Uiso   1.00
C205   C     0.86040   0.12384   0.29107   0.00000  Uiso   1.00
C206   C     0.88262   0.13007   0.36086   0.00000  Uiso   1.00
C207   C     0.94768   0.15710   0.40138   0.00000  Uiso   1.00
H208   H     0.89935   0.14814   0.16325   0.00000  Uiso   1.00
H209   H     0.85931   0.26294   0.14506   0.00000  Uiso   1.00
H210   H     0.85159   0.00060   0.05550   0.00000  Uiso   1.00
H211   H     0.99871   0.18643   0.28125   0.00000  Uiso   1.00
H212   H     0.79668   0.38135   0.13736   0.00000  Uiso   1.00
H213   H     0.78041   0.82818   0.94852   0.00000  Uiso   1.00
H214   H     0.09065   0.22004   0.42457   0.00000  Uiso   1.00
H215   H     0.75898   0.07999   0.25947   0.00000  Uiso   1.00
H216   H     0.71124   0.19106   0.24656   0.00000  Uiso   1.00
H217   H     0.70351   0.92871   0.15699   0.00000  Uiso   1.00
H218   H     0.85064   0.11454   0.38275   0.00000  Uiso   1.00
H219   H     0.67650   0.32301   0.21973   0.00000  Uiso   1.00
H220   H     0.66023   0.76984   0.03089   0.00000  Uiso   1.00
H221   H     0.97047   0.16170   0.50694   0.00000  Uiso   1.00
O222   O     0.70770   0.42646   0.16829   0.00000  Uiso   1.00
O223   O     0.68636   0.70072   0.92055   0.00000  Uiso   1.00
O224   O     0.09339   0.21483   0.54512   0.00000  Uiso   1.00
N225   N     0.77496   0.35239   0.15853   0.00000  Uiso   1.00
N226   N     0.75974   0.83521   0.98197   0.00000  Uiso   1.00
N227   N     0.04979   0.20155   0.42703   0.00000  Uiso   1.00
N228   N     0.71029   0.32100   0.20286   0.00000  Uiso   1.00
N229   N     0.69507   0.80382   0.02630   0.00000  Uiso   1.00
N230   N     0.98512   0.17015   0.47136   0.00000  Uiso   1.00
C231   C     0.05709   0.10309   0.80551   0.00000  Uiso   1.00
C232   C     0.08886   0.11195   0.75788   0.00000  Uiso   1.00
C233   C     0.13643   0.08261   0.75153   0.00000  Uiso   1.00
C234   C     0.15925   0.09695   0.70511   0.00000  Uiso   1.00
C235   C     0.21219   0.10426   0.63701   0.00000  Uiso   1.00
C236   C     0.98650   0.05990   0.75440   0.00000  Uiso   1.00
C237   C     0.94800   0.98680   0.74514   0.00000  Uiso   1.00
C238   C     0.88466   0.95734   0.69580   0.00000  Uiso   1.00
C239   C     0.77867   0.88387   0.62234   0.00000  Uiso   1.00
C240   C     0.06573   0.19062   0.85547   0.00000  Uiso   1.00
C241   C     0.09383   0.22743   0.93119   0.00000  Uiso   1.00
C242   C     0.09718   0.30803   0.96694   0.00000  Uiso   1.00
C243   C     0.11421   0.43753   0.05041   0.00000  Uiso   1.00
C244   C     0.01304   0.18075   0.73437   0.00000  Uiso   1.00
C245   C     0.06493   0.15413   0.71924   0.00000  Uiso   1.00
C246   C     0.08769   0.16853   0.67282   0.00000  Uiso   1.00
C247   C     0.13528   0.13922   0.66640   0.00000  Uiso   1.00
C248   C     0.96257   0.10208   0.71576   0.00000  Uiso   1.00
C249   C     0.89927   0.07273   0.66643   0.00000  Uiso   1.00
C250   C     0.86069   0.99960   0.65709   0.00000  Uiso   1.00
C251   C     0.04180   0.23281   0.81684   0.00000  Uiso   1.00
C252   C     0.04510   0.31336   0.85248   0.00000  Uiso   1.00
C253   C     0.07321   0.35029   0.92823   0.00000  Uiso   1.00
H254   H     0.07571   0.07024   0.83559   0.00000  Uiso   1.00
H255   H     0.15493   0.04996   0.78143   0.00000  Uiso   1.00
H256   H     0.96653   0.95418   0.77505   0.00000  Uiso   1.00
H257   H     0.11234   0.19477   0.96107   0.00000  Uiso   1.00
H258   H     0.23218   0.04604   0.70433   0.00000  Uiso   1.00
H259   H     0.83493   0.84410   0.69089   0.00000  Uiso   1.00
H260   H     0.14240   0.35143   0.08316   0.00000  Uiso   1.00
H261   H     0.99441   0.21359   0.70428   0.00000  Uiso   1.00
H262   H     0.06916   0.20118   0.64292   0.00000  Uiso   1.00
H263   H     0.88077   0.10539   0.63654   0.00000  Uiso   1.00
H264   H     0.02658   0.34599   0.82256   0.00000  Uiso   1.00
H265   H     0.16257   0.16878   0.59191   0.00000  Uiso   1.00
H266   H     0.76532   0.96683   0.57848   0.00000  Uiso   1.00
H267   H     0.07279   0.47417   0.97074   0.00000  Uiso   1.00
O268   O     0.24800   0.09663   0.61011   0.00000  Uiso   1.00
O269   O     0.72683   0.83169   0.59249   0.00000  Uiso   1.00
O270   O     0.13022   0.49731   0.10713   0.00000  Uiso   1.00
N271   N     0.20555   0.07665   0.68631   0.00000  Uiso   1.00
N272   N     0.83414   0.88783   0.67373   0.00000  Uiso   1.00
N273   N     0.12159   0.36214   0.04047   0.00000  Uiso   1.00
N274   N     0.16809   0.14269   0.62581   0.00000  Uiso   1.00
N275   N     0.79669   0.95387   0.61324   0.00000  Uiso   1.00
N276   N     0.08413   0.42818   0.97997   0.00000  Uiso   1.00
C277   C     0.39283   0.39311   0.65284   0.00000  Uiso   1.00
C278   C     0.38653   0.37062   0.71135   0.00000  Uiso   1.00
C279   C     0.39529   0.30225   0.72007   0.00000  Uiso   1.00
C280   C     0.38737   0.29260   0.77693   0.00000  Uiso   1.00
C281   C     0.38007   0.24908   0.86074   0.00000  Uiso   1.00
C282   C     0.44166   0.48054   0.69351   0.00000  Uiso   1.00
C283   C     0.49676   0.50458   0.68722   0.00000  Uiso   1.00
C284   C     0.53524   0.58746   0.72904   0.00000  Uiso   1.00
C285   C     0.61350   0.71459   0.78511   0.00000  Uiso   1.00
C286   C     0.32998   0.39976   0.61223   0.00000  Uiso   1.00
C287   C     0.29119   0.35589   0.53760   0.00000  Uiso   1.00
C288   C     0.23564   0.37077   0.51099   0.00000  Uiso   1.00
C289   C     0.14050   0.37247   0.44087   0.00000  Uiso   1.00
C290   C     0.36316   0.49756   0.73830   0.00000  Uiso   1.00
C291   C     0.37042   0.42736   0.75777   0.00000  Uiso   1.00
C292   C     0.36247   0.41781   0.81462   0.00000  Uiso   1.00
C293   C     0.37122   0.34943   0.82343   0.00000  Uiso   1.00
C294   C     0.42554   0.53727   0.73992   0.00000  Uiso   1.00
C295   C     0.46394   0.62014   0.78176   0.00000  Uiso   1.00
C296   C     0.51910   0.64429   0.77554   0.00000  Uiso   1.00
C297   C     0.31386   0.45649   0.65864   0.00000  Uiso   1.00
C298   C     0.25837   0.47145   0.63215   0.00000  Uiso   1.00
C299   C     0.21950   0.42761   0.55749   0.00000  Uiso   1.00
H300   H     0.40537   0.34895   0.61670   0.00000  Uiso   1.00
H301   H     0.40777   0.25836   0.68415   0.00000  Uiso   1.00
H302   H     0.50922   0.46066   0.65129   0.00000  Uiso   1.00
H303   H     0.30367   0.31199   0.50170   0.00000  Uiso   1.00
H304   H     0.40334   0.18297   0.77940   0.00000  Uiso   1.00
H305   H     0.61724   0.60953   0.71010   0.00000  Uiso   1.00
H306   H     0.18381   0.29603   0.39465   0.00000  Uiso   1.00
H307   H     0.35062   0.54174   0.77443   0.00000  Uiso   1.00
H308   H     0.35000   0.46173   0.85053   0.00000  Uiso   1.00
H309   H     0.45146   0.66402   0.81767   0.00000  Uiso   1.00
H310   H     0.24591   0.51536   0.66808   0.00000  Uiso   1.00
H311   H     0.35646   0.34803   0.91445   0.00000  Uiso   1.00
H312   H     0.57036   0.77459   0.84515   0.00000  Uiso   1.00
H313   H     0.13693   0.46109   0.52970   0.00000  Uiso   1.00
O314   O     0.38051   0.20941   0.89416   0.00000  Uiso   1.00
O315   O     0.66113   0.76903   0.80322   0.00000  Uiso   1.00
O316   O     0.09248   0.35773   0.38937   0.00000  Uiso   1.00
N317   N     0.39238   0.23279   0.80074   0.00000  Uiso   1.00
N318   N     0.59237   0.63159   0.73595   0.00000  Uiso   1.00
N319   N     0.18715   0.33852   0.44103   0.00000  Uiso   1.00
N320   N     0.36715   0.32160   0.87340   0.00000  Uiso   1.00
N321   N     0.56714   0.72041   0.80862   0.00000  Uiso   1.00
N322   N     0.16193   0.42733   0.51370   0.00000  Uiso   1.00
C323   C     0.76611   0.34428   0.43310   0.00000  Uiso   1.00
C324   C     0.82418   0.35912   0.41945   0.00000  Uiso   1.00
C325   C     0.83240   0.39162   0.37363   0.00000  Uiso   1.00
C326   C     0.88891   0.40037   0.36859   0.00000  Uiso   1.00
C327   C     0.97201   0.42693   0.34143   0.00000  Uiso   1.00
C328   C     0.79019   0.39188   0.51540   0.00000  Uiso   1.00
C329   C     0.76982   0.45193   0.55025   0.00000  Uiso   1.00
C330   C     0.79771   0.48825   0.62598   0.00000  Uiso   1.00
C331   C     0.82800   0.56563   0.74778   0.00000  Uiso   1.00
C332   C     0.74272   0.25290   0.41417   0.00000  Uiso   1.00
C333   C     0.68242   0.19608   0.36390   0.00000  Uiso   1.00
C334   C     0.67034   0.11538   0.35441   0.00000  Uiso   1.00
C335   C     0.62692   0.97698   0.31902   0.00000  Uiso   1.00
C336   C     0.85184   0.30202   0.50564   0.00000  Uiso   1.00
C337   C     0.87075   0.33616   0.45885   0.00000  Uiso   1.00
C338   C     0.92725   0.34486   0.45388   0.00000  Uiso   1.00
C339   C     0.93556   0.37737   0.40805   0.00000  Uiso   1.00
C340   C     0.83675   0.36893   0.55480   0.00000  Uiso   1.00
C341   C     0.86467   0.40516   0.63049   0.00000  Uiso   1.00
C342   C     0.84436   0.46525   0.66545   0.00000  Uiso   1.00
C343   C     0.78928   0.22994   0.45356   0.00000  Uiso   1.00
C344   C     0.77728   0.14932   0.44415   0.00000  Uiso   1.00
C345   C     0.71699   0.09239   0.39388   0.00000  Uiso   1.00
H346   H     0.72986   0.36216   0.40244   0.00000  Uiso   1.00
H347   H     0.79636   0.40938   0.34316   0.00000  Uiso   1.00
H348   H     0.73378   0.46967   0.51974   0.00000  Uiso   1.00
H349   H     0.64640   0.21387   0.33343   0.00000  Uiso   1.00
H350   H     0.89063   0.45165   0.29483   0.00000  Uiso   1.00
H351   H     0.75867   0.57875   0.66717   0.00000  Uiso   1.00
H352   H     0.57441   0.03933   0.27429   0.00000  Uiso   1.00
H353   H     0.88810   0.28415   0.53631   0.00000  Uiso   1.00
H354   H     0.96328   0.32709   0.48437   0.00000  Uiso   1.00
H355   H     0.90071   0.38738   0.66096   0.00000  Uiso   1.00
H356   H     0.81333   0.13158   0.47464   0.00000  Uiso   1.00
H357   H     0.02611   0.38486   0.40945   0.00000  Uiso   1.00
H358   H     0.89415   0.51196   0.78179   0.00000  Uiso   1.00
H359   H     0.70989   0.97254   0.38891   0.00000  Uiso   1.00
O360   O     0.00498   0.44793   0.31557   0.00000  Uiso   1.00
O361   O     0.83185   0.61467   0.80408   0.00000  Uiso   1.00
O362   O     0.59011   0.90697   0.28862   0.00000  Uiso   1.00
N363   N     0.91219   0.43002   0.32892   0.00000  Uiso   1.00
N364   N     0.78883   0.54886   0.67704   0.00000  Uiso   1.00
N365   N     0.61655   0.04456   0.30974   0.00000  Uiso   1.00
N366   N     0.98509   0.39408   0.39059   0.00000  Uiso   1.00
N367   N     0.86173   0.51292   0.73872   0.00000  Uiso   1.00
N368   N     0.68945   0.00862   0.37141   0.00000  Uiso   1.00
C369   C     0.37896   0.61658   0.35682   0.00000  Uiso   1.00
C370   C     0.36418   0.69593   0.37495   0.00000  Uiso   1.00
C371   C     0.31165   0.70577   0.38446   0.00000  Uiso   1.00
C372   C     0.30673   0.78324   0.40080   0.00000  Uiso   1.00
C373   C     0.27680   0.89655   0.42798   0.00000  Uiso   1.00
C374   C     0.44436   0.63895   0.41681   0.00000  Uiso   1.00
C375   C     0.45923   0.60087   0.46151   0.00000  Uiso   1.00
C376   C     0.52181   0.63037   0.51310   0.00000  Uiso   1.00
C377   C     0.61636   0.65516   0.60524   0.00000  Uiso   1.00
C378   C     0.38639   0.59716   0.28701   0.00000  Uiso   1.00
C379   C     0.35253   0.52393   0.22258   0.00000  Uiso   1.00
C380   C     0.36631   0.51824   0.16489   0.00000  Uiso   1.00
C381   C     0.37086   0.47815   0.05550   0.00000  Uiso   1.00
C382   C     0.46366   0.73668   0.36894   0.00000  Uiso   1.00
C383   C     0.41019   0.76117   0.38153   0.00000  Uiso   1.00
C384   C     0.40535   0.83865   0.39786   0.00000  Uiso   1.00
C385   C     0.35282   0.84860   0.40739   0.00000  Uiso   1.00
C386   C     0.49036   0.70418   0.42339   0.00000  Uiso   1.00
C387   C     0.55294   0.73374   0.47492   0.00000  Uiso   1.00
C388   C     0.56790   0.69572   0.51969   0.00000  Uiso   1.00
C389   C     0.43239   0.66239   0.29359   0.00000  Uiso   1.00
C390   C     0.44624   0.65681   0.23599   0.00000  Uiso   1.00
C391   C     0.41240   0.58359   0.17149   0.00000  Uiso   1.00
H392   H     0.34315   0.56579   0.35170   0.00000  Uiso   1.00
H393   H     0.27606   0.65527   0.37937   0.00000  Uiso   1.00
H394   H     0.42362   0.55038   0.45640   0.00000  Uiso   1.00
H395   H     0.31693   0.47346   0.21751   0.00000  Uiso   1.00
H396   H     0.22197   0.78326   0.41297   0.00000  Uiso   1.00
H397   H     0.53312   0.56207   0.57539   0.00000  Uiso   1.00
H398   H     0.30815   0.39986   0.07164   0.00000  Uiso   1.00
H399   H     0.49948   0.78747   0.37406   0.00000  Uiso   1.00
H400   H     0.44096   0.88912   0.40295   0.00000  Uiso   1.00
H401   H     0.58853   0.78422   0.47999   0.00000  Uiso   1.00
H402   H     0.48184   0.70730   0.24110   0.00000  Uiso   1.00
H403   H     0.35582   0.97305   0.43212   0.00000  Uiso   1.00
H404   H     0.66697   0.75186   0.59454   0.00000  Uiso   1.00
H405   H     0.44200   0.58966   0.09079   0.00000  Uiso   1.00
O406   O     0.24759   0.94103   0.44117   0.00000  Uiso   1.00
O407   O     0.65581   0.65082   0.65425   0.00000  Uiso   1.00
O408   O     0.36065   0.43802   0.99334   0.00000  Uiso   1.00
N409   N     0.26150   0.81397   0.41349   0.00000  Uiso   1.00
N410   N     0.55240   0.60718   0.56536   0.00000  Uiso   1.00
N411   N     0.34209   0.45553   0.09440   0.00000  Uiso   1.00
N412   N     0.33352   0.91610   0.42380   0.00000  Uiso   1.00
N413   N     0.62442   0.70931   0.57566   0.00000  Uiso   1.00
N414   N     0.41411   0.55765   0.10470   0.00000  Uiso   1.00
C415   C     0.88844   0.10325   0.94085   0.00000  Uiso   1.00
C416   C     0.88761   0.16993   0.91527   0.00000  Uiso   1.00
C417   C     0.89684   0.16846   0.85578   0.00000  Uiso   1.00
C418   C     0.89429   0.23539   0.84136   0.00000  Uiso   1.00
C419   C     0.89476   0.32891   0.79503   0.00000  Uiso   1.00
C420   C     0.93830   0.14685   0.02037   0.00000  Uiso   1.00
C421   C     0.99014   0.12598   0.04926   0.00000  Uiso   1.00
C422   C     0.03025   0.17348   0.12333   0.00000  Uiso   1.00
C423   C     0.10939   0.23114   0.24018   0.00000  Uiso   1.00
C424   C     0.82507   0.07620   0.94188   0.00000  Uiso   1.00
C425   C     0.78171   0.99592   0.90477   0.00000  Uiso   1.00
C426   C     0.72650   0.98393   0.91277   0.00000  Uiso   1.00
C427   C     0.62984   0.93190   0.90775   0.00000  Uiso   1.00
C428   C     0.86750   0.22471   0.02104   0.00000  Uiso   1.00
C429   C     0.87623   0.23590   0.95883   0.00000  Uiso   1.00
C430   C     0.87367   0.30285   0.94450   0.00000  Uiso   1.00
C431   C     0.88289   0.30148   0.88500   0.00000  Uiso   1.00
C432   C     0.92692   0.21283   0.06393   0.00000  Uiso   1.00
C433   C     0.96697   0.26036   0.13798   0.00000  Uiso   1.00
C434   C     0.01886   0.23957   0.16696   0.00000  Uiso   1.00
C435   C     0.81369   0.14218   0.98543   0.00000  Uiso   1.00
C436   C     0.75854   0.13031   0.99349   0.00000  Uiso   1.00
C437   C     0.71511   0.05003   0.95640   0.00000  Uiso   1.00
H438   H     0.89730   0.05188   0.90695   0.00000  Uiso   1.00
H439   H     0.90564   0.11740   0.82209   0.00000  Uiso   1.00
H440   H     0.99892   0.07492   0.01554   0.00000  Uiso   1.00
H441   H     0.79053   0.94488   0.87107   0.00000  Uiso   1.00
H442   H     0.90990   0.21914   0.74723   0.00000  Uiso   1.00
H443   H     0.10658   0.12955   0.15513   0.00000  Uiso   1.00
H444   H     0.66714   0.85534   0.85051   0.00000  Uiso   1.00
H445   H     0.85864   0.27608   0.05496   0.00000  Uiso   1.00
H446   H     0.86486   0.35389   0.97821   0.00000  Uiso   1.00
H447   H     0.95815   0.31141   0.17166   0.00000  Uiso   1.00
H448   H     0.74976   0.18138   0.02720   0.00000  Uiso   1.00
H449   H     0.87681   0.41109   0.87395   0.00000  Uiso   1.00
H450   H     0.07349   0.32150   0.28186   0.00000  Uiso   1.00
H451   H     0.63405   0.04729   0.97722   0.00000  Uiso   1.00
O452   O     0.89817   0.36228   0.75745   0.00000  Uiso   1.00
O453   O     0.15619   0.24472   0.29261   0.00000  Uiso   1.00
O454   O     0.57966   0.88497   0.89294   0.00000  Uiso   1.00
N455   N     0.90125   0.25363   0.78758   0.00000  Uiso   1.00
N456   N     0.08514   0.16988   0.16894   0.00000  Uiso   1.00
N457   N     0.67431   0.91351   0.88415   0.00000  Uiso   1.00
N458   N     0.88344   0.35692   0.85576   0.00000  Uiso   1.00
N459   N     0.06733   0.27316   0.23713   0.00000  Uiso   1.00
N460   N     0.65650   0.01680   0.95234   0.00000  Uiso   1.00
C461   C     0.13280   0.86747   0.81470   0.00000  Uiso   1.00
C462   C     0.17402   0.81454   0.81124   0.00000  Uiso   1.00
C463   C     0.17266   0.75256   0.83302   0.00000  Uiso   1.00
C464   C     0.21412   0.71129   0.82549   0.00000  Uiso   1.00
C465   C     0.27186   0.62608   0.82445   0.00000  Uiso   1.00
C466   C     0.17822   0.95708   0.85991   0.00000  Uiso   1.00
C467   C     0.18039   0.01494   0.92261   0.00000  Uiso   1.00
C468   C     0.22538   0.09366   0.95604   0.00000  Uiso   1.00
C469   C     0.28962   0.22976   0.03053   0.00000  Uiso   1.00
C470   C     0.09829   0.85610   0.73725   0.00000  Uiso   1.00
C471   C     0.03324   0.82909   0.69682   0.00000  Uiso   1.00
C472   C     0.01093   0.82281   0.62698   0.00000  Uiso   1.00
C473   C     0.95105   0.80213   0.51102   0.00000  Uiso   1.00
C474   C     0.20886   0.90440   0.76257   0.00000  Uiso   1.00
C475   C     0.21533   0.83460   0.78292   0.00000  Uiso   1.00
C476   C     0.25680   0.79341   0.77535   0.00000  Uiso   1.00
C477   C     0.25550   0.73137   0.79712   0.00000  Uiso   1.00
C478   C     0.21953   0.97714   0.83160   0.00000  Uiso   1.00
C479   C     0.26453   0.05579   0.86494   0.00000  Uiso   1.00
C480   C     0.26677   0.11375   0.92767   0.00000  Uiso   1.00
C481   C     0.13960   0.87616   0.70893   0.00000  Uiso   1.00
C482   C     0.11738   0.86993   0.63914   0.00000  Uiso   1.00
C483   C     0.05232   0.84290   0.59862   0.00000  Uiso   1.00
H484   H     0.10065   0.85186   0.83675   0.00000  Uiso   1.00
H485   H     0.14069   0.73706   0.85494   0.00000  Uiso   1.00
H486   H     0.14841   0.99940   0.94450   0.00000  Uiso   1.00
H487   H     0.00129   0.81357   0.71875   0.00000  Uiso   1.00
H488   H     0.20332   0.61865   0.86264   0.00000  Uiso   1.00
H489   H     0.21959   0.17182   0.05148   0.00000  Uiso   1.00
H490   H     0.90935   0.77996   0.57543   0.00000  Uiso   1.00
H491   H     0.24102   0.92001   0.74053   0.00000  Uiso   1.00
H492   H     0.28876   0.80894   0.75344   0.00000  Uiso   1.00
H493   H     0.29649   0.07129   0.84301   0.00000  Uiso   1.00
H494   H     0.14936   0.88546   0.61725   0.00000  Uiso   1.00
H495   H     0.32350   0.67699   0.78027   0.00000  Uiso   1.00
H496   H     0.33977   0.23016   0.96911   0.00000  Uiso   1.00
H497   H     0.02953   0.83830   0.49306   0.00000  Uiso   1.00
O498   O     0.29230   0.57354   0.83171   0.00000  Uiso   1.00
O499   O     0.31364   0.29928   0.07945   0.00000  Uiso   1.00
O500   O     0.90661   0.78517   0.45488   0.00000  Uiso   1.00
N501   N     0.22504   0.64761   0.84147   0.00000  Uiso   1.00
N502   N     0.24026   0.16479   0.01803   0.00000  Uiso   1.00
N503   N     0.95021   0.79845   0.57297   0.00000  Uiso   1.00
N504   N     0.28971   0.67900   0.79714   0.00000  Uiso   1.00
N505   N     0.30493   0.19618   0.97370   0.00000  Uiso   1.00
N506   N     0.01488   0.82985   0.52864   0.00000  Uiso   1.00
C507   C     0.94291   0.89691   0.19449   0.00000  Uiso   1.00
C508   C     0.91114   0.88805   0.24212   0.00000  Uiso   1.00
C509   C     0.86357   0.91739   0.24847   0.00000  Uiso   1.00
C510   C     0.84075   0.90305   0.29489   0.00000  Uiso   1.00
C511   C     0.78781   0.89574   0.36299   0.00000  Uiso   1.00
C512   C     0.01350   0.94010   0.24560   0.00000  Uiso   1.00
C513   C     0.05200   0.01320   0.25486   0.00000  Uiso   1.00
C514   C     0.11534   0.04266   0.30420   0.00000  Uiso   1.00
C515   C     0.22133   0.11613   0.37766   0.00000  Uiso   1.00
C516   C     0.93427   0.80938   0.14453   0.00000  Uiso   1.00
C517   C     0.90617   0.77257   0.06881   0.00000  Uiso   1.00
C518   C     0.90282   0.69197   0.03306   0.00000  Uiso   1.00
C519   C     0.88579   0.56247   0.94959   0.00000  Uiso   1.00
C520   C     0.98696   0.81925   0.26563   0.00000  Uiso   1.00
C521   C     0.93507   0.84587   0.28076   0.00000  Uiso   1.00
C522   C     0.91231   0.83147   0.32718   0.00000  Uiso   1.00
C523   C     0.86472   0.86078   0.33360   0.00000  Uiso   1.00
C524   C     0.03743   0.89792   0.28424   0.00000  Uiso   1.00
C525   C     0.10073   0.92727   0.33357   0.00000  Uiso   1.00
C526   C     0.13931   0.00040   0.34291   0.00000  Uiso   1.00
C527   C     0.95820   0.76719   0.18316   0.00000  Uiso   1.00
C528   C     0.95490   0.68664   0.14752   0.00000  Uiso   1.00
C529   C     0.92679   0.64971   0.07177   0.00000  Uiso   1.00
H530   H     0.92429   0.92976   0.16441   0.00000  Uiso   1.00
H531   H     0.84507   0.95004   0.21857   0.00000  Uiso   1.00
H532   H     0.03347   0.04582   0.22495   0.00000  Uiso   1.00
H533   H     0.88766   0.80523   0.03893   0.00000  Uiso   1.00
H534   H     0.76782   0.95396   0.29567   0.00000  Uiso   1.00
H535   H     0.16507   0.15590   0.30911   0.00000  Uiso   1.00
H536   H     0.85760   0.64857   0.91684   0.00000  Uiso   1.00
H537   H     0.00559   0.78641   0.29572   0.00000  Uiso   1.00
H538   H     0.93084   0.79882   0.35708   0.00000  Uiso   1.00
H539   H     0.11923   0.89461   0.36346   0.00000  Uiso   1.00
H540   H     0.97342   0.65401   0.17744   0.00000  Uiso   1.00
H541   H     0.83743   0.83122   0.40809   0.00000  Uiso   1.00
H542   H     0.23468   0.03317   0.42152   0.00000  Uiso   1.00
H543   H     0.92721   0.52583   0.02926   0.00000  Uiso   1.00
O544   O     0.75200   0.90337   0.38989   0.00000  Uiso   1.00
O545   O     0.27317   0.16831   0.40751   0.00000  Uiso   1.00
O546   O     0.86978   0.50269   0.89287   0.00000  Uiso   1.00
N547   N     0.79445   0.92335   0.31369   0.00000  Uiso   1.00
N548   N     0.16586   0.11217   0.32627   0.00000  Uiso   1.00
N549   N     0.87841   0.63786   0.95953   0.00000  Uiso   1.00
N550   N     0.83191   0.85731   0.37419   0.00000  Uiso   1.00
N551   N     0.20331   0.04613   0.38676   0.00000  Uiso   1.00
N552   N     0.91587   0.57182   0.02003   0.00000  Uiso   1.00
