data_job_06809
_audit_creation_date              2018-12-19
_audit_creation_method            'Materials Studio'
_symmetry_space_group_name_H-M    'P1'
_symmetry_Int_Tables_number       1
_symmetry_cell_setting            triclinic
loop_
_symmetry_equiv_pos_as_xyz
  x,y,z
_cell_length_a                    17.7428
_cell_length_b                    24.6186
_cell_length_c                    19.1459
_cell_angle_alpha                 83.4230
_cell_angle_beta                  83.6001
_cell_angle_gamma                 90.6723
loop_
_atom_site_label
_atom_site_type_symbol
_atom_site_fract_x
_atom_site_fract_y
_atom_site_fract_z
_atom_site_U_iso_or_equiv
_atom_site_adp_type
_atom_site_occupancy
C1     C     0.63487   0.23633   0.97156   0.00000  Uiso   1.00
C2     C     0.68689   0.28579   0.97329   0.00000  Uiso   1.00
C3     C     0.69874   0.33005   0.92117   0.00000  Uiso   1.00
C4     C     0.74852   0.37119   0.93267   0.00000  Uiso   1.00
C5     C     0.82377   0.44844   0.92599   0.00000  Uiso   1.00
C6     C     0.68444   0.18635   0.98004   0.00000  Uiso   1.00
C7     C     0.69422   0.14700   0.93360   0.00000  Uiso   1.00
C8     C     0.74194   0.10442   0.95079   0.00000  Uiso   1.00
C9     C     0.81333   0.02727   0.95462   0.00000  Uiso   1.00
C10    C     0.57943   0.23298   0.03885   0.00000  Uiso   1.00
C11    C     0.50091   0.23281   0.04186   0.00000  Uiso   1.00
C12    C     0.46021   0.22947   0.10856   0.00000  Uiso   1.00
C13    C     0.36856   0.22471   0.20369   0.00000  Uiso   1.00
C14    C     0.70221   0.23068   0.08466   0.00000  Uiso   1.00
C15    C     0.72347   0.28272   0.03472   0.00000  Uiso   1.00
C16    C     0.77325   0.32380   0.04630   0.00000  Uiso   1.00
C17    C     0.78517   0.36811   0.99421   0.00000  Uiso   1.00
C18    C     0.72102   0.18328   0.04147   0.00000  Uiso   1.00
C19    C     0.76873   0.14075   0.05873   0.00000  Uiso   1.00
C20    C     0.77858   0.10135   0.01233   0.00000  Uiso   1.00
C21    C     0.61601   0.22991   0.10028   0.00000  Uiso   1.00
C22    C     0.57542   0.22656   0.16699   0.00000  Uiso   1.00
C23    C     0.49686   0.22640   0.17010   0.00000  Uiso   1.00
H24    H     0.60639   0.23872   0.92373   0.00000  Uiso   1.00
H25    H     0.67042   0.33241   0.87364   0.00000  Uiso   1.00
H26    H     0.66590   0.14938   0.88607   0.00000  Uiso   1.00
H27    H     0.47262   0.23519   0.99431   0.00000  Uiso   1.00
H28    H     0.75757   0.43492   0.84517   0.00000  Uiso   1.00
H29    H     0.74801   0.04899   0.87140   0.00000  Uiso   1.00
H30    H     0.34045   0.22992   0.09964   0.00000  Uiso   1.00
H31    H     0.73069   0.22829   0.13249   0.00000  Uiso   1.00
H32    H     0.80155   0.32142   0.09385   0.00000  Uiso   1.00
H33    H     0.79702   0.13839   0.10628   0.00000  Uiso   1.00
H34    H     0.60375   0.22419   0.21451   0.00000  Uiso   1.00
H35    H     0.86400   0.42600   0.02390   0.00000  Uiso   1.00
H36    H     0.85443   0.04007   0.05013   0.00000  Uiso   1.00
H37    H     0.44688   0.22099   0.27837   0.00000  Uiso   1.00
O38    O     0.85517   0.49189   0.90534   0.00000  Uiso   1.00
O39    O     0.84261   0.98557   0.93976   0.00000  Uiso   1.00
O40    O     0.30791   0.22294   0.23920   0.00000  Uiso   1.00
N41    N     0.77288   0.42004   0.89255   0.00000  Uiso   1.00
N42    N     0.76395   0.05923   0.91706   0.00000  Uiso   1.00
N43    N     0.38292   0.22837   0.13045   0.00000  Uiso   1.00
N44    N     0.83015   0.41524   0.98872   0.00000  Uiso   1.00
N45    N     0.82122   0.05443   0.01324   0.00000  Uiso   1.00
N46    N     0.44018   0.22356   0.22662   0.00000  Uiso   1.00
C47    C     0.16943   0.89541   0.10867   0.00000  Uiso   1.00
C48    C     0.20263   0.92909   0.16047   0.00000  Uiso   1.00
C49    C     0.17925   0.92623   0.23245   0.00000  Uiso   1.00
C50    C     0.21681   0.96044   0.27072   0.00000  Uiso   1.00
C51    C     0.25940   0.00732   0.35610   0.00000  Uiso   1.00
C52    C     0.14405   0.93654   0.05068   0.00000  Uiso   1.00
C53    C     0.07142   0.93993   0.03035   0.00000  Uiso   1.00
C54    C     0.05967   0.98041   0.97620   0.00000  Uiso   1.00
C55    C     0.01132   0.03884   0.89110   0.00000  Uiso   1.00
C56    C     0.23580   0.86572   0.07372   0.00000  Uiso   1.00
C57    C     0.24031   0.80956   0.07275   0.00000  Uiso   1.00
C58    C     0.30580   0.79042   0.03798   0.00000  Uiso   1.00
C59    C     0.39990   0.73887   0.98866   0.00000  Uiso   1.00
C60    C     0.27771   0.96125   0.04864   0.00000  Uiso   1.00
C61    C     0.26145   0.96486   0.12786   0.00000  Uiso   1.00
C62    C     0.29906   0.99908   0.16604   0.00000  Uiso   1.00
C63    C     0.27574   0.99627   0.23806   0.00000  Uiso   1.00
C64    C     0.20286   0.97231   0.01808   0.00000  Uiso   1.00
C65    C     0.19122   0.01279   0.96394   0.00000  Uiso   1.00
C66    C     0.11859   0.01624   0.94354   0.00000  Uiso   1.00
C67    C     0.29462   0.90148   0.04112   0.00000  Uiso   1.00
C68    C     0.36011   0.88242   0.00634   0.00000  Uiso   1.00
C69    C     0.36472   0.82625   0.00532   0.00000  Uiso   1.00
H70    H     0.12364   0.86756   0.13405   0.00000  Uiso   1.00
H71    H     0.13373   0.89855   0.25766   0.00000  Uiso   1.00
H72    H     0.02592   0.91225   0.05558   0.00000  Uiso   1.00
H73    H     0.19478   0.78190   0.09798   0.00000  Uiso   1.00
H74    H     0.17084   0.94869   0.38032   0.00000  Uiso   1.00
H75    H     0.94352   0.97756   0.95422   0.00000  Uiso   1.00
H76    H     0.29960   0.70270   0.04362   0.00000  Uiso   1.00
H77    H     0.32350   0.98910   0.02326   0.00000  Uiso   1.00
H78    H     0.34457   0.02675   0.14079   0.00000  Uiso   1.00
H79    H     0.23675   0.04046   0.93872   0.00000  Uiso   1.00
H80    H     0.40561   0.91011   0.98112   0.00000  Uiso   1.00
H81    H     0.34196   0.05274   0.28547   0.00000  Uiso   1.00
H82    H     0.11464   0.08162   0.85937   0.00000  Uiso   1.00
H83    H     0.47072   0.80675   0.94877   0.00000  Uiso   1.00
O84    O     0.26663   0.02330   0.41220   0.00000  Uiso   1.00
O85    O     0.96840   0.06118   0.85318   0.00000  Uiso   1.00
O86    O     0.43557   0.70056   0.97047   0.00000  Uiso   1.00
N87    N     0.20823   0.96800   0.34187   0.00000  Uiso   1.00
N88    N     0.99570   0.99501   0.94350   0.00000  Uiso   1.00
N89    N     0.32859   0.73803   0.02707   0.00000  Uiso   1.00
N90    N     0.30031   0.02399   0.29083   0.00000  Uiso   1.00
N91    N     0.08778   0.05100   0.89246   0.00000  Uiso   1.00
N92    N     0.42067   0.79402   0.97603   0.00000  Uiso   1.00
C93    C     0.17342   0.18597   0.53844   0.00000  Uiso   1.00
C94    C     0.23728   0.19549   0.58309   0.00000  Uiso   1.00
C95    C     0.30269   0.16531   0.58571   0.00000  Uiso   1.00
C96    C     0.35426   0.18048   0.62986   0.00000  Uiso   1.00
C97    C     0.45545   0.18859   0.69312   0.00000  Uiso   1.00
C98    C     0.10115   0.17762   0.58999   0.00000  Uiso   1.00
C99    C     0.05210   0.13243   0.59839   0.00000  Uiso   1.00
C100   C     0.98907   0.13256   0.64833   0.00000  Uiso   1.00
C101   C     0.87889   0.11294   0.72226   0.00000  Uiso   1.00
C102   C     0.16486   0.24002   0.49280   0.00000  Uiso   1.00
C103   C     0.16935   0.24729   0.41948   0.00000  Uiso   1.00
C104   C     0.15993   0.29995   0.38761   0.00000  Uiso   1.00
C105   C     0.14866   0.37721   0.31064   0.00000  Uiso   1.00
C106   C     0.14868   0.26656   0.61221   0.00000  Uiso   1.00
C107   C     0.22384   0.23926   0.62316   0.00000  Uiso   1.00
C108   C     0.27532   0.25448   0.66732   0.00000  Uiso   1.00
C109   C     0.34080   0.22433   0.66999   0.00000  Uiso   1.00
C110   C     0.08771   0.22139   0.63005   0.00000  Uiso   1.00
C111   C     0.02473   0.22159   0.68000   0.00000  Uiso   1.00
C112   C     0.97560   0.17641   0.68847   0.00000  Uiso   1.00
C113   C     0.15142   0.28379   0.53286   0.00000  Uiso   1.00
C114   C     0.14198   0.33645   0.50109   0.00000  Uiso   1.00
C115   C     0.14647   0.34380   0.42774   0.00000  Uiso   1.00
H116   H     0.18388   0.15189   0.50725   0.00000  Uiso   1.00
H117   H     0.31307   0.13144   0.55470   0.00000  Uiso   1.00
H118   H     0.06251   0.09856   0.56737   0.00000  Uiso   1.00
H119   H     0.17975   0.21340   0.38850   0.00000  Uiso   1.00
H120   H     0.45037   0.12806   0.62499   0.00000  Uiso   1.00
H121   H     0.92204   0.05875   0.65169   0.00000  Uiso   1.00
H122   H     0.16925   0.30091   0.27450   0.00000  Uiso   1.00
H123   H     0.13821   0.30064   0.64340   0.00000  Uiso   1.00
H124   H     0.26491   0.28835   0.69831   0.00000  Uiso   1.00
H125   H     0.01435   0.25547   0.71099   0.00000  Uiso   1.00
H126   H     0.13158   0.37032   0.53211   0.00000  Uiso   1.00
H127   H     0.41127   0.25541   0.74155   0.00000  Uiso   1.00
H128   H     0.88295   0.18610   0.76826   0.00000  Uiso   1.00
H129   H     0.13016   0.42827   0.39107   0.00000  Uiso   1.00
O130   O     0.51498   0.18096   0.71696   0.00000  Uiso   1.00
O131   O     0.82183   0.09003   0.75198   0.00000  Uiso   1.00
O132   O     0.14617   0.40774   0.25712   0.00000  Uiso   1.00
N133   N     0.42379   0.15972   0.64487   0.00000  Uiso   1.00
N134   N     0.92984   0.09492   0.66985   0.00000  Uiso   1.00
N135   N     0.16094   0.32132   0.31721   0.00000  Uiso   1.00
N136   N     0.40275   0.22825   0.70760   0.00000  Uiso   1.00
N137   N     0.90881   0.16345   0.73257   0.00000  Uiso   1.00
N138   N     0.13991   0.38985   0.37993   0.00000  Uiso   1.00
C139   C     0.27187   0.67013   0.52311   0.00000  Uiso   1.00
C140   C     0.33023   0.64224   0.56692   0.00000  Uiso   1.00
C141   C     0.31721   0.59553   0.61498   0.00000  Uiso   1.00
C142   C     0.37798   0.57641   0.64975   0.00000  Uiso   1.00
C143   C     0.45777   0.52903   0.71971   0.00000  Uiso   1.00
C144   C     0.30592   0.67264   0.44605   0.00000  Uiso   1.00
C145   C     0.27247   0.65151   0.39247   0.00000  Uiso   1.00
C146   C     0.31278   0.65799   0.32548   0.00000  Uiso   1.00
C147   C     0.35482   0.65785   0.20777   0.00000  Uiso   1.00
C148   C     0.26928   0.72914   0.54012   0.00000  Uiso   1.00
C149   C     0.20502   0.75551   0.56562   0.00000  Uiso   1.00
C150   C     0.21448   0.80956   0.57783   0.00000  Uiso   1.00
C151   C     0.19962   0.89714   0.60618   0.00000  Uiso   1.00
C152   C     0.40294   0.71922   0.49942   0.00000  Uiso   1.00
C153   C     0.40142   0.66890   0.55405   0.00000  Uiso   1.00
C154   C     0.46222   0.64984   0.58876   0.00000  Uiso   1.00
C155   C     0.44930   0.60312   0.63686   0.00000  Uiso   1.00
C156   C     0.37711   0.69931   0.43317   0.00000  Uiso   1.00
C157   C     0.41748   0.70582   0.36625   0.00000  Uiso   1.00
C158   C     0.38410   0.68470   0.31259   0.00000  Uiso   1.00
C159   C     0.34048   0.75580   0.52725   0.00000  Uiso   1.00
C160   C     0.35003   0.80982   0.53941   0.00000  Uiso   1.00
C161   C     0.28580   0.83627   0.56493   0.00000  Uiso   1.00
H162   H     0.21645   0.64937   0.53313   0.00000  Uiso   1.00
H163   H     0.26211   0.57491   0.62492   0.00000  Uiso   1.00
H164   H     0.21737   0.63088   0.40244   0.00000  Uiso   1.00
H165   H     0.14994   0.73486   0.57558   0.00000  Uiso   1.00
H166   H     0.34414   0.50410   0.72099   0.00000  Uiso   1.00
H167   H     0.24980   0.62214   0.25188   0.00000  Uiso   1.00
H168   H     0.10759   0.84141   0.61697   0.00000  Uiso   1.00
H169   H     0.45837   0.73998   0.48939   0.00000  Uiso   1.00
H170   H     0.51731   0.67048   0.57879   0.00000  Uiso   1.00
H171   H     0.47257   0.72646   0.35631   0.00000  Uiso   1.00
H172   H     0.40513   0.83044   0.52945   0.00000  Uiso   1.00
H173   H     0.55127   0.58167   0.68354   0.00000  Uiso   1.00
H174   H     0.45692   0.69972   0.21444   0.00000  Uiso   1.00
H175   H     0.31472   0.91898   0.57953   0.00000  Uiso   1.00
O176   O     0.48212   0.49553   0.76184   0.00000  Uiso   1.00
O177   O     0.35834   0.65040   0.14639   0.00000  Uiso   1.00
O178   O     0.17177   0.93807   0.62538   0.00000  Uiso   1.00
N179   N     0.38480   0.53190   0.69992   0.00000  Uiso   1.00
N180   N     0.29659   0.64225   0.26133   0.00000  Uiso   1.00
N181   N     0.16364   0.84726   0.60264   0.00000  Uiso   1.00
N182   N     0.49625   0.57364   0.67977   0.00000  Uiso   1.00
N183   N     0.40805   0.68400   0.24119   0.00000  Uiso   1.00
N184   N     0.27509   0.88900   0.58250   0.00000  Uiso   1.00
C185   C     0.62962   0.70710   0.01568   0.00000  Uiso   1.00
C186   C     0.66446   0.75739   0.04060   0.00000  Uiso   1.00
C187   C     0.63436   0.80928   0.03639   0.00000  Uiso   1.00
C188   C     0.67482   0.84981   0.06210   0.00000  Uiso   1.00
C189   C     0.71854   0.92956   0.09644   0.00000  Uiso   1.00
C190   C     0.61997   0.66369   0.07976   0.00000  Uiso   1.00
C191   C     0.55246   0.63680   0.10847   0.00000  Uiso   1.00
C192   C     0.55548   0.59844   0.16714   0.00000  Uiso   1.00
C193   C     0.53014   0.53270   0.26225   0.00000  Uiso   1.00
C194   C     0.69034   0.68631   0.96310   0.00000  Uiso   1.00
C195   C     0.68200   0.67843   0.89372   0.00000  Uiso   1.00
C196   C     0.74425   0.65911   0.85417   0.00000  Uiso   1.00
C197   C     0.82817   0.62850   0.76814   0.00000  Uiso   1.00
C198   C     0.75499   0.68680   0.06882   0.00000  Uiso   1.00
C199   C     0.73256   0.74635   0.06946   0.00000  Uiso   1.00
C200   C     0.77307   0.78682   0.09518   0.00000  Uiso   1.00
C201   C     0.74304   0.83876   0.09101   0.00000  Uiso   1.00
C202   C     0.68806   0.65266   0.10862   0.00000  Uiso   1.00
C203   C     0.69118   0.61433   0.16726   0.00000  Uiso   1.00
C204   C     0.62370   0.58739   0.19606   0.00000  Uiso   1.00
C205   C     0.75844   0.67528   0.99196   0.00000  Uiso   1.00
C206   C     0.82072   0.65597   0.95251   0.00000  Uiso   1.00
C207   C     0.81248   0.64806   0.88309   0.00000  Uiso   1.00
H208   H     0.57660   0.71568   0.99321   0.00000  Uiso   1.00
H209   H     0.58165   0.81780   0.01406   0.00000  Uiso   1.00
H210   H     0.49978   0.64534   0.08612   0.00000  Uiso   1.00
H211   H     0.62929   0.68697   0.87140   0.00000  Uiso   1.00
H212   H     0.61728   0.92614   0.04992   0.00000  Uiso   1.00
H213   H     0.44464   0.56249   0.20185   0.00000  Uiso   1.00
H214   H     0.71775   0.65027   0.74908   0.00000  Uiso   1.00
H215   H     0.80801   0.67821   0.09129   0.00000  Uiso   1.00
H216   H     0.82577   0.77827   0.11752   0.00000  Uiso   1.00
H217   H     0.74389   0.60581   0.18958   0.00000  Uiso   1.00
H218   H     0.87341   0.64744   0.97487   0.00000  Uiso   1.00
H219   H     0.81541   0.89406   0.13390   0.00000  Uiso   1.00
H220   H     0.64277   0.53040   0.28583   0.00000  Uiso   1.00
H221   H     0.91588   0.61819   0.83306   0.00000  Uiso   1.00
O222   O     0.72384   0.97659   0.10741   0.00000  Uiso   1.00
O223   O     0.49734   0.49949   0.30673   0.00000  Uiso   1.00
O224   O     0.85565   0.61466   0.71271   0.00000  Uiso   1.00
N225   N     0.66148   0.90486   0.06607   0.00000  Uiso   1.00
N226   N     0.50007   0.56487   0.20813   0.00000  Uiso   1.00
N227   N     0.75540   0.64693   0.78483   0.00000  Uiso   1.00
N228   N     0.76809   0.88760   0.11126   0.00000  Uiso   1.00
N229   N     0.60668   0.54761   0.25331   0.00000  Uiso   1.00
N230   N     0.86201   0.62967   0.83002   0.00000  Uiso   1.00
C231   C     0.72676   0.27417   0.38030   0.00000  Uiso   1.00
C232   C     0.77623   0.31615   0.40791   0.00000  Uiso   1.00
C233   C     0.85188   0.32867   0.38413   0.00000  Uiso   1.00
C234   C     0.88714   0.36829   0.41617   0.00000  Uiso   1.00
C235   C     0.96989   0.42953   0.45082   0.00000  Uiso   1.00
C236   C     0.65828   0.30495   0.35642   0.00000  Uiso   1.00
C237   C     0.63477   0.30805   0.28936   0.00000  Uiso   1.00
C238   C     0.57073   0.33824   0.27807   0.00000  Uiso   1.00
C239   C     0.47033   0.38205   0.23281   0.00000  Uiso   1.00
C240   C     0.69648   0.23437   0.44453   0.00000  Uiso   1.00
C241   C     0.70506   0.17812   0.45155   0.00000  Uiso   1.00
C242   C     0.67316   0.14888   0.51443   0.00000  Uiso   1.00
C243   C     0.63207   0.08311   0.60597   0.00000  Uiso   1.00
C244   C     0.65485   0.32228   0.47949   0.00000  Uiso   1.00
C245   C     0.73717   0.34228   0.46178   0.00000  Uiso   1.00
C246   C     0.77232   0.38190   0.49387   0.00000  Uiso   1.00
C247   C     0.84802   0.39447   0.47015   0.00000  Uiso   1.00
C248   C     0.61922   0.33108   0.41030   0.00000  Uiso   1.00
C249   C     0.55521   0.36127   0.39910   0.00000  Uiso   1.00
C250   C     0.53160   0.36442   0.33204   0.00000  Uiso   1.00
C251   C     0.65742   0.26050   0.49841   0.00000  Uiso   1.00
C252   C     0.62550   0.23135   0.56129   0.00000  Uiso   1.00
C253   C     0.63403   0.17506   0.56840   0.00000  Uiso   1.00
H254   H     0.75716   0.25383   0.33835   0.00000  Uiso   1.00
H255   H     0.88209   0.30844   0.34243   0.00000  Uiso   1.00
H256   H     0.66500   0.28782   0.24768   0.00000  Uiso   1.00
H257   H     0.73528   0.15791   0.40985   0.00000  Uiso   1.00
H258   H     0.00336   0.38053   0.37069   0.00000  Uiso   1.00
H259   H     0.54560   0.33703   0.17092   0.00000  Uiso   1.00
H260   H     0.69381   0.06310   0.51287   0.00000  Uiso   1.00
H261   H     0.62443   0.34262   0.52143   0.00000  Uiso   1.00
H262   H     0.74208   0.40211   0.53556   0.00000  Uiso   1.00
H263   H     0.52499   0.38149   0.44081   0.00000  Uiso   1.00
H264   H     0.59528   0.25158   0.60297   0.00000  Uiso   1.00
H265   H     0.88972   0.45656   0.52744   0.00000  Uiso   1.00
H266   H     0.43196   0.41306   0.32767   0.00000  Uiso   1.00
H267   H     0.58017   0.13912   0.66962   0.00000  Uiso   1.00
O268   O     0.02632   0.45609   0.45504   0.00000  Uiso   1.00
O269   O     0.42575   0.39901   0.19295   0.00000  Uiso   1.00
O270   O     0.62020   0.03962   0.64158   0.00000  Uiso   1.00
N271   N     0.96047   0.39025   0.40566   0.00000  Uiso   1.00
N272   N     0.53251   0.34959   0.21888   0.00000  Uiso   1.00
N273   N     0.67105   0.09348   0.53856   0.00000  Uiso   1.00
N274   N     0.89933   0.43116   0.49000   0.00000  Uiso   1.00
N275   N     0.47136   0.39050   0.30322   0.00000  Uiso   1.00
N276   N     0.60990   0.13439   0.62291   0.00000  Uiso   1.00
C277   C     0.32536   0.01683   0.78675   0.00000  Uiso   1.00
C278   C     0.26265   0.97311   0.80671   0.00000  Uiso   1.00
C279   C     0.26403   0.92803   0.85717   0.00000  Uiso   1.00
C280   C     0.20109   0.89278   0.86766   0.00000  Uiso   1.00
C281   C     0.11315   0.82345   0.90454   0.00000  Uiso   1.00
C282   C     0.28827   0.07125   0.79764   0.00000  Uiso   1.00
C283   C     0.31119   0.10870   0.84047   0.00000  Uiso   1.00
C284   C     0.26982   0.15607   0.84332   0.00000  Uiso   1.00
C285   C     0.22169   0.23913   0.86608   0.00000  Uiso   1.00
C286   C     0.34687   0.01818   0.70720   0.00000  Uiso   1.00
C287   C     0.41907   0.01101   0.67398   0.00000  Uiso   1.00
C288   C     0.42704   0.01372   0.60068   0.00000  Uiso   1.00
C289   C     0.46989   0.01438   0.48303   0.00000  Uiso   1.00
C290   C     0.21113   0.03440   0.71566   0.00000  Uiso   1.00
C291   C     0.20061   0.98265   0.76809   0.00000  Uiso   1.00
C292   C     0.13766   0.94746   0.77851   0.00000  Uiso   1.00
C293   C     0.13894   0.90233   0.82897   0.00000  Uiso   1.00
C294   C     0.22623   0.08080   0.75902   0.00000  Uiso   1.00
C295   C     0.18482   0.12813   0.76181   0.00000  Uiso   1.00
C296   C     0.20767   0.16563   0.80463   0.00000  Uiso   1.00
C297   C     0.28483   0.02772   0.66858   0.00000  Uiso   1.00
C298   C     0.29269   0.03044   0.59532   0.00000  Uiso   1.00
C299   C     0.36489   0.02328   0.56200   0.00000  Uiso   1.00
H300   H     0.37366   0.00941   0.81682   0.00000  Uiso   1.00
H301   H     0.31205   0.92066   0.88705   0.00000  Uiso   1.00
H302   H     0.35921   0.10130   0.87034   0.00000  Uiso   1.00
H303   H     0.46706   0.00363   0.70388   0.00000  Uiso   1.00
H304   H     0.21638   0.82648   0.94789   0.00000  Uiso   1.00
H305   H     0.31583   0.20739   0.91265   0.00000  Uiso   1.00
H306   H     0.54327   0.00143   0.56164   0.00000  Uiso   1.00
H307   H     0.16283   0.04183   0.68559   0.00000  Uiso   1.00
H308   H     0.08966   0.95485   0.74862   0.00000  Uiso   1.00
H309   H     0.13682   0.13550   0.73191   0.00000  Uiso   1.00
H310   H     0.24467   0.03783   0.56546   0.00000  Uiso   1.00
H311   H     0.03587   0.85424   0.83554   0.00000  Uiso   1.00
H312   H     0.13533   0.23514   0.80030   0.00000  Uiso   1.00
H313   H     0.36276   0.02919   0.44929   0.00000  Uiso   1.00
O314   O     0.08178   0.78257   0.93556   0.00000  Uiso   1.00
O315   O     0.21227   0.28231   0.88931   0.00000  Uiso   1.00
O316   O     0.51066   0.01209   0.42880   0.00000  Uiso   1.00
N317   N     0.18394   0.84495   0.91279   0.00000  Uiso   1.00
N318   N     0.27692   0.20106   0.87985   0.00000  Uiso   1.00
N319   N     0.48956   0.00853   0.55168   0.00000  Uiso   1.00
N320   N     0.08682   0.85988   0.85233   0.00000  Uiso   1.00
N321   N     0.17979   0.21600   0.81939   0.00000  Uiso   1.00
N322   N     0.39243   0.02346   0.49123   0.00000  Uiso   1.00
C323   C     0.91683   0.36249   0.69925   0.00000  Uiso   1.00
C324   C     0.90384   0.32201   0.64691   0.00000  Uiso   1.00
C325   C     0.95179   0.31487   0.58644   0.00000  Uiso   1.00
C326   C     0.92983   0.27574   0.54546   0.00000  Uiso   1.00
C327   C     0.91995   0.21756   0.46133   0.00000  Uiso   1.00
C328   C     0.91465   0.32870   0.77139   0.00000  Uiso   1.00
C329   C     0.97169   0.32719   0.81559   0.00000  Uiso   1.00
C330   C     0.95882   0.29369   0.87941   0.00000  Uiso   1.00
C331   C     0.96571   0.24593   0.98857   0.00000  Uiso   1.00
C332   C     0.84682   0.39784   0.70329   0.00000  Uiso   1.00
C333   C     0.84683   0.45446   0.69024   0.00000  Uiso   1.00
C334   C     0.77686   0.47918   0.69674   0.00000  Uiso   1.00
C335   C     0.67843   0.53876   0.70015   0.00000  Uiso   1.00
C336   C     0.79254   0.30570   0.73403   0.00000  Uiso   1.00
C337   C     0.83633   0.29116   0.66580   0.00000  Uiso   1.00
C338   C     0.81429   0.25204   0.62490   0.00000  Uiso   1.00
C339   C     0.86220   0.24484   0.56438   0.00000  Uiso   1.00
C340   C     0.84715   0.29785   0.79028   0.00000  Uiso   1.00
C341   C     0.83419   0.26435   0.85406   0.00000  Uiso   1.00
C342   C     0.89120   0.26279   0.89833   0.00000  Uiso   1.00
C343   C     0.77932   0.36699   0.72217   0.00000  Uiso   1.00
C344   C     0.70933   0.39163   0.72870   0.00000  Uiso   1.00
C345   C     0.70923   0.44828   0.71566   0.00000  Uiso   1.00
H346   H     0.96938   0.38650   0.68455   0.00000  Uiso   1.00
H347   H     0.00403   0.33875   0.57184   0.00000  Uiso   1.00
H348   H     0.02392   0.35107   0.80096   0.00000  Uiso   1.00
H349   H     0.89908   0.47832   0.67563   0.00000  Uiso   1.00
H350   H     0.01269   0.27218   0.45522   0.00000  Uiso   1.00
H351   H     0.05462   0.29818   0.93834   0.00000  Uiso   1.00
H352   H     0.79138   0.56652   0.67405   0.00000  Uiso   1.00
H353   H     0.73999   0.28168   0.74873   0.00000  Uiso   1.00
H354   H     0.76205   0.22817   0.63953   0.00000  Uiso   1.00
H355   H     0.78194   0.24049   0.86866   0.00000  Uiso   1.00
H356   H     0.65710   0.36774   0.74332   0.00000  Uiso   1.00
H357   H     0.81629   0.18243   0.51016   0.00000  Uiso   1.00
H358   H     0.85822   0.20843   0.99329   0.00000  Uiso   1.00
H359   H     0.59498   0.47676   0.72900   0.00000  Uiso   1.00
O360   O     0.93315   0.19399   0.40971   0.00000  Uiso   1.00
O361   O     0.98816   0.22810   0.04355   0.00000  Uiso   1.00
O362   O     0.64279   0.58015   0.69681   0.00000  Uiso   1.00
N363   N     0.96343   0.25841   0.48313   0.00000  Uiso   1.00
N364   N     0.00264   0.28271   0.93481   0.00000  Uiso   1.00
N365   N     0.75653   0.53358   0.68774   0.00000  Uiso   1.00
N366   N     0.85775   0.21012   0.51269   0.00000  Uiso   1.00
N367   N     0.89696   0.23441   0.96438   0.00000  Uiso   1.00
N368   N     0.65085   0.48529   0.71731   0.00000  Uiso   1.00
C369   C     0.96740   0.07629   0.32778   0.00000  Uiso   1.00
C370   C     0.89200   0.07363   0.29694   0.00000  Uiso   1.00
C371   C     0.83041   0.10646   0.31108   0.00000  Uiso   1.00
C372   C     0.76660   0.09765   0.27759   0.00000  Uiso   1.00
C373   C     0.64986   0.09966   0.23667   0.00000  Uiso   1.00
C374   C     0.02843   0.08553   0.26463   0.00000  Uiso   1.00
C375   C     0.08154   0.12836   0.25161   0.00000  Uiso   1.00
C376   C     0.13258   0.12956   0.19093   0.00000  Uiso   1.00
C377   C     0.22767   0.15002   0.09987   0.00000  Uiso   1.00
C378   C     0.97918   0.01898   0.36378   0.00000  Uiso   1.00
C379   C     0.99091   0.00586   0.43413   0.00000  Uiso   1.00
C380   C     0.00051   0.95104   0.45692   0.00000  Uiso   1.00
C381   C     0.01914   0.86818   0.51981   0.00000  Uiso   1.00
C382   C     0.96362   0.00226   0.24316   0.00000  Uiso   1.00
C383   C     0.88995   0.03342   0.25098   0.00000  Uiso   1.00
C384   C     0.82622   0.02456   0.21746   0.00000  Uiso   1.00
C385   C     0.76454   0.05737   0.23155   0.00000  Uiso   1.00
C386   C     0.02638   0.04532   0.21867   0.00000  Uiso   1.00
C387   C     0.07735   0.04646   0.15799   0.00000  Uiso   1.00
C388   C     0.13052   0.08928   0.14488   0.00000  Uiso   1.00
C389   C     0.97713   0.97877   0.31782   0.00000  Uiso   1.00
C390   C     0.98672   0.92397   0.34051   0.00000  Uiso   1.00
C391   C     0.99845   0.91077   0.41088   0.00000  Uiso   1.00
H392   H     0.96901   0.10759   0.36356   0.00000  Uiso   1.00
H393   H     0.83202   0.13757   0.34664   0.00000  Uiso   1.00
H394   H     0.08312   0.15946   0.28719   0.00000  Uiso   1.00
H395   H     0.99250   0.03699   0.46968   0.00000  Uiso   1.00
H396   H     0.67926   0.15309   0.30760   0.00000  Uiso   1.00
H397   H     0.20872   0.19925   0.18225   0.00000  Uiso   1.00
H398   H     0.01764   0.94098   0.56707   0.00000  Uiso   1.00
H399   H     0.96202   0.97096   0.20738   0.00000  Uiso   1.00
H400   H     0.82465   0.99344   0.18190   0.00000  Uiso   1.00
H401   H     0.07575   0.01534   0.12244   0.00000  Uiso   1.00
H402   H     0.98513   0.89286   0.30493   0.00000  Uiso   1.00
H403   H     0.67327   0.03612   0.17389   0.00000  Uiso   1.00
H404   H     0.20274   0.08227   0.04853   0.00000  Uiso   1.00
H405   H     0.01165   0.82401   0.43335   0.00000  Uiso   1.00
O406   O     0.58603   0.11187   0.22678   0.00000  Uiso   1.00
O407   O     0.28068   0.17242   0.06233   0.00000  Uiso   1.00
O408   O     0.02997   0.83358   0.56720   0.00000  Uiso   1.00
N409   N     0.69669   0.12247   0.27964   0.00000  Uiso   1.00
N410   N     0.19171   0.16562   0.16244   0.00000  Uiso   1.00
N411   N     0.01308   0.92417   0.52220   0.00000  Uiso   1.00
N412   N     0.69347   0.05953   0.20769   0.00000  Uiso   1.00
N413   N     0.18849   0.10268   0.09049   0.00000  Uiso   1.00
N414   N     0.00986   0.86123   0.45025   0.00000  Uiso   1.00
C415   C     0.85900   0.50169   0.16551   0.00000  Uiso   1.00
C416   C     0.79311   0.49501   0.12217   0.00000  Uiso   1.00
C417   C     0.77944   0.52849   0.06173   0.00000  Uiso   1.00
C418   C     0.71614   0.51555   0.02975   0.00000  Uiso   1.00
C419   C     0.62108   0.51203   0.95828   0.00000  Uiso   1.00
C420   C     0.82338   0.50592   0.24088   0.00000  Uiso   1.00
C421   C     0.83517   0.54858   0.28026   0.00000  Uiso   1.00
C422   C     0.79736   0.54482   0.34822   0.00000  Uiso   1.00
C423   C     0.74934   0.55821   0.46108   0.00000  Uiso   1.00
C424   C     0.90013   0.44758   0.16821   0.00000  Uiso   1.00
C425   C     0.97646   0.44116   0.14651   0.00000  Uiso   1.00
C426   C     0.00326   0.38828   0.15329   0.00000  Uiso   1.00
C427   C     0.07441   0.31108   0.15331   0.00000  Uiso   1.00
C428   C     0.77090   0.41917   0.21618   0.00000  Uiso   1.00
C429   C     0.74526   0.45019   0.14969   0.00000  Uiso   1.00
C430   C     0.68196   0.43719   0.11779   0.00000  Uiso   1.00
C431   C     0.66820   0.47065   0.05731   0.00000  Uiso   1.00
C432   C     0.77553   0.46111   0.26840   0.00000  Uiso   1.00
C433   C     0.73769   0.45728   0.33632   0.00000  Uiso   1.00
C434   C     0.74941   0.49991   0.37579   0.00000  Uiso   1.00
C435   C     0.85228   0.40275   0.19573   0.00000  Uiso   1.00
C436   C     0.87897   0.34987   0.20256   0.00000  Uiso   1.00
C437   C     0.95532   0.34338   0.18086   0.00000  Uiso   1.00
H438   H     0.89626   0.53658   0.14409   0.00000  Uiso   1.00
H439   H     0.81648   0.56318   0.04046   0.00000  Uiso   1.00
H440   H     0.87221   0.58325   0.25896   0.00000  Uiso   1.00
H441   H     0.01347   0.47586   0.12521   0.00000  Uiso   1.00
H442   H     0.70692   0.57291   0.93771   0.00000  Uiso   1.00
H443   H     0.82444   0.61523   0.39843   0.00000  Uiso   1.00
H444   H     0.12232   0.38877   0.11641   0.00000  Uiso   1.00
H445   H     0.73364   0.38427   0.23760   0.00000  Uiso   1.00
H446   H     0.64494   0.40251   0.13909   0.00000  Uiso   1.00
H447   H     0.70067   0.42259   0.35760   0.00000  Uiso   1.00
H448   H     0.84192   0.31519   0.22385   0.00000  Uiso   1.00
H449   H     0.56768   0.44251   0.01777   0.00000  Uiso   1.00
H450   H     0.68521   0.48483   0.47850   0.00000  Uiso   1.00
H451   H     0.98308   0.25837   0.19647   0.00000  Uiso   1.00
O452   O     0.58187   0.52247   0.91126   0.00000  Uiso   1.00
O453   O     0.73607   0.57799   0.51572   0.00000  Uiso   1.00
O454   O     0.12687   0.28087   0.14571   0.00000  Uiso   1.00
N455   N     0.68633   0.53971   0.97006   0.00000  Uiso   1.00
N456   N     0.79620   0.57928   0.40081   0.00000  Uiso   1.00
N457   N     0.07469   0.36756   0.13716   0.00000  Uiso   1.00
N458   N     0.61141   0.46954   0.01314   0.00000  Uiso   1.00
N459   N     0.72128   0.50911   0.44389   0.00000  Uiso   1.00
N460   N     0.99977   0.29739   0.18024   0.00000  Uiso   1.00
C461   C     0.42698   0.39652   0.60083   0.00000  Uiso   1.00
C462   C     0.41331   0.35625   0.54841   0.00000  Uiso   1.00
C463   C     0.44989   0.30718   0.54268   0.00000  Uiso   1.00
C464   C     0.42938   0.27613   0.49136   0.00000  Uiso   1.00
C465   C     0.41655   0.21097   0.41663   0.00000  Uiso   1.00
C466   C     0.44811   0.45116   0.55653   0.00000  Uiso   1.00
C467   C     0.51396   0.48188   0.55763   0.00000  Uiso   1.00
C468   C     0.52274   0.53074   0.51314   0.00000  Uiso   1.00
C469   C     0.56393   0.61293   0.45105   0.00000  Uiso   1.00
C470   C     0.34997   0.40417   0.64206   0.00000  Uiso   1.00
C471   C     0.33331   0.39540   0.71509   0.00000  Uiso   1.00
C472   C     0.25946   0.40471   0.74261   0.00000  Uiso   1.00
C473   C     0.14827   0.41395   0.81333   0.00000  Uiso   1.00
C474   C     0.32547   0.42865   0.51986   0.00000  Uiso   1.00
C475   C     0.35817   0.37370   0.50443   0.00000  Uiso   1.00
C476   C     0.33759   0.34273   0.45310   0.00000  Uiso   1.00
C477   C     0.37414   0.29362   0.44730   0.00000  Uiso   1.00
C478   C     0.39298   0.46861   0.51255   0.00000  Uiso   1.00
C479   C     0.40166   0.51743   0.46805   0.00000  Uiso   1.00
C480   C     0.46750   0.54822   0.46908   0.00000  Uiso   1.00
C481   C     0.29484   0.42162   0.59808   0.00000  Uiso   1.00
C482   C     0.22100   0.43095   0.62550   0.00000  Uiso   1.00
C483   C     0.20422   0.42219   0.69856   0.00000  Uiso   1.00
H484   H     0.46991   0.38293   0.63507   0.00000  Uiso   1.00
H485   H     0.49257   0.29368   0.57672   0.00000  Uiso   1.00
H486   H     0.55662   0.46837   0.59168   0.00000  Uiso   1.00
H487   H     0.37599   0.38189   0.74910   0.00000  Uiso   1.00
H488   H     0.49339   0.20245   0.49263   0.00000  Uiso   1.00
H489   H     0.62843   0.57078   0.52417   0.00000  Uiso   1.00
H490   H     0.24755   0.38844   0.85614   0.00000  Uiso   1.00
H491   H     0.28255   0.44224   0.48562   0.00000  Uiso   1.00
H492   H     0.29492   0.35624   0.41907   0.00000  Uiso   1.00
H493   H     0.35898   0.53093   0.43403   0.00000  Uiso   1.00
H494   H     0.17835   0.44446   0.59145   0.00000  Uiso   1.00
H495   H     0.33297   0.25322   0.36467   0.00000  Uiso   1.00
H496   H     0.46802   0.62156   0.39621   0.00000  Uiso   1.00
H497   H     0.08713   0.43922   0.72819   0.00000  Uiso   1.00
O498   O     0.42472   0.17020   0.38755   0.00000  Uiso   1.00
O499   O     0.60189   0.65345   0.42895   0.00000  Uiso   1.00
O500   O     0.10217   0.41422   0.86449   0.00000  Uiso   1.00
N501   N     0.45392   0.22619   0.47165   0.00000  Uiso   1.00
N502   N     0.58019   0.57056   0.50114   0.00000  Uiso   1.00
N503   N     0.22410   0.40010   0.81150   0.00000  Uiso   1.00
N504   N     0.36761   0.25351   0.40280   0.00000  Uiso   1.00
N505   N     0.49387   0.59788   0.43228   0.00000  Uiso   1.00
N506   N     0.13778   0.42742   0.74265   0.00000  Uiso   1.00
C507   C     0.47540   0.88715   0.30174   0.00000  Uiso   1.00
C508   C     0.39796   0.85884   0.30505   0.00000  Uiso   1.00
C509   C     0.33897   0.85951   0.35900   0.00000  Uiso   1.00
C510   C     0.27264   0.83108   0.35220   0.00000  Uiso   1.00
C511   C     0.15348   0.79137   0.36628   0.00000  Uiso   1.00
C512   C     0.53372   0.84259   0.29415   0.00000  Uiso   1.00
C513   C     0.58888   0.82959   0.33891   0.00000  Uiso   1.00
C514   C     0.63683   0.78748   0.32293   0.00000  Uiso   1.00
C515   C     0.72848   0.72256   0.32004   0.00000  Uiso   1.00
C516   C     0.48568   0.92461   0.23202   0.00000  Uiso   1.00
C517   C     0.50046   0.98058   0.22455   0.00000  Uiso   1.00
C518   C     0.50798   0.00753   0.15626   0.00000  Uiso   1.00
C519   C     0.52503   0.06996   0.05692   0.00000  Uiso   1.00
C520   C     0.46251   0.83547   0.19375   0.00000  Uiso   1.00
C521   C     0.39096   0.83077   0.24639   0.00000  Uiso   1.00
C522   C     0.32470   0.80234   0.23951   0.00000  Uiso   1.00
C523   C     0.26562   0.80296   0.29344   0.00000  Uiso   1.00
C524   C     0.52672   0.81452   0.23549   0.00000  Uiso   1.00
C525   C     0.57461   0.77242   0.21943   0.00000  Uiso   1.00
C526   C     0.62982   0.75936   0.26416   0.00000  Uiso   1.00
C527   C     0.47867   0.89654   0.17336   0.00000  Uiso   1.00
C528   C     0.48619   0.92341   0.10507   0.00000  Uiso   1.00
C529   C     0.50097   0.97941   0.09749   0.00000  Uiso   1.00
H530   H     0.48086   0.90900   0.34741   0.00000  Uiso   1.00
H531   H     0.34441   0.88123   0.40439   0.00000  Uiso   1.00
H532   H     0.59429   0.85133   0.38430   0.00000  Uiso   1.00
H533   H     0.50588   0.00229   0.26996   0.00000  Uiso   1.00
H534   H     0.19006   0.83805   0.44170   0.00000  Uiso   1.00
H535   H     0.71695   0.77500   0.39933   0.00000  Uiso   1.00
H536   H     0.53052   0.09334   0.15822   0.00000  Uiso   1.00
H537   H     0.45705   0.81362   0.14807   0.00000  Uiso   1.00
H538   H     0.31930   0.78062   0.19411   0.00000  Uiso   1.00
H539   H     0.56917   0.75071   0.17403   0.00000  Uiso   1.00
H540   H     0.48076   0.90167   0.05968   0.00000  Uiso   1.00
H541   H     0.16968   0.75638   0.27103   0.00000  Uiso   1.00
H542   H     0.69657   0.69333   0.22866   0.00000  Uiso   1.00
H543   H     0.51014   0.01167   0.98755   0.00000  Uiso   1.00
O544   O     0.08969   0.77721   0.39026   0.00000  Uiso   1.00
O545   O     0.78096   0.69450   0.33467   0.00000  Uiso   1.00
O546   O     0.53636   0.11215   0.01834   0.00000  Uiso   1.00
N547   N     0.20416   0.82337   0.39521   0.00000  Uiso   1.00
N548   N     0.69677   0.76441   0.35560   0.00000  Uiso   1.00
N549   N     0.52249   0.06203   0.13018   0.00000  Uiso   1.00
N550   N     0.19320   0.77943   0.30337   0.00000  Uiso   1.00
N551   N     0.68580   0.72047   0.26377   0.00000  Uiso   1.00
N552   N     0.51152   0.01809   0.03835   0.00000  Uiso   1.00
