data_job_03961
_audit_creation_date              2018-12-19
_audit_creation_method            'Materials Studio'
_symmetry_space_group_name_H-M    'P1'
_symmetry_Int_Tables_number       1
_symmetry_cell_setting            triclinic
loop_
_symmetry_equiv_pos_as_xyz
  x,y,z
_cell_length_a                    19.7537
_cell_length_b                    19.7537
_cell_length_c                    12.0529
_cell_angle_alpha                 90.0000
_cell_angle_beta                  90.0000
_cell_angle_gamma                 120.0000
loop_
_atom_site_label
_atom_site_type_symbol
_atom_site_fract_x
_atom_site_fract_y
_atom_site_fract_z
_atom_site_U_iso_or_equiv
_atom_site_adp_type
_atom_site_occupancy
C1     C     0.06184   0.28007   0.82703   0.00000  Uiso   1.00
C2     C     0.98780   0.22364   0.76417   0.00000  Uiso   1.00
C3     C     0.96016   0.14446   0.74860   0.00000  Uiso   1.00
C4     C     0.89135   0.10291   0.68867   0.00000  Uiso   1.00
C5     C     0.78244   0.00977   0.59751   0.00000  Uiso   1.00
C6     C     0.11139   0.34569   0.74592   0.00000  Uiso   1.00
C7     C     0.18768   0.36913   0.71502   0.00000  Uiso   1.00
C8     C     0.22291   0.43033   0.63974   0.00000  Uiso   1.00
C9     C     0.30590   0.52671   0.52032   0.00000  Uiso   1.00
C10    C     0.03626   0.31680   0.91704   0.00000  Uiso   1.00
C11    C     0.04939   0.31596   0.03002   0.00000  Uiso   1.00
C12    C     0.02138   0.35285   0.09880   0.00000  Uiso   1.00
C13    C     0.98771   0.40436   0.24507   0.00000  Uiso   1.00
C14    C     0.98877   0.34708   0.74830   0.00000  Uiso   1.00
C15    C     0.94811   0.26005   0.72140   0.00000  Uiso   1.00
C16    C     0.87931   0.21861   0.66148   0.00000  Uiso   1.00
C17    C     0.85158   0.13937   0.64583   0.00000  Uiso   1.00
C18    C     0.07171   0.38209   0.70315   0.00000  Uiso   1.00
C19    C     0.10683   0.44327   0.62791   0.00000  Uiso   1.00
C20    C     0.18315   0.46680   0.59689   0.00000  Uiso   1.00
C21    C     0.99657   0.35320   0.87427   0.00000  Uiso   1.00
C22    C     0.96854   0.39010   0.94290   0.00000  Uiso   1.00
C23    C     0.98162   0.38932   0.05596   0.00000  Uiso   1.00
H24    H     0.09275   0.25173   0.86032   0.00000  Uiso   1.00
H25    H     0.99090   0.11631   0.78170   0.00000  Uiso   1.00
H26    H     0.21838   0.34095   0.74814   0.00000  Uiso   1.00
H27    H     0.08011   0.28779   0.06308   0.00000  Uiso   1.00
H28    H     0.86050   0.98224   0.67563   0.00000  Uiso   1.00
H29    H     0.34016   0.45592   0.60489   0.00000  Uiso   1.00
H30    H     0.04859   0.34381   0.26902   0.00000  Uiso   1.00
H31    H     0.95787   0.37543   0.71500   0.00000  Uiso   1.00
H32    H     0.84861   0.24679   0.62840   0.00000  Uiso   1.00
H33    H     0.07610   0.47143   0.59484   0.00000  Uiso   1.00
H34    H     0.93783   0.41826   0.90978   0.00000  Uiso   1.00
H35    H     0.74501   0.08814   0.55120   0.00000  Uiso   1.00
H36    H     0.22468   0.56182   0.48047   0.00000  Uiso   1.00
H37    H     0.93311   0.44971   0.14459   0.00000  Uiso   1.00
O38    O     0.73333   0.94834   0.55904   0.00000  Uiso   1.00
O39    O     0.36264   0.56980   0.46626   0.00000  Uiso   1.00
O40    O     0.98010   0.42271   0.33756   0.00000  Uiso   1.00
N41    N     0.84830   0.02481   0.65825   0.00000  Uiso   1.00
N42    N     0.29676   0.46767   0.59210   0.00000  Uiso   1.00
N43    N     0.02418   0.36287   0.21300   0.00000  Uiso   1.00
N44    N     0.78616   0.08179   0.59130   0.00000  Uiso   1.00
N45    N     0.23462   0.52465   0.52515   0.00000  Uiso   1.00
N46    N     0.96204   0.41986   0.14604   0.00000  Uiso   1.00
C47    C     0.71993   0.78178   0.82703   0.00000  Uiso   1.00
C48    C     0.77636   0.76416   0.76417   0.00000  Uiso   1.00
C49    C     0.85554   0.81570   0.74860   0.00000  Uiso   1.00
C50    C     0.89709   0.78844   0.68867   0.00000  Uiso   1.00
C51    C     0.99023   0.77267   0.59751   0.00000  Uiso   1.00
C52    C     0.65431   0.76570   0.74592   0.00000  Uiso   1.00
C53    C     0.63087   0.81855   0.71502   0.00000  Uiso   1.00
C54    C     0.56967   0.79258   0.63974   0.00000  Uiso   1.00
C55    C     0.47329   0.77919   0.52032   0.00000  Uiso   1.00
C56    C     0.68320   0.71947   0.91704   0.00000  Uiso   1.00
C57    C     0.68404   0.73343   0.03002   0.00000  Uiso   1.00
C58    C     0.64715   0.66853   0.09880   0.00000  Uiso   1.00
C59    C     0.59564   0.58335   0.24507   0.00000  Uiso   1.00
C60    C     0.65292   0.64168   0.74830   0.00000  Uiso   1.00
C61    C     0.73995   0.68807   0.72140   0.00000  Uiso   1.00
C62    C     0.78139   0.66071   0.66148   0.00000  Uiso   1.00
C63    C     0.86063   0.71221   0.64583   0.00000  Uiso   1.00
C64    C     0.61791   0.68962   0.70315   0.00000  Uiso   1.00
C65    C     0.55673   0.66356   0.62791   0.00000  Uiso   1.00
C66    C     0.53320   0.71635   0.59689   0.00000  Uiso   1.00
C67    C     0.64680   0.64337   0.87427   0.00000  Uiso   1.00
C68    C     0.60990   0.57844   0.94290   0.00000  Uiso   1.00
C69    C     0.61068   0.59230   0.05596   0.00000  Uiso   1.00
H70    H     0.74827   0.84102   0.86032   0.00000  Uiso   1.00
H71    H     0.88369   0.87459   0.78170   0.00000  Uiso   1.00
H72    H     0.65905   0.87743   0.74814   0.00000  Uiso   1.00
H73    H     0.71221   0.79232   0.06308   0.00000  Uiso   1.00
H74    H     0.01776   0.87826   0.67563   0.00000  Uiso   1.00
H75    H     0.54408   0.88424   0.60489   0.00000  Uiso   1.00
H76    H     0.65619   0.70478   0.26902   0.00000  Uiso   1.00
H77    H     0.62457   0.58244   0.71500   0.00000  Uiso   1.00
H78    H     0.75321   0.60182   0.62840   0.00000  Uiso   1.00
H79    H     0.52857   0.60467   0.59484   0.00000  Uiso   1.00
H80    H     0.58174   0.51956   0.90978   0.00000  Uiso   1.00
H81    H     0.91186   0.65688   0.55120   0.00000  Uiso   1.00
H82    H     0.43818   0.66286   0.48047   0.00000  Uiso   1.00
H83    H     0.55029   0.48340   0.14459   0.00000  Uiso   1.00
O84    O     0.05166   0.78499   0.55904   0.00000  Uiso   1.00
O85    O     0.43020   0.79284   0.46626   0.00000  Uiso   1.00
O86    O     0.57729   0.55739   0.33756   0.00000  Uiso   1.00
N87    N     0.97519   0.82349   0.65825   0.00000  Uiso   1.00
N88    N     0.53233   0.82909   0.59210   0.00000  Uiso   1.00
N89    N     0.63713   0.66131   0.21300   0.00000  Uiso   1.00
N90    N     0.91821   0.70437   0.59130   0.00000  Uiso   1.00
N91    N     0.47535   0.70996   0.52515   0.00000  Uiso   1.00
N92    N     0.58014   0.54218   0.14604   0.00000  Uiso   1.00
C93    C     0.21822   0.93816   0.82703   0.00000  Uiso   1.00
C94    C     0.23584   0.01220   0.76417   0.00000  Uiso   1.00
C95    C     0.18430   0.03984   0.74860   0.00000  Uiso   1.00
C96    C     0.21156   0.10865   0.68867   0.00000  Uiso   1.00
C97    C     0.22733   0.21756   0.59751   0.00000  Uiso   1.00
C98    C     0.23430   0.88861   0.74592   0.00000  Uiso   1.00
C99    C     0.18145   0.81232   0.71502   0.00000  Uiso   1.00
C100   C     0.20742   0.77709   0.63974   0.00000  Uiso   1.00
C101   C     0.22081   0.69410   0.52032   0.00000  Uiso   1.00
C102   C     0.28053   0.96374   0.91704   0.00000  Uiso   1.00
C103   C     0.26657   0.95061   0.03002   0.00000  Uiso   1.00
C104   C     0.33147   0.97862   0.09880   0.00000  Uiso   1.00
C105   C     0.41665   0.01229   0.24507   0.00000  Uiso   1.00
C106   C     0.35832   0.01123   0.74830   0.00000  Uiso   1.00
C107   C     0.31193   0.05189   0.72140   0.00000  Uiso   1.00
C108   C     0.33929   0.12069   0.66148   0.00000  Uiso   1.00
C109   C     0.28779   0.14842   0.64583   0.00000  Uiso   1.00
C110   C     0.31038   0.92829   0.70315   0.00000  Uiso   1.00
C111   C     0.33644   0.89317   0.62791   0.00000  Uiso   1.00
C112   C     0.28365   0.81685   0.59689   0.00000  Uiso   1.00
C113   C     0.35663   0.00343   0.87427   0.00000  Uiso   1.00
C114   C     0.42156   0.03146   0.94290   0.00000  Uiso   1.00
C115   C     0.40770   0.01838   0.05596   0.00000  Uiso   1.00
H116   H     0.15898   0.90725   0.86032   0.00000  Uiso   1.00
H117   H     0.12541   0.00910   0.78170   0.00000  Uiso   1.00
H118   H     0.12257   0.78162   0.74814   0.00000  Uiso   1.00
H119   H     0.20768   0.91989   0.06308   0.00000  Uiso   1.00
H120   H     0.12174   0.13950   0.67563   0.00000  Uiso   1.00
H121   H     0.11576   0.65984   0.60489   0.00000  Uiso   1.00
H122   H     0.29522   0.95141   0.26902   0.00000  Uiso   1.00
H123   H     0.41756   0.04213   0.71500   0.00000  Uiso   1.00
H124   H     0.39818   0.15139   0.62840   0.00000  Uiso   1.00
H125   H     0.39533   0.92390   0.59484   0.00000  Uiso   1.00
H126   H     0.48044   0.06217   0.90978   0.00000  Uiso   1.00
H127   H     0.34312   0.25499   0.55120   0.00000  Uiso   1.00
H128   H     0.33714   0.77532   0.48047   0.00000  Uiso   1.00
H129   H     0.51660   0.06689   0.14459   0.00000  Uiso   1.00
O130   O     0.21501   0.26667   0.55904   0.00000  Uiso   1.00
O131   O     0.20716   0.63736   0.46626   0.00000  Uiso   1.00
O132   O     0.44261   0.01990   0.33756   0.00000  Uiso   1.00
N133   N     0.17651   0.15170   0.65825   0.00000  Uiso   1.00
N134   N     0.17091   0.70324   0.59210   0.00000  Uiso   1.00
N135   N     0.33869   0.97582   0.21300   0.00000  Uiso   1.00
N136   N     0.29563   0.21384   0.59130   0.00000  Uiso   1.00
N137   N     0.29004   0.76538   0.52515   0.00000  Uiso   1.00
N138   N     0.45782   0.03796   0.14604   0.00000  Uiso   1.00
C139   C     0.93816   0.71993   0.17297   0.00000  Uiso   1.00
C140   C     0.01220   0.77636   0.23583   0.00000  Uiso   1.00
C141   C     0.03984   0.85554   0.25140   0.00000  Uiso   1.00
C142   C     0.10865   0.89709   0.31133   0.00000  Uiso   1.00
C143   C     0.21756   0.99023   0.40249   0.00000  Uiso   1.00
C144   C     0.88861   0.65431   0.25408   0.00000  Uiso   1.00
C145   C     0.81232   0.63087   0.28498   0.00000  Uiso   1.00
C146   C     0.77709   0.56967   0.36026   0.00000  Uiso   1.00
C147   C     0.69410   0.47329   0.47968   0.00000  Uiso   1.00
C148   C     0.96374   0.68320   0.08296   0.00000  Uiso   1.00
C149   C     0.95061   0.68404   0.96998   0.00000  Uiso   1.00
C150   C     0.97862   0.64715   0.90120   0.00000  Uiso   1.00
C151   C     0.01229   0.59564   0.75493   0.00000  Uiso   1.00
C152   C     0.01123   0.65292   0.25170   0.00000  Uiso   1.00
C153   C     0.05189   0.73995   0.27860   0.00000  Uiso   1.00
C154   C     0.12069   0.78139   0.33852   0.00000  Uiso   1.00
C155   C     0.14842   0.86063   0.35417   0.00000  Uiso   1.00
C156   C     0.92829   0.61791   0.29685   0.00000  Uiso   1.00
C157   C     0.89317   0.55673   0.37209   0.00000  Uiso   1.00
C158   C     0.81685   0.53320   0.40311   0.00000  Uiso   1.00
C159   C     0.00343   0.64680   0.12573   0.00000  Uiso   1.00
C160   C     0.03146   0.60990   0.05710   0.00000  Uiso   1.00
C161   C     0.01838   0.61068   0.94404   0.00000  Uiso   1.00
H162   H     0.90725   0.74827   0.13968   0.00000  Uiso   1.00
H163   H     0.00910   0.88369   0.21830   0.00000  Uiso   1.00
H164   H     0.78162   0.65905   0.25186   0.00000  Uiso   1.00
H165   H     0.91989   0.71221   0.93692   0.00000  Uiso   1.00
H166   H     0.13950   0.01776   0.32437   0.00000  Uiso   1.00
H167   H     0.65984   0.54408   0.39511   0.00000  Uiso   1.00
H168   H     0.95141   0.65619   0.73098   0.00000  Uiso   1.00
H169   H     0.04213   0.62457   0.28500   0.00000  Uiso   1.00
H170   H     0.15139   0.75321   0.37160   0.00000  Uiso   1.00
H171   H     0.92390   0.52857   0.40517   0.00000  Uiso   1.00
H172   H     0.06217   0.58174   0.09022   0.00000  Uiso   1.00
H173   H     0.25499   0.91186   0.44880   0.00000  Uiso   1.00
H174   H     0.77532   0.43818   0.51953   0.00000  Uiso   1.00
H175   H     0.06689   0.55029   0.85541   0.00000  Uiso   1.00
O176   O     0.26667   0.05166   0.44096   0.00000  Uiso   1.00
O177   O     0.63736   0.43020   0.53374   0.00000  Uiso   1.00
O178   O     0.01990   0.57729   0.66244   0.00000  Uiso   1.00
N179   N     0.15170   0.97519   0.34175   0.00000  Uiso   1.00
N180   N     0.70324   0.53233   0.40790   0.00000  Uiso   1.00
N181   N     0.97582   0.63713   0.78700   0.00000  Uiso   1.00
N182   N     0.21384   0.91821   0.40870   0.00000  Uiso   1.00
N183   N     0.76538   0.47535   0.47485   0.00000  Uiso   1.00
N184   N     0.03796   0.58014   0.85396   0.00000  Uiso   1.00
C185   C     0.28007   0.21822   0.17297   0.00000  Uiso   1.00
C186   C     0.22364   0.23584   0.23583   0.00000  Uiso   1.00
C187   C     0.14446   0.18430   0.25140   0.00000  Uiso   1.00
C188   C     0.10291   0.21156   0.31133   0.00000  Uiso   1.00
C189   C     0.00977   0.22733   0.40249   0.00000  Uiso   1.00
C190   C     0.34569   0.23430   0.25408   0.00000  Uiso   1.00
C191   C     0.36913   0.18145   0.28498   0.00000  Uiso   1.00
C192   C     0.43033   0.20742   0.36026   0.00000  Uiso   1.00
C193   C     0.52671   0.22081   0.47968   0.00000  Uiso   1.00
C194   C     0.31680   0.28053   0.08296   0.00000  Uiso   1.00
C195   C     0.31596   0.26657   0.96998   0.00000  Uiso   1.00
C196   C     0.35285   0.33147   0.90120   0.00000  Uiso   1.00
C197   C     0.40436   0.41665   0.75493   0.00000  Uiso   1.00
C198   C     0.34708   0.35832   0.25170   0.00000  Uiso   1.00
C199   C     0.26005   0.31193   0.27860   0.00000  Uiso   1.00
C200   C     0.21861   0.33929   0.33852   0.00000  Uiso   1.00
C201   C     0.13937   0.28779   0.35417   0.00000  Uiso   1.00
C202   C     0.38209   0.31038   0.29685   0.00000  Uiso   1.00
C203   C     0.44327   0.33644   0.37209   0.00000  Uiso   1.00
C204   C     0.46680   0.28365   0.40311   0.00000  Uiso   1.00
C205   C     0.35320   0.35663   0.12573   0.00000  Uiso   1.00
C206   C     0.39010   0.42156   0.05710   0.00000  Uiso   1.00
C207   C     0.38932   0.40770   0.94404   0.00000  Uiso   1.00
H208   H     0.25173   0.15898   0.13968   0.00000  Uiso   1.00
H209   H     0.11631   0.12541   0.21830   0.00000  Uiso   1.00
H210   H     0.34095   0.12257   0.25186   0.00000  Uiso   1.00
H211   H     0.28779   0.20768   0.93692   0.00000  Uiso   1.00
H212   H     0.98224   0.12174   0.32437   0.00000  Uiso   1.00
H213   H     0.45592   0.11576   0.39511   0.00000  Uiso   1.00
H214   H     0.34381   0.29522   0.73098   0.00000  Uiso   1.00
H215   H     0.37543   0.41756   0.28500   0.00000  Uiso   1.00
H216   H     0.24679   0.39818   0.37160   0.00000  Uiso   1.00
H217   H     0.47143   0.39533   0.40517   0.00000  Uiso   1.00
H218   H     0.41826   0.48044   0.09022   0.00000  Uiso   1.00
H219   H     0.08814   0.34312   0.44880   0.00000  Uiso   1.00
H220   H     0.56182   0.33714   0.51953   0.00000  Uiso   1.00
H221   H     0.44971   0.51660   0.85541   0.00000  Uiso   1.00
O222   O     0.94834   0.21501   0.44096   0.00000  Uiso   1.00
O223   O     0.56980   0.20716   0.53374   0.00000  Uiso   1.00
O224   O     0.42271   0.44261   0.66244   0.00000  Uiso   1.00
N225   N     0.02481   0.17651   0.34175   0.00000  Uiso   1.00
N226   N     0.46767   0.17091   0.40790   0.00000  Uiso   1.00
N227   N     0.36287   0.33869   0.78700   0.00000  Uiso   1.00
N228   N     0.08179   0.29563   0.40870   0.00000  Uiso   1.00
N229   N     0.52465   0.29004   0.47485   0.00000  Uiso   1.00
N230   N     0.41986   0.45782   0.85396   0.00000  Uiso   1.00
C231   C     0.78178   0.06184   0.17297   0.00000  Uiso   1.00
C232   C     0.76416   0.98780   0.23583   0.00000  Uiso   1.00
C233   C     0.81570   0.96016   0.25140   0.00000  Uiso   1.00
C234   C     0.78844   0.89135   0.31133   0.00000  Uiso   1.00
C235   C     0.77267   0.78244   0.40249   0.00000  Uiso   1.00
C236   C     0.76570   0.11139   0.25408   0.00000  Uiso   1.00
C237   C     0.81855   0.18768   0.28498   0.00000  Uiso   1.00
C238   C     0.79258   0.22291   0.36026   0.00000  Uiso   1.00
C239   C     0.77919   0.30590   0.47968   0.00000  Uiso   1.00
C240   C     0.71947   0.03626   0.08296   0.00000  Uiso   1.00
C241   C     0.73343   0.04939   0.96998   0.00000  Uiso   1.00
C242   C     0.66853   0.02138   0.90120   0.00000  Uiso   1.00
C243   C     0.58335   0.98771   0.75493   0.00000  Uiso   1.00
C244   C     0.64168   0.98877   0.25170   0.00000  Uiso   1.00
C245   C     0.68807   0.94811   0.27860   0.00000  Uiso   1.00
C246   C     0.66071   0.87931   0.33852   0.00000  Uiso   1.00
C247   C     0.71221   0.85158   0.35417   0.00000  Uiso   1.00
C248   C     0.68962   0.07171   0.29685   0.00000  Uiso   1.00
C249   C     0.66356   0.10683   0.37209   0.00000  Uiso   1.00
C250   C     0.71635   0.18315   0.40311   0.00000  Uiso   1.00
C251   C     0.64337   0.99657   0.12573   0.00000  Uiso   1.00
C252   C     0.57844   0.96854   0.05710   0.00000  Uiso   1.00
C253   C     0.59230   0.98162   0.94404   0.00000  Uiso   1.00
H254   H     0.84102   0.09275   0.13968   0.00000  Uiso   1.00
H255   H     0.87459   0.99090   0.21830   0.00000  Uiso   1.00
H256   H     0.87743   0.21838   0.25186   0.00000  Uiso   1.00
H257   H     0.79232   0.08011   0.93692   0.00000  Uiso   1.00
H258   H     0.87826   0.86050   0.32437   0.00000  Uiso   1.00
H259   H     0.88424   0.34016   0.39511   0.00000  Uiso   1.00
H260   H     0.70478   0.04859   0.73098   0.00000  Uiso   1.00
H261   H     0.58244   0.95787   0.28500   0.00000  Uiso   1.00
H262   H     0.60182   0.84861   0.37160   0.00000  Uiso   1.00
H263   H     0.60467   0.07610   0.40517   0.00000  Uiso   1.00
H264   H     0.51956   0.93783   0.09022   0.00000  Uiso   1.00
H265   H     0.65688   0.74501   0.44880   0.00000  Uiso   1.00
H266   H     0.66286   0.22468   0.51953   0.00000  Uiso   1.00
H267   H     0.48340   0.93311   0.85541   0.00000  Uiso   1.00
O268   O     0.78499   0.73333   0.44096   0.00000  Uiso   1.00
O269   O     0.79284   0.36264   0.53374   0.00000  Uiso   1.00
O270   O     0.55739   0.98010   0.66244   0.00000  Uiso   1.00
N271   N     0.82349   0.84830   0.34175   0.00000  Uiso   1.00
N272   N     0.82909   0.29676   0.40790   0.00000  Uiso   1.00
N273   N     0.66131   0.02418   0.78700   0.00000  Uiso   1.00
N274   N     0.70437   0.78616   0.40870   0.00000  Uiso   1.00
N275   N     0.70996   0.23462   0.47485   0.00000  Uiso   1.00
N276   N     0.54218   0.96204   0.85396   0.00000  Uiso   1.00
