data_job_02539
_audit_creation_date              2018-12-19
_audit_creation_method            'Materials Studio'
_symmetry_space_group_name_H-M    'P1'
_symmetry_Int_Tables_number       1
_symmetry_cell_setting            triclinic
loop_
_symmetry_equiv_pos_as_xyz
  x,y,z
_cell_length_a                    22.3898
_cell_length_b                    22.3898
_cell_length_c                    12.5580
_cell_angle_alpha                 90.0000
_cell_angle_beta                  90.0000
_cell_angle_gamma                 90.0000
loop_
_atom_site_label
_atom_site_type_symbol
_atom_site_fract_x
_atom_site_fract_y
_atom_site_fract_z
_atom_site_U_iso_or_equiv
_atom_site_adp_type
_atom_site_occupancy
C1     C     0.94381   0.68282   0.85416   0.00000  Uiso   1.00
C2     C     0.98755   0.69911   0.76573   0.00000  Uiso   1.00
C3     C     0.04789   0.71116   0.77904   0.00000  Uiso   1.00
C4     C     0.08030   0.72519   0.68817   0.00000  Uiso   1.00
C5     C     0.15233   0.75022   0.56616   0.00000  Uiso   1.00
C6     C     0.89349   0.72858   0.84788   0.00000  Uiso   1.00
C7     C     0.87473   0.76540   0.93027   0.00000  Uiso   1.00
C8     C     0.82795   0.80424   0.90855   0.00000  Uiso   1.00
C9     C     0.75391   0.87499   0.91410   0.00000  Uiso   1.00
C10    C     0.91629   0.62318   0.82205   0.00000  Uiso   1.00
C11    C     0.91670   0.57138   0.88272   0.00000  Uiso   1.00
C12    C     0.88911   0.52148   0.83926   0.00000  Uiso   1.00
C13    C     0.85048   0.42858   0.80470   0.00000  Uiso   1.00
C14    C     0.89406   0.68633   0.66910   0.00000  Uiso   1.00
C15    C     0.96053   0.70102   0.66522   0.00000  Uiso   1.00
C16    C     0.99285   0.71504   0.57429   0.00000  Uiso   1.00
C17    C     0.05323   0.72710   0.58747   0.00000  Uiso   1.00
C18    C     0.86646   0.73049   0.74737   0.00000  Uiso   1.00
C19    C     0.81969   0.76928   0.72552   0.00000  Uiso   1.00
C20    C     0.80088   0.80615   0.80785   0.00000  Uiso   1.00
C21    C     0.88927   0.62509   0.72153   0.00000  Uiso   1.00
C22    C     0.86167   0.57526   0.67797   0.00000  Uiso   1.00
C23    C     0.86204   0.52339   0.73856   0.00000  Uiso   1.00
H24    H     0.96484   0.68134   0.93242   0.00000  Uiso   1.00
H25    H     0.06879   0.70968   0.85685   0.00000  Uiso   1.00
H26    H     0.89565   0.76391   0.00805   0.00000  Uiso   1.00
H27    H     0.93762   0.56992   0.96050   0.00000  Uiso   1.00
H28    H     0.17211   0.74196   0.72874   0.00000  Uiso   1.00
H29    H     0.80702   0.85629   0.04757   0.00000  Uiso   1.00
H30    H     0.89552   0.44723   0.94732   0.00000  Uiso   1.00
H31    H     0.87302   0.68781   0.59084   0.00000  Uiso   1.00
H32    H     0.97193   0.71651   0.49652   0.00000  Uiso   1.00
H33    H     0.79879   0.77074   0.64773   0.00000  Uiso   1.00
H34    H     0.84076   0.57675   0.60018   0.00000  Uiso   1.00
H35    H     0.09350   0.74751   0.43628   0.00000  Uiso   1.00
H36    H     0.72841   0.86184   0.75512   0.00000  Uiso   1.00
H37    H     0.81691   0.45277   0.65486   0.00000  Uiso   1.00
O38    O     0.19952   0.76351   0.52663   0.00000  Uiso   1.00
O39    O     0.72054   0.91350   0.94494   0.00000  Uiso   1.00
O40    O     0.83664   0.37682   0.81340   0.00000  Uiso   1.00
N41    N     0.14003   0.73932   0.67285   0.00000  Uiso   1.00
N42    N     0.79871   0.84622   0.97094   0.00000  Uiso   1.00
N43    N     0.88143   0.46378   0.87722   0.00000  Uiso   1.00
N44    N     0.09773   0.74230   0.51548   0.00000  Uiso   1.00
N45    N     0.75641   0.84920   0.81357   0.00000  Uiso   1.00
N46    N     0.83913   0.46676   0.71985   0.00000  Uiso   1.00
C47    C     0.05619   0.31718   0.85416   0.00000  Uiso   1.00
C48    C     0.01245   0.30089   0.76573   0.00000  Uiso   1.00
C49    C     0.95211   0.28884   0.77904   0.00000  Uiso   1.00
C50    C     0.91970   0.27481   0.68817   0.00000  Uiso   1.00
C51    C     0.84767   0.24978   0.56616   0.00000  Uiso   1.00
C52    C     0.10651   0.27142   0.84788   0.00000  Uiso   1.00
C53    C     0.12527   0.23460   0.93027   0.00000  Uiso   1.00
C54    C     0.17205   0.19576   0.90855   0.00000  Uiso   1.00
C55    C     0.24609   0.12501   0.91410   0.00000  Uiso   1.00
C56    C     0.08371   0.37682   0.82205   0.00000  Uiso   1.00
C57    C     0.08330   0.42862   0.88272   0.00000  Uiso   1.00
C58    C     0.11089   0.47852   0.83926   0.00000  Uiso   1.00
C59    C     0.14952   0.57142   0.80470   0.00000  Uiso   1.00
C60    C     0.10594   0.31367   0.66910   0.00000  Uiso   1.00
C61    C     0.03947   0.29898   0.66522   0.00000  Uiso   1.00
C62    C     0.00715   0.28496   0.57429   0.00000  Uiso   1.00
C63    C     0.94677   0.27290   0.58747   0.00000  Uiso   1.00
C64    C     0.13354   0.26951   0.74737   0.00000  Uiso   1.00
C65    C     0.18031   0.23072   0.72552   0.00000  Uiso   1.00
C66    C     0.19912   0.19385   0.80785   0.00000  Uiso   1.00
C67    C     0.11073   0.37491   0.72153   0.00000  Uiso   1.00
C68    C     0.13833   0.42474   0.67797   0.00000  Uiso   1.00
C69    C     0.13796   0.47661   0.73856   0.00000  Uiso   1.00
H70    H     0.03516   0.31866   0.93242   0.00000  Uiso   1.00
H71    H     0.93121   0.29032   0.85685   0.00000  Uiso   1.00
H72    H     0.10435   0.23609   0.00805   0.00000  Uiso   1.00
H73    H     0.06238   0.43008   0.96050   0.00000  Uiso   1.00
H74    H     0.82789   0.25804   0.72874   0.00000  Uiso   1.00
H75    H     0.19298   0.14371   0.04757   0.00000  Uiso   1.00
H76    H     0.10448   0.55277   0.94732   0.00000  Uiso   1.00
H77    H     0.12698   0.31219   0.59084   0.00000  Uiso   1.00
H78    H     0.02807   0.28349   0.49652   0.00000  Uiso   1.00
H79    H     0.20121   0.22926   0.64773   0.00000  Uiso   1.00
H80    H     0.15924   0.42325   0.60018   0.00000  Uiso   1.00
H81    H     0.90650   0.25249   0.43628   0.00000  Uiso   1.00
H82    H     0.27159   0.13816   0.75512   0.00000  Uiso   1.00
H83    H     0.18309   0.54723   0.65486   0.00000  Uiso   1.00
O84    O     0.80048   0.23649   0.52663   0.00000  Uiso   1.00
O85    O     0.27946   0.08650   0.94494   0.00000  Uiso   1.00
O86    O     0.16336   0.62318   0.81340   0.00000  Uiso   1.00
N87    N     0.85997   0.26068   0.67285   0.00000  Uiso   1.00
N88    N     0.20129   0.15378   0.97094   0.00000  Uiso   1.00
N89    N     0.11857   0.53622   0.87722   0.00000  Uiso   1.00
N90    N     0.90227   0.25770   0.51548   0.00000  Uiso   1.00
N91    N     0.24359   0.15080   0.81357   0.00000  Uiso   1.00
N92    N     0.16087   0.53324   0.71985   0.00000  Uiso   1.00
C93    C     0.68282   0.05619   0.14584   0.00000  Uiso   1.00
C94    C     0.69911   0.01245   0.23427   0.00000  Uiso   1.00
C95    C     0.71116   0.95211   0.22096   0.00000  Uiso   1.00
C96    C     0.72519   0.91970   0.31183   0.00000  Uiso   1.00
C97    C     0.75022   0.84767   0.43384   0.00000  Uiso   1.00
C98    C     0.72858   0.10651   0.15212   0.00000  Uiso   1.00
C99    C     0.76540   0.12527   0.06973   0.00000  Uiso   1.00
C100   C     0.80424   0.17205   0.09145   0.00000  Uiso   1.00
C101   C     0.87499   0.24609   0.08590   0.00000  Uiso   1.00
C102   C     0.62318   0.08371   0.17795   0.00000  Uiso   1.00
C103   C     0.57138   0.08330   0.11728   0.00000  Uiso   1.00
C104   C     0.52148   0.11089   0.16074   0.00000  Uiso   1.00
C105   C     0.42858   0.14952   0.19530   0.00000  Uiso   1.00
C106   C     0.68633   0.10594   0.33090   0.00000  Uiso   1.00
C107   C     0.70102   0.03947   0.33478   0.00000  Uiso   1.00
C108   C     0.71504   0.00715   0.42571   0.00000  Uiso   1.00
C109   C     0.72710   0.94677   0.41253   0.00000  Uiso   1.00
C110   C     0.73049   0.13354   0.25263   0.00000  Uiso   1.00
C111   C     0.76928   0.18031   0.27448   0.00000  Uiso   1.00
C112   C     0.80615   0.19912   0.19215   0.00000  Uiso   1.00
C113   C     0.62509   0.11073   0.27847   0.00000  Uiso   1.00
C114   C     0.57526   0.13833   0.32203   0.00000  Uiso   1.00
C115   C     0.52339   0.13796   0.26144   0.00000  Uiso   1.00
H116   H     0.68134   0.03516   0.06758   0.00000  Uiso   1.00
H117   H     0.70968   0.93121   0.14315   0.00000  Uiso   1.00
H118   H     0.76391   0.10435   0.99195   0.00000  Uiso   1.00
H119   H     0.56992   0.06238   0.03950   0.00000  Uiso   1.00
H120   H     0.74196   0.82789   0.27126   0.00000  Uiso   1.00
H121   H     0.85629   0.19298   0.95243   0.00000  Uiso   1.00
H122   H     0.44723   0.10448   0.05268   0.00000  Uiso   1.00
H123   H     0.68781   0.12698   0.40916   0.00000  Uiso   1.00
H124   H     0.71651   0.02807   0.50348   0.00000  Uiso   1.00
H125   H     0.77074   0.20121   0.35227   0.00000  Uiso   1.00
H126   H     0.57675   0.15924   0.39982   0.00000  Uiso   1.00
H127   H     0.74751   0.90650   0.56372   0.00000  Uiso   1.00
H128   H     0.86184   0.27159   0.24488   0.00000  Uiso   1.00
H129   H     0.45277   0.18309   0.34514   0.00000  Uiso   1.00
O130   O     0.76351   0.80048   0.47337   0.00000  Uiso   1.00
O131   O     0.91350   0.27946   0.05506   0.00000  Uiso   1.00
O132   O     0.37682   0.16336   0.18660   0.00000  Uiso   1.00
N133   N     0.73932   0.85997   0.32715   0.00000  Uiso   1.00
N134   N     0.84622   0.20129   0.02906   0.00000  Uiso   1.00
N135   N     0.46378   0.11857   0.12278   0.00000  Uiso   1.00
N136   N     0.74230   0.90227   0.48452   0.00000  Uiso   1.00
N137   N     0.84920   0.24359   0.18643   0.00000  Uiso   1.00
N138   N     0.46676   0.16087   0.28015   0.00000  Uiso   1.00
C139   C     0.31718   0.94381   0.14584   0.00000  Uiso   1.00
C140   C     0.30089   0.98755   0.23427   0.00000  Uiso   1.00
C141   C     0.28884   0.04789   0.22096   0.00000  Uiso   1.00
C142   C     0.27481   0.08030   0.31183   0.00000  Uiso   1.00
C143   C     0.24978   0.15233   0.43384   0.00000  Uiso   1.00
C144   C     0.27142   0.89349   0.15212   0.00000  Uiso   1.00
C145   C     0.23460   0.87473   0.06973   0.00000  Uiso   1.00
C146   C     0.19576   0.82795   0.09145   0.00000  Uiso   1.00
C147   C     0.12501   0.75391   0.08590   0.00000  Uiso   1.00
C148   C     0.37682   0.91629   0.17795   0.00000  Uiso   1.00
C149   C     0.42862   0.91670   0.11728   0.00000  Uiso   1.00
C150   C     0.47852   0.88911   0.16074   0.00000  Uiso   1.00
C151   C     0.57142   0.85048   0.19530   0.00000  Uiso   1.00
C152   C     0.31367   0.89406   0.33090   0.00000  Uiso   1.00
C153   C     0.29898   0.96053   0.33478   0.00000  Uiso   1.00
C154   C     0.28496   0.99285   0.42571   0.00000  Uiso   1.00
C155   C     0.27290   0.05323   0.41253   0.00000  Uiso   1.00
C156   C     0.26951   0.86646   0.25263   0.00000  Uiso   1.00
C157   C     0.23072   0.81969   0.27448   0.00000  Uiso   1.00
C158   C     0.19385   0.80088   0.19215   0.00000  Uiso   1.00
C159   C     0.37491   0.88927   0.27847   0.00000  Uiso   1.00
C160   C     0.42474   0.86167   0.32203   0.00000  Uiso   1.00
C161   C     0.47661   0.86204   0.26144   0.00000  Uiso   1.00
H162   H     0.31866   0.96484   0.06758   0.00000  Uiso   1.00
H163   H     0.29032   0.06879   0.14315   0.00000  Uiso   1.00
H164   H     0.23609   0.89565   0.99195   0.00000  Uiso   1.00
H165   H     0.43008   0.93762   0.03950   0.00000  Uiso   1.00
H166   H     0.25804   0.17211   0.27126   0.00000  Uiso   1.00
H167   H     0.14371   0.80702   0.95243   0.00000  Uiso   1.00
H168   H     0.55277   0.89552   0.05268   0.00000  Uiso   1.00
H169   H     0.31219   0.87302   0.40916   0.00000  Uiso   1.00
H170   H     0.28349   0.97193   0.50348   0.00000  Uiso   1.00
H171   H     0.22926   0.79879   0.35227   0.00000  Uiso   1.00
H172   H     0.42325   0.84076   0.39982   0.00000  Uiso   1.00
H173   H     0.25249   0.09350   0.56372   0.00000  Uiso   1.00
H174   H     0.13816   0.72841   0.24488   0.00000  Uiso   1.00
H175   H     0.54723   0.81691   0.34514   0.00000  Uiso   1.00
O176   O     0.23649   0.19952   0.47337   0.00000  Uiso   1.00
O177   O     0.08650   0.72054   0.05506   0.00000  Uiso   1.00
O178   O     0.62318   0.83664   0.18660   0.00000  Uiso   1.00
N179   N     0.26068   0.14003   0.32715   0.00000  Uiso   1.00
N180   N     0.15378   0.79871   0.02906   0.00000  Uiso   1.00
N181   N     0.53622   0.88143   0.12278   0.00000  Uiso   1.00
N182   N     0.25770   0.09773   0.48452   0.00000  Uiso   1.00
N183   N     0.15080   0.75641   0.18643   0.00000  Uiso   1.00
N184   N     0.53324   0.83913   0.28015   0.00000  Uiso   1.00
C185   C     0.55619   0.18282   0.64584   0.00000  Uiso   1.00
C186   C     0.51245   0.19911   0.73427   0.00000  Uiso   1.00
C187   C     0.45211   0.21116   0.72096   0.00000  Uiso   1.00
C188   C     0.41970   0.22519   0.81183   0.00000  Uiso   1.00
C189   C     0.34767   0.25022   0.93384   0.00000  Uiso   1.00
C190   C     0.60651   0.22858   0.65212   0.00000  Uiso   1.00
C191   C     0.62527   0.26540   0.56973   0.00000  Uiso   1.00
C192   C     0.67205   0.30424   0.59145   0.00000  Uiso   1.00
C193   C     0.74609   0.37499   0.58590   0.00000  Uiso   1.00
C194   C     0.58371   0.12318   0.67795   0.00000  Uiso   1.00
C195   C     0.58330   0.07138   0.61728   0.00000  Uiso   1.00
C196   C     0.61089   0.02148   0.66074   0.00000  Uiso   1.00
C197   C     0.64952   0.92858   0.69530   0.00000  Uiso   1.00
C198   C     0.60594   0.18633   0.83090   0.00000  Uiso   1.00
C199   C     0.53947   0.20102   0.83478   0.00000  Uiso   1.00
C200   C     0.50715   0.21504   0.92571   0.00000  Uiso   1.00
C201   C     0.44677   0.22710   0.91253   0.00000  Uiso   1.00
C202   C     0.63354   0.23049   0.75263   0.00000  Uiso   1.00
C203   C     0.68031   0.26928   0.77448   0.00000  Uiso   1.00
C204   C     0.69912   0.30615   0.69215   0.00000  Uiso   1.00
C205   C     0.61073   0.12509   0.77847   0.00000  Uiso   1.00
C206   C     0.63833   0.07526   0.82203   0.00000  Uiso   1.00
C207   C     0.63796   0.02339   0.76144   0.00000  Uiso   1.00
H208   H     0.53516   0.18134   0.56758   0.00000  Uiso   1.00
H209   H     0.43121   0.20968   0.64315   0.00000  Uiso   1.00
H210   H     0.60435   0.26391   0.49195   0.00000  Uiso   1.00
H211   H     0.56238   0.06992   0.53950   0.00000  Uiso   1.00
H212   H     0.32789   0.24196   0.77126   0.00000  Uiso   1.00
H213   H     0.69298   0.35629   0.45243   0.00000  Uiso   1.00
H214   H     0.60448   0.94723   0.55268   0.00000  Uiso   1.00
H215   H     0.62698   0.18781   0.90916   0.00000  Uiso   1.00
H216   H     0.52807   0.21651   0.00348   0.00000  Uiso   1.00
H217   H     0.70121   0.27074   0.85227   0.00000  Uiso   1.00
H218   H     0.65924   0.07675   0.89982   0.00000  Uiso   1.00
H219   H     0.40650   0.24751   0.06372   0.00000  Uiso   1.00
H220   H     0.77159   0.36184   0.74488   0.00000  Uiso   1.00
H221   H     0.68309   0.95277   0.84514   0.00000  Uiso   1.00
O222   O     0.30048   0.26351   0.97337   0.00000  Uiso   1.00
O223   O     0.77946   0.41350   0.55506   0.00000  Uiso   1.00
O224   O     0.66336   0.87682   0.68660   0.00000  Uiso   1.00
N225   N     0.35997   0.23932   0.82715   0.00000  Uiso   1.00
N226   N     0.70129   0.34622   0.52906   0.00000  Uiso   1.00
N227   N     0.61857   0.96378   0.62278   0.00000  Uiso   1.00
N228   N     0.40227   0.24230   0.98452   0.00000  Uiso   1.00
N229   N     0.74359   0.34920   0.68643   0.00000  Uiso   1.00
N230   N     0.66087   0.96676   0.78015   0.00000  Uiso   1.00
C231   C     0.44381   0.81718   0.64584   0.00000  Uiso   1.00
C232   C     0.48755   0.80089   0.73427   0.00000  Uiso   1.00
C233   C     0.54789   0.78884   0.72096   0.00000  Uiso   1.00
C234   C     0.58030   0.77481   0.81183   0.00000  Uiso   1.00
C235   C     0.65233   0.74978   0.93384   0.00000  Uiso   1.00
C236   C     0.39349   0.77142   0.65212   0.00000  Uiso   1.00
C237   C     0.37473   0.73460   0.56973   0.00000  Uiso   1.00
C238   C     0.32795   0.69576   0.59145   0.00000  Uiso   1.00
C239   C     0.25391   0.62501   0.58590   0.00000  Uiso   1.00
C240   C     0.41629   0.87682   0.67795   0.00000  Uiso   1.00
C241   C     0.41670   0.92862   0.61728   0.00000  Uiso   1.00
C242   C     0.38911   0.97852   0.66074   0.00000  Uiso   1.00
C243   C     0.35048   0.07142   0.69530   0.00000  Uiso   1.00
C244   C     0.39406   0.81367   0.83090   0.00000  Uiso   1.00
C245   C     0.46053   0.79898   0.83478   0.00000  Uiso   1.00
C246   C     0.49285   0.78496   0.92571   0.00000  Uiso   1.00
C247   C     0.55323   0.77290   0.91253   0.00000  Uiso   1.00
C248   C     0.36646   0.76951   0.75263   0.00000  Uiso   1.00
C249   C     0.31969   0.73072   0.77448   0.00000  Uiso   1.00
C250   C     0.30088   0.69385   0.69215   0.00000  Uiso   1.00
C251   C     0.38927   0.87491   0.77847   0.00000  Uiso   1.00
C252   C     0.36167   0.92474   0.82203   0.00000  Uiso   1.00
C253   C     0.36204   0.97661   0.76144   0.00000  Uiso   1.00
H254   H     0.46484   0.81866   0.56758   0.00000  Uiso   1.00
H255   H     0.56879   0.79032   0.64315   0.00000  Uiso   1.00
H256   H     0.39565   0.73609   0.49195   0.00000  Uiso   1.00
H257   H     0.43762   0.93008   0.53950   0.00000  Uiso   1.00
H258   H     0.67211   0.75804   0.77126   0.00000  Uiso   1.00
H259   H     0.30702   0.64371   0.45243   0.00000  Uiso   1.00
H260   H     0.39552   0.05277   0.55268   0.00000  Uiso   1.00
H261   H     0.37302   0.81219   0.90916   0.00000  Uiso   1.00
H262   H     0.47193   0.78349   0.00348   0.00000  Uiso   1.00
H263   H     0.29879   0.72926   0.85227   0.00000  Uiso   1.00
H264   H     0.34076   0.92325   0.89982   0.00000  Uiso   1.00
H265   H     0.59350   0.75249   0.06372   0.00000  Uiso   1.00
H266   H     0.22841   0.63816   0.74488   0.00000  Uiso   1.00
H267   H     0.31691   0.04723   0.84514   0.00000  Uiso   1.00
O268   O     0.69952   0.73649   0.97337   0.00000  Uiso   1.00
O269   O     0.22054   0.58650   0.55506   0.00000  Uiso   1.00
O270   O     0.33664   0.12318   0.68660   0.00000  Uiso   1.00
N271   N     0.64003   0.76068   0.82715   0.00000  Uiso   1.00
N272   N     0.29871   0.65378   0.52906   0.00000  Uiso   1.00
N273   N     0.38143   0.03622   0.62278   0.00000  Uiso   1.00
N274   N     0.59773   0.75770   0.98452   0.00000  Uiso   1.00
N275   N     0.25641   0.65080   0.68643   0.00000  Uiso   1.00
N276   N     0.33913   0.03324   0.78015   0.00000  Uiso   1.00
C277   C     0.81718   0.55619   0.35416   0.00000  Uiso   1.00
C278   C     0.80089   0.51245   0.26573   0.00000  Uiso   1.00
C279   C     0.78884   0.45211   0.27904   0.00000  Uiso   1.00
C280   C     0.77481   0.41970   0.18817   0.00000  Uiso   1.00
C281   C     0.74978   0.34767   0.06616   0.00000  Uiso   1.00
C282   C     0.77142   0.60651   0.34788   0.00000  Uiso   1.00
C283   C     0.73460   0.62527   0.43027   0.00000  Uiso   1.00
C284   C     0.69576   0.67205   0.40855   0.00000  Uiso   1.00
C285   C     0.62501   0.74609   0.41410   0.00000  Uiso   1.00
C286   C     0.87682   0.58371   0.32205   0.00000  Uiso   1.00
C287   C     0.92862   0.58330   0.38272   0.00000  Uiso   1.00
C288   C     0.97852   0.61089   0.33926   0.00000  Uiso   1.00
C289   C     0.07142   0.64952   0.30470   0.00000  Uiso   1.00
C290   C     0.81367   0.60594   0.16910   0.00000  Uiso   1.00
C291   C     0.79898   0.53947   0.16522   0.00000  Uiso   1.00
C292   C     0.78496   0.50715   0.07429   0.00000  Uiso   1.00
C293   C     0.77290   0.44677   0.08747   0.00000  Uiso   1.00
C294   C     0.76951   0.63354   0.24737   0.00000  Uiso   1.00
C295   C     0.73072   0.68031   0.22552   0.00000  Uiso   1.00
C296   C     0.69385   0.69912   0.30785   0.00000  Uiso   1.00
C297   C     0.87491   0.61073   0.22153   0.00000  Uiso   1.00
C298   C     0.92474   0.63833   0.17797   0.00000  Uiso   1.00
C299   C     0.97661   0.63796   0.23856   0.00000  Uiso   1.00
H300   H     0.81866   0.53516   0.43242   0.00000  Uiso   1.00
H301   H     0.79032   0.43121   0.35685   0.00000  Uiso   1.00
H302   H     0.73609   0.60435   0.50805   0.00000  Uiso   1.00
H303   H     0.93008   0.56238   0.46050   0.00000  Uiso   1.00
H304   H     0.75804   0.32789   0.22874   0.00000  Uiso   1.00
H305   H     0.64371   0.69298   0.54757   0.00000  Uiso   1.00
H306   H     0.05277   0.60448   0.44732   0.00000  Uiso   1.00
H307   H     0.81219   0.62698   0.09084   0.00000  Uiso   1.00
H308   H     0.78349   0.52807   0.99652   0.00000  Uiso   1.00
H309   H     0.72926   0.70121   0.14773   0.00000  Uiso   1.00
H310   H     0.92325   0.65924   0.10018   0.00000  Uiso   1.00
H311   H     0.75249   0.40650   0.93628   0.00000  Uiso   1.00
H312   H     0.63816   0.77159   0.25512   0.00000  Uiso   1.00
H313   H     0.04723   0.68309   0.15486   0.00000  Uiso   1.00
O314   O     0.73649   0.30048   0.02663   0.00000  Uiso   1.00
O315   O     0.58650   0.77946   0.44494   0.00000  Uiso   1.00
O316   O     0.12318   0.66336   0.31340   0.00000  Uiso   1.00
N317   N     0.76068   0.35997   0.17285   0.00000  Uiso   1.00
N318   N     0.65378   0.70129   0.47094   0.00000  Uiso   1.00
N319   N     0.03622   0.61857   0.37722   0.00000  Uiso   1.00
N320   N     0.75770   0.40227   0.01548   0.00000  Uiso   1.00
N321   N     0.65080   0.74359   0.31357   0.00000  Uiso   1.00
N322   N     0.03324   0.66087   0.21985   0.00000  Uiso   1.00
C323   C     0.18282   0.44381   0.35416   0.00000  Uiso   1.00
C324   C     0.19911   0.48755   0.26573   0.00000  Uiso   1.00
C325   C     0.21116   0.54789   0.27904   0.00000  Uiso   1.00
C326   C     0.22519   0.58030   0.18817   0.00000  Uiso   1.00
C327   C     0.25022   0.65233   0.06616   0.00000  Uiso   1.00
C328   C     0.22858   0.39349   0.34788   0.00000  Uiso   1.00
C329   C     0.26540   0.37473   0.43027   0.00000  Uiso   1.00
C330   C     0.30424   0.32795   0.40855   0.00000  Uiso   1.00
C331   C     0.37499   0.25391   0.41410   0.00000  Uiso   1.00
C332   C     0.12318   0.41629   0.32205   0.00000  Uiso   1.00
C333   C     0.07138   0.41670   0.38272   0.00000  Uiso   1.00
C334   C     0.02148   0.38911   0.33926   0.00000  Uiso   1.00
C335   C     0.92858   0.35048   0.30470   0.00000  Uiso   1.00
C336   C     0.18633   0.39406   0.16910   0.00000  Uiso   1.00
C337   C     0.20102   0.46053   0.16522   0.00000  Uiso   1.00
C338   C     0.21504   0.49285   0.07429   0.00000  Uiso   1.00
C339   C     0.22710   0.55323   0.08747   0.00000  Uiso   1.00
C340   C     0.23049   0.36646   0.24737   0.00000  Uiso   1.00
C341   C     0.26928   0.31969   0.22552   0.00000  Uiso   1.00
C342   C     0.30615   0.30088   0.30785   0.00000  Uiso   1.00
C343   C     0.12509   0.38927   0.22153   0.00000  Uiso   1.00
C344   C     0.07526   0.36167   0.17797   0.00000  Uiso   1.00
C345   C     0.02339   0.36204   0.23856   0.00000  Uiso   1.00
H346   H     0.18134   0.46484   0.43242   0.00000  Uiso   1.00
H347   H     0.20968   0.56879   0.35685   0.00000  Uiso   1.00
H348   H     0.26391   0.39565   0.50805   0.00000  Uiso   1.00
H349   H     0.06992   0.43762   0.46050   0.00000  Uiso   1.00
H350   H     0.24196   0.67211   0.22874   0.00000  Uiso   1.00
H351   H     0.35629   0.30702   0.54757   0.00000  Uiso   1.00
H352   H     0.94723   0.39552   0.44732   0.00000  Uiso   1.00
H353   H     0.18781   0.37302   0.09084   0.00000  Uiso   1.00
H354   H     0.21651   0.47193   0.99652   0.00000  Uiso   1.00
H355   H     0.27074   0.29879   0.14773   0.00000  Uiso   1.00
H356   H     0.07675   0.34076   0.10018   0.00000  Uiso   1.00
H357   H     0.24751   0.59350   0.93628   0.00000  Uiso   1.00
H358   H     0.36184   0.22841   0.25512   0.00000  Uiso   1.00
H359   H     0.95277   0.31691   0.15486   0.00000  Uiso   1.00
O360   O     0.26351   0.69952   0.02663   0.00000  Uiso   1.00
O361   O     0.41350   0.22054   0.44494   0.00000  Uiso   1.00
O362   O     0.87682   0.33664   0.31340   0.00000  Uiso   1.00
N363   N     0.23932   0.64003   0.17285   0.00000  Uiso   1.00
N364   N     0.34622   0.29871   0.47094   0.00000  Uiso   1.00
N365   N     0.96378   0.38143   0.37722   0.00000  Uiso   1.00
N366   N     0.24230   0.59773   0.01548   0.00000  Uiso   1.00
N367   N     0.34920   0.25641   0.31357   0.00000  Uiso   1.00
N368   N     0.96676   0.33913   0.21985   0.00000  Uiso   1.00
