data_job_03035
_audit_creation_date              2018-12-19
_audit_creation_method            'Materials Studio'
_symmetry_space_group_name_H-M    'P1'
_symmetry_Int_Tables_number       1
_symmetry_cell_setting            triclinic
loop_
_symmetry_equiv_pos_as_xyz
  x,y,z
_cell_length_a                    39.6629
_cell_length_b                    12.3021
_cell_length_c                    52.5819
_cell_angle_alpha                 90.0000
_cell_angle_beta                  156.8481
_cell_angle_gamma                 90.0000
loop_
_atom_site_label
_atom_site_type_symbol
_atom_site_fract_x
_atom_site_fract_y
_atom_site_fract_z
_atom_site_U_iso_or_equiv
_atom_site_adp_type
_atom_site_occupancy
C1     C     0.95911   0.85211   0.31014   0.00000  Uiso   1.00
C2     C     0.97368   0.76541   0.34051   0.00000  Uiso   1.00
C3     C     0.00906   0.66337   0.36098   0.00000  Uiso   1.00
C4     C     0.01696   0.59584   0.38749   0.00000  Uiso   1.00
C5     C     0.04357   0.45612   0.43374   0.00000  Uiso   1.00
C6     C     0.86387   0.87981   0.24512   0.00000  Uiso   1.00
C7     C     0.80692   0.87398   0.18539   0.00000  Uiso   1.00
C8     C     0.72239   0.90277   0.13160   0.00000  Uiso   1.00
C9     C     0.57854   0.94074   0.02976   0.00000  Uiso   1.00
C10    C     0.00630   0.95325   0.35210   0.00000  Uiso   1.00
C11    C     0.06911   0.00918   0.38230   0.00000  Uiso   1.00
C12    C     0.10449   0.09981   0.41856   0.00000  Uiso   1.00
C13    C     0.18178   0.25180   0.48282   0.00000  Uiso   1.00
C14    C     0.91024   0.91363   0.32082   0.00000  Uiso   1.00
C15    C     0.94713   0.79883   0.34631   0.00000  Uiso   1.00
C16    C     0.95499   0.73144   0.37280   0.00000  Uiso   1.00
C17    C     0.99037   0.62932   0.39330   0.00000  Uiso   1.00
C18    C     0.83732   0.91323   0.25092   0.00000  Uiso   1.00
C19    C     0.75286   0.94204   0.19721   0.00000  Uiso   1.00
C20    C     0.69580   0.93624   0.13741   0.00000  Uiso   1.00
C21    C     0.97976   0.98666   0.35790   0.00000  Uiso   1.00
C22    C     0.01504   0.07724   0.39412   0.00000  Uiso   1.00
C23    C     0.07789   0.13329   0.42437   0.00000  Uiso   1.00
H24    H     0.97978   0.82609   0.30562   0.00000  Uiso   1.00
H25    H     0.02958   0.63754   0.35647   0.00000  Uiso   1.00
H26    H     0.82749   0.84813   0.18092   0.00000  Uiso   1.00
H27    H     0.08963   0.98330   0.37780   0.00000  Uiso   1.00
H28    H     0.07307   0.44321   0.41540   0.00000  Uiso   1.00
H29    H     0.64695   0.88728   0.04523   0.00000  Uiso   1.00
H30    H     0.19973   0.17232   0.46038   0.00000  Uiso   1.00
H31    H     0.88958   0.93964   0.32534   0.00000  Uiso   1.00
H32    H     0.93444   0.75732   0.37728   0.00000  Uiso   1.00
H33    H     0.73234   0.96790   0.20172   0.00000  Uiso   1.00
H34    H     0.99448   0.10307   0.39860   0.00000  Uiso   1.00
H35    H     0.99584   0.54043   0.43228   0.00000  Uiso   1.00
H36    H     0.56972   0.98450   0.06211   0.00000  Uiso   1.00
H37    H     0.12250   0.26953   0.47727   0.00000  Uiso   1.00
O38    O     0.06557   0.36982   0.45763   0.00000  Uiso   1.00
O39    O     0.50652   0.95243   0.97199   0.00000  Uiso   1.00
O40    O     0.23176   0.32640   0.51666   0.00000  Uiso   1.00
N41    N     0.04875   0.49112   0.41226   0.00000  Uiso   1.00
N42    N     0.65035   0.90628   0.06616   0.00000  Uiso   1.00
N43    N     0.16714   0.17279   0.45429   0.00000  Uiso   1.00
N44    N     0.00720   0.54343   0.42134   0.00000  Uiso   1.00
N45    N     0.60879   0.95859   0.07525   0.00000  Uiso   1.00
N46    N     0.12559   0.22510   0.46337   0.00000  Uiso   1.00
C47    C     0.45911   0.35211   0.31014   0.00000  Uiso   1.00
C48    C     0.47368   0.26541   0.34051   0.00000  Uiso   1.00
C49    C     0.50906   0.16337   0.36098   0.00000  Uiso   1.00
C50    C     0.51696   0.09584   0.38749   0.00000  Uiso   1.00
C51    C     0.54357   0.95612   0.43374   0.00000  Uiso   1.00
C52    C     0.36387   0.37981   0.24512   0.00000  Uiso   1.00
C53    C     0.30692   0.37398   0.18539   0.00000  Uiso   1.00
C54    C     0.22239   0.40277   0.13160   0.00000  Uiso   1.00
C55    C     0.07854   0.44074   0.02976   0.00000  Uiso   1.00
C56    C     0.50630   0.45325   0.35210   0.00000  Uiso   1.00
C57    C     0.56911   0.50918   0.38230   0.00000  Uiso   1.00
C58    C     0.60449   0.59981   0.41856   0.00000  Uiso   1.00
C59    C     0.68178   0.75180   0.48282   0.00000  Uiso   1.00
C60    C     0.41024   0.41363   0.32082   0.00000  Uiso   1.00
C61    C     0.44713   0.29883   0.34631   0.00000  Uiso   1.00
C62    C     0.45499   0.23144   0.37280   0.00000  Uiso   1.00
C63    C     0.49037   0.12932   0.39330   0.00000  Uiso   1.00
C64    C     0.33732   0.41323   0.25092   0.00000  Uiso   1.00
C65    C     0.25286   0.44204   0.19721   0.00000  Uiso   1.00
C66    C     0.19580   0.43624   0.13741   0.00000  Uiso   1.00
C67    C     0.47976   0.48666   0.35790   0.00000  Uiso   1.00
C68    C     0.51504   0.57724   0.39412   0.00000  Uiso   1.00
C69    C     0.57789   0.63329   0.42437   0.00000  Uiso   1.00
H70    H     0.47978   0.32609   0.30562   0.00000  Uiso   1.00
H71    H     0.52958   0.13754   0.35647   0.00000  Uiso   1.00
H72    H     0.32749   0.34813   0.18092   0.00000  Uiso   1.00
H73    H     0.58963   0.48330   0.37780   0.00000  Uiso   1.00
H74    H     0.57307   0.94321   0.41540   0.00000  Uiso   1.00
H75    H     0.14695   0.38728   0.04523   0.00000  Uiso   1.00
H76    H     0.69973   0.67232   0.46038   0.00000  Uiso   1.00
H77    H     0.38958   0.43964   0.32534   0.00000  Uiso   1.00
H78    H     0.43444   0.25732   0.37728   0.00000  Uiso   1.00
H79    H     0.23234   0.46790   0.20172   0.00000  Uiso   1.00
H80    H     0.49448   0.60307   0.39860   0.00000  Uiso   1.00
H81    H     0.49584   0.04043   0.43228   0.00000  Uiso   1.00
H82    H     0.06972   0.48450   0.06211   0.00000  Uiso   1.00
H83    H     0.62250   0.76953   0.47727   0.00000  Uiso   1.00
O84    O     0.56557   0.86982   0.45763   0.00000  Uiso   1.00
O85    O     0.00652   0.45243   0.97199   0.00000  Uiso   1.00
O86    O     0.73176   0.82640   0.51666   0.00000  Uiso   1.00
N87    N     0.54875   0.99112   0.41226   0.00000  Uiso   1.00
N88    N     0.15035   0.40628   0.06616   0.00000  Uiso   1.00
N89    N     0.66714   0.67279   0.45429   0.00000  Uiso   1.00
N90    N     0.50720   0.04343   0.42134   0.00000  Uiso   1.00
N91    N     0.10879   0.45859   0.07525   0.00000  Uiso   1.00
N92    N     0.62559   0.72510   0.46337   0.00000  Uiso   1.00
C93    C     0.04089   0.85211   0.18986   0.00000  Uiso   1.00
C94    C     0.02632   0.76541   0.15949   0.00000  Uiso   1.00
C95    C     0.99094   0.66337   0.13902   0.00000  Uiso   1.00
C96    C     0.98304   0.59584   0.11251   0.00000  Uiso   1.00
C97    C     0.95643   0.45612   0.06626   0.00000  Uiso   1.00
C98    C     0.13613   0.87981   0.25488   0.00000  Uiso   1.00
C99    C     0.19308   0.87398   0.31461   0.00000  Uiso   1.00
C100   C     0.27761   0.90277   0.36840   0.00000  Uiso   1.00
C101   C     0.42146   0.94074   0.47024   0.00000  Uiso   1.00
C102   C     0.99370   0.95325   0.14790   0.00000  Uiso   1.00
C103   C     0.93089   0.00918   0.11770   0.00000  Uiso   1.00
C104   C     0.89551   0.09981   0.08144   0.00000  Uiso   1.00
C105   C     0.81822   0.25180   0.01718   0.00000  Uiso   1.00
C106   C     0.08976   0.91363   0.17918   0.00000  Uiso   1.00
C107   C     0.05287   0.79883   0.15369   0.00000  Uiso   1.00
C108   C     0.04501   0.73144   0.12720   0.00000  Uiso   1.00
C109   C     0.00963   0.62932   0.10670   0.00000  Uiso   1.00
C110   C     0.16268   0.91323   0.24908   0.00000  Uiso   1.00
C111   C     0.24714   0.94204   0.30279   0.00000  Uiso   1.00
C112   C     0.30420   0.93624   0.36259   0.00000  Uiso   1.00
C113   C     0.02024   0.98666   0.14210   0.00000  Uiso   1.00
C114   C     0.98496   0.07724   0.10588   0.00000  Uiso   1.00
C115   C     0.92211   0.13329   0.07563   0.00000  Uiso   1.00
H116   H     0.02022   0.82609   0.19438   0.00000  Uiso   1.00
H117   H     0.97042   0.63754   0.14353   0.00000  Uiso   1.00
H118   H     0.17251   0.84813   0.31908   0.00000  Uiso   1.00
H119   H     0.91037   0.98330   0.12220   0.00000  Uiso   1.00
H120   H     0.92693   0.44321   0.08460   0.00000  Uiso   1.00
H121   H     0.35305   0.88728   0.45477   0.00000  Uiso   1.00
H122   H     0.80027   0.17232   0.03962   0.00000  Uiso   1.00
H123   H     0.11042   0.93964   0.17466   0.00000  Uiso   1.00
H124   H     0.06556   0.75732   0.12272   0.00000  Uiso   1.00
H125   H     0.26766   0.96790   0.29828   0.00000  Uiso   1.00
H126   H     0.00552   0.10307   0.10140   0.00000  Uiso   1.00
H127   H     0.00416   0.54043   0.06772   0.00000  Uiso   1.00
H128   H     0.43028   0.98450   0.43789   0.00000  Uiso   1.00
H129   H     0.87750   0.26953   0.02273   0.00000  Uiso   1.00
O130   O     0.93443   0.36982   0.04237   0.00000  Uiso   1.00
O131   O     0.49348   0.95243   0.52801   0.00000  Uiso   1.00
O132   O     0.76824   0.32640   0.98334   0.00000  Uiso   1.00
N133   N     0.95125   0.49112   0.08774   0.00000  Uiso   1.00
N134   N     0.34965   0.90628   0.43384   0.00000  Uiso   1.00
N135   N     0.83286   0.17279   0.04571   0.00000  Uiso   1.00
N136   N     0.99280   0.54343   0.07866   0.00000  Uiso   1.00
N137   N     0.39121   0.95859   0.42475   0.00000  Uiso   1.00
N138   N     0.87441   0.22510   0.03663   0.00000  Uiso   1.00
C139   C     0.54089   0.35211   0.18986   0.00000  Uiso   1.00
C140   C     0.52632   0.26541   0.15949   0.00000  Uiso   1.00
C141   C     0.49094   0.16337   0.13902   0.00000  Uiso   1.00
C142   C     0.48304   0.09584   0.11251   0.00000  Uiso   1.00
C143   C     0.45643   0.95612   0.06626   0.00000  Uiso   1.00
C144   C     0.63613   0.37981   0.25488   0.00000  Uiso   1.00
C145   C     0.69308   0.37398   0.31461   0.00000  Uiso   1.00
C146   C     0.77761   0.40277   0.36840   0.00000  Uiso   1.00
C147   C     0.92146   0.44074   0.47024   0.00000  Uiso   1.00
C148   C     0.49370   0.45325   0.14790   0.00000  Uiso   1.00
C149   C     0.43089   0.50918   0.11770   0.00000  Uiso   1.00
C150   C     0.39551   0.59981   0.08144   0.00000  Uiso   1.00
C151   C     0.31822   0.75180   0.01718   0.00000  Uiso   1.00
C152   C     0.58976   0.41363   0.17918   0.00000  Uiso   1.00
C153   C     0.55287   0.29883   0.15369   0.00000  Uiso   1.00
C154   C     0.54501   0.23144   0.12720   0.00000  Uiso   1.00
C155   C     0.50963   0.12932   0.10670   0.00000  Uiso   1.00
C156   C     0.66268   0.41323   0.24908   0.00000  Uiso   1.00
C157   C     0.74714   0.44204   0.30279   0.00000  Uiso   1.00
C158   C     0.80420   0.43624   0.36259   0.00000  Uiso   1.00
C159   C     0.52024   0.48666   0.14210   0.00000  Uiso   1.00
C160   C     0.48496   0.57724   0.10588   0.00000  Uiso   1.00
C161   C     0.42211   0.63329   0.07563   0.00000  Uiso   1.00
H162   H     0.52022   0.32609   0.19438   0.00000  Uiso   1.00
H163   H     0.47042   0.13754   0.14353   0.00000  Uiso   1.00
H164   H     0.67251   0.34813   0.31908   0.00000  Uiso   1.00
H165   H     0.41037   0.48330   0.12220   0.00000  Uiso   1.00
H166   H     0.42693   0.94321   0.08460   0.00000  Uiso   1.00
H167   H     0.85305   0.38728   0.45477   0.00000  Uiso   1.00
H168   H     0.30027   0.67232   0.03962   0.00000  Uiso   1.00
H169   H     0.61042   0.43964   0.17466   0.00000  Uiso   1.00
H170   H     0.56556   0.25732   0.12272   0.00000  Uiso   1.00
H171   H     0.76766   0.46790   0.29828   0.00000  Uiso   1.00
H172   H     0.50552   0.60307   0.10140   0.00000  Uiso   1.00
H173   H     0.50416   0.04043   0.06772   0.00000  Uiso   1.00
H174   H     0.93028   0.48450   0.43789   0.00000  Uiso   1.00
H175   H     0.37750   0.76953   0.02273   0.00000  Uiso   1.00
O176   O     0.43443   0.86982   0.04237   0.00000  Uiso   1.00
O177   O     0.99348   0.45243   0.52801   0.00000  Uiso   1.00
O178   O     0.26824   0.82640   0.98334   0.00000  Uiso   1.00
N179   N     0.45125   0.99112   0.08774   0.00000  Uiso   1.00
N180   N     0.84965   0.40628   0.43384   0.00000  Uiso   1.00
N181   N     0.33286   0.67279   0.04571   0.00000  Uiso   1.00
N182   N     0.49280   0.04343   0.07866   0.00000  Uiso   1.00
N183   N     0.89121   0.45859   0.42475   0.00000  Uiso   1.00
N184   N     0.37441   0.72510   0.03663   0.00000  Uiso   1.00
C185   C     0.04089   0.14789   0.68986   0.00000  Uiso   1.00
C186   C     0.02632   0.23459   0.65949   0.00000  Uiso   1.00
C187   C     0.99094   0.33663   0.63902   0.00000  Uiso   1.00
C188   C     0.98304   0.40416   0.61251   0.00000  Uiso   1.00
C189   C     0.95643   0.54388   0.56626   0.00000  Uiso   1.00
C190   C     0.13613   0.12019   0.75488   0.00000  Uiso   1.00
C191   C     0.19308   0.12602   0.81461   0.00000  Uiso   1.00
C192   C     0.27761   0.09723   0.86840   0.00000  Uiso   1.00
C193   C     0.42146   0.05926   0.97024   0.00000  Uiso   1.00
C194   C     0.99370   0.04675   0.64790   0.00000  Uiso   1.00
C195   C     0.93089   0.99082   0.61770   0.00000  Uiso   1.00
C196   C     0.89551   0.90019   0.58144   0.00000  Uiso   1.00
C197   C     0.81822   0.74820   0.51718   0.00000  Uiso   1.00
C198   C     0.08976   0.08637   0.67918   0.00000  Uiso   1.00
C199   C     0.05287   0.20117   0.65369   0.00000  Uiso   1.00
C200   C     0.04501   0.26856   0.62720   0.00000  Uiso   1.00
C201   C     0.00963   0.37068   0.60670   0.00000  Uiso   1.00
C202   C     0.16268   0.08677   0.74908   0.00000  Uiso   1.00
C203   C     0.24714   0.05796   0.80279   0.00000  Uiso   1.00
C204   C     0.30420   0.06376   0.86259   0.00000  Uiso   1.00
C205   C     0.02024   0.01334   0.64210   0.00000  Uiso   1.00
C206   C     0.98496   0.92276   0.60588   0.00000  Uiso   1.00
C207   C     0.92211   0.86671   0.57563   0.00000  Uiso   1.00
H208   H     0.02022   0.17391   0.69438   0.00000  Uiso   1.00
H209   H     0.97042   0.36246   0.64353   0.00000  Uiso   1.00
H210   H     0.17251   0.15187   0.81908   0.00000  Uiso   1.00
H211   H     0.91037   0.01670   0.62220   0.00000  Uiso   1.00
H212   H     0.92693   0.55679   0.58460   0.00000  Uiso   1.00
H213   H     0.35305   0.11272   0.95477   0.00000  Uiso   1.00
H214   H     0.80027   0.82768   0.53962   0.00000  Uiso   1.00
H215   H     0.11042   0.06036   0.67466   0.00000  Uiso   1.00
H216   H     0.06556   0.24268   0.62272   0.00000  Uiso   1.00
H217   H     0.26766   0.03210   0.79828   0.00000  Uiso   1.00
H218   H     0.00552   0.89693   0.60140   0.00000  Uiso   1.00
H219   H     0.00416   0.45957   0.56772   0.00000  Uiso   1.00
H220   H     0.43028   0.01550   0.93789   0.00000  Uiso   1.00
H221   H     0.87750   0.73047   0.52273   0.00000  Uiso   1.00
O222   O     0.93443   0.63018   0.54237   0.00000  Uiso   1.00
O223   O     0.49348   0.04757   0.02801   0.00000  Uiso   1.00
O224   O     0.76824   0.67360   0.48334   0.00000  Uiso   1.00
N225   N     0.95125   0.50888   0.58774   0.00000  Uiso   1.00
N226   N     0.34965   0.09372   0.93384   0.00000  Uiso   1.00
N227   N     0.83286   0.82721   0.54571   0.00000  Uiso   1.00
N228   N     0.99280   0.45657   0.57866   0.00000  Uiso   1.00
N229   N     0.39121   0.04141   0.92475   0.00000  Uiso   1.00
N230   N     0.87441   0.77490   0.53663   0.00000  Uiso   1.00
C231   C     0.54089   0.64789   0.68986   0.00000  Uiso   1.00
C232   C     0.52632   0.73459   0.65949   0.00000  Uiso   1.00
C233   C     0.49094   0.83663   0.63902   0.00000  Uiso   1.00
C234   C     0.48304   0.90416   0.61251   0.00000  Uiso   1.00
C235   C     0.45643   0.04388   0.56626   0.00000  Uiso   1.00
C236   C     0.63613   0.62019   0.75488   0.00000  Uiso   1.00
C237   C     0.69308   0.62602   0.81461   0.00000  Uiso   1.00
C238   C     0.77761   0.59723   0.86840   0.00000  Uiso   1.00
C239   C     0.92146   0.55926   0.97024   0.00000  Uiso   1.00
C240   C     0.49370   0.54675   0.64790   0.00000  Uiso   1.00
C241   C     0.43089   0.49082   0.61770   0.00000  Uiso   1.00
C242   C     0.39551   0.40019   0.58144   0.00000  Uiso   1.00
C243   C     0.31822   0.24820   0.51718   0.00000  Uiso   1.00
C244   C     0.58976   0.58637   0.67918   0.00000  Uiso   1.00
C245   C     0.55287   0.70117   0.65369   0.00000  Uiso   1.00
C246   C     0.54501   0.76856   0.62720   0.00000  Uiso   1.00
C247   C     0.50963   0.87068   0.60670   0.00000  Uiso   1.00
C248   C     0.66268   0.58677   0.74908   0.00000  Uiso   1.00
C249   C     0.74714   0.55796   0.80279   0.00000  Uiso   1.00
C250   C     0.80420   0.56376   0.86259   0.00000  Uiso   1.00
C251   C     0.52024   0.51334   0.64210   0.00000  Uiso   1.00
C252   C     0.48496   0.42276   0.60588   0.00000  Uiso   1.00
C253   C     0.42211   0.36671   0.57563   0.00000  Uiso   1.00
H254   H     0.52022   0.67391   0.69438   0.00000  Uiso   1.00
H255   H     0.47042   0.86246   0.64353   0.00000  Uiso   1.00
H256   H     0.67251   0.65187   0.81908   0.00000  Uiso   1.00
H257   H     0.41037   0.51670   0.62220   0.00000  Uiso   1.00
H258   H     0.42693   0.05679   0.58460   0.00000  Uiso   1.00
H259   H     0.85305   0.61272   0.95477   0.00000  Uiso   1.00
H260   H     0.30027   0.32768   0.53962   0.00000  Uiso   1.00
H261   H     0.61042   0.56036   0.67466   0.00000  Uiso   1.00
H262   H     0.56556   0.74268   0.62272   0.00000  Uiso   1.00
H263   H     0.76766   0.53210   0.79828   0.00000  Uiso   1.00
H264   H     0.50552   0.39693   0.60140   0.00000  Uiso   1.00
H265   H     0.50416   0.95957   0.56772   0.00000  Uiso   1.00
H266   H     0.93028   0.51550   0.93789   0.00000  Uiso   1.00
H267   H     0.37750   0.23047   0.52273   0.00000  Uiso   1.00
O268   O     0.43443   0.13018   0.54237   0.00000  Uiso   1.00
O269   O     0.99348   0.54757   0.02801   0.00000  Uiso   1.00
O270   O     0.26824   0.17360   0.48334   0.00000  Uiso   1.00
N271   N     0.45125   0.00888   0.58774   0.00000  Uiso   1.00
N272   N     0.84965   0.59372   0.93384   0.00000  Uiso   1.00
N273   N     0.33286   0.32721   0.54571   0.00000  Uiso   1.00
N274   N     0.49280   0.95657   0.57866   0.00000  Uiso   1.00
N275   N     0.89121   0.54141   0.92475   0.00000  Uiso   1.00
N276   N     0.37441   0.27490   0.53663   0.00000  Uiso   1.00
C277   C     0.95911   0.14789   0.81014   0.00000  Uiso   1.00
C278   C     0.97368   0.23459   0.84051   0.00000  Uiso   1.00
C279   C     0.00906   0.33663   0.86098   0.00000  Uiso   1.00
C280   C     0.01696   0.40416   0.88749   0.00000  Uiso   1.00
C281   C     0.04357   0.54388   0.93374   0.00000  Uiso   1.00
C282   C     0.86387   0.12019   0.74512   0.00000  Uiso   1.00
C283   C     0.80692   0.12602   0.68539   0.00000  Uiso   1.00
C284   C     0.72239   0.09723   0.63160   0.00000  Uiso   1.00
C285   C     0.57854   0.05926   0.52976   0.00000  Uiso   1.00
C286   C     0.00630   0.04675   0.85210   0.00000  Uiso   1.00
C287   C     0.06911   0.99082   0.88230   0.00000  Uiso   1.00
C288   C     0.10449   0.90019   0.91856   0.00000  Uiso   1.00
C289   C     0.18178   0.74820   0.98282   0.00000  Uiso   1.00
C290   C     0.91024   0.08637   0.82082   0.00000  Uiso   1.00
C291   C     0.94713   0.20117   0.84631   0.00000  Uiso   1.00
C292   C     0.95499   0.26856   0.87280   0.00000  Uiso   1.00
C293   C     0.99037   0.37068   0.89330   0.00000  Uiso   1.00
C294   C     0.83732   0.08677   0.75092   0.00000  Uiso   1.00
C295   C     0.75286   0.05796   0.69721   0.00000  Uiso   1.00
C296   C     0.69580   0.06376   0.63741   0.00000  Uiso   1.00
C297   C     0.97976   0.01334   0.85790   0.00000  Uiso   1.00
C298   C     0.01504   0.92276   0.89412   0.00000  Uiso   1.00
C299   C     0.07789   0.86671   0.92437   0.00000  Uiso   1.00
H300   H     0.97978   0.17391   0.80562   0.00000  Uiso   1.00
H301   H     0.02958   0.36246   0.85647   0.00000  Uiso   1.00
H302   H     0.82749   0.15187   0.68092   0.00000  Uiso   1.00
H303   H     0.08963   0.01670   0.87780   0.00000  Uiso   1.00
H304   H     0.07307   0.55679   0.91540   0.00000  Uiso   1.00
H305   H     0.64695   0.11272   0.54523   0.00000  Uiso   1.00
H306   H     0.19973   0.82768   0.96038   0.00000  Uiso   1.00
H307   H     0.88958   0.06036   0.82534   0.00000  Uiso   1.00
H308   H     0.93444   0.24268   0.87728   0.00000  Uiso   1.00
H309   H     0.73234   0.03210   0.70172   0.00000  Uiso   1.00
H310   H     0.99448   0.89693   0.89860   0.00000  Uiso   1.00
H311   H     0.99584   0.45957   0.93228   0.00000  Uiso   1.00
H312   H     0.56972   0.01550   0.56211   0.00000  Uiso   1.00
H313   H     0.12250   0.73047   0.97727   0.00000  Uiso   1.00
O314   O     0.06557   0.63018   0.95763   0.00000  Uiso   1.00
O315   O     0.50652   0.04757   0.47199   0.00000  Uiso   1.00
O316   O     0.23176   0.67360   0.01666   0.00000  Uiso   1.00
N317   N     0.04875   0.50888   0.91226   0.00000  Uiso   1.00
N318   N     0.65035   0.09372   0.56616   0.00000  Uiso   1.00
N319   N     0.16714   0.82721   0.95429   0.00000  Uiso   1.00
N320   N     0.00720   0.45657   0.92134   0.00000  Uiso   1.00
N321   N     0.60879   0.04141   0.57525   0.00000  Uiso   1.00
N322   N     0.12559   0.77490   0.96337   0.00000  Uiso   1.00
C323   C     0.45911   0.64789   0.81014   0.00000  Uiso   1.00
C324   C     0.47368   0.73459   0.84051   0.00000  Uiso   1.00
C325   C     0.50906   0.83663   0.86098   0.00000  Uiso   1.00
C326   C     0.51696   0.90416   0.88749   0.00000  Uiso   1.00
C327   C     0.54357   0.04388   0.93374   0.00000  Uiso   1.00
C328   C     0.36387   0.62019   0.74512   0.00000  Uiso   1.00
C329   C     0.30692   0.62602   0.68539   0.00000  Uiso   1.00
C330   C     0.22239   0.59723   0.63160   0.00000  Uiso   1.00
C331   C     0.07854   0.55926   0.52976   0.00000  Uiso   1.00
C332   C     0.50630   0.54675   0.85210   0.00000  Uiso   1.00
C333   C     0.56911   0.49082   0.88230   0.00000  Uiso   1.00
C334   C     0.60449   0.40019   0.91856   0.00000  Uiso   1.00
C335   C     0.68178   0.24820   0.98282   0.00000  Uiso   1.00
C336   C     0.41024   0.58637   0.82082   0.00000  Uiso   1.00
C337   C     0.44713   0.70117   0.84631   0.00000  Uiso   1.00
C338   C     0.45499   0.76856   0.87280   0.00000  Uiso   1.00
C339   C     0.49037   0.87068   0.89330   0.00000  Uiso   1.00
C340   C     0.33732   0.58677   0.75092   0.00000  Uiso   1.00
C341   C     0.25286   0.55796   0.69721   0.00000  Uiso   1.00
C342   C     0.19580   0.56376   0.63741   0.00000  Uiso   1.00
C343   C     0.47976   0.51334   0.85790   0.00000  Uiso   1.00
C344   C     0.51504   0.42276   0.89412   0.00000  Uiso   1.00
C345   C     0.57789   0.36671   0.92437   0.00000  Uiso   1.00
H346   H     0.47978   0.67391   0.80562   0.00000  Uiso   1.00
H347   H     0.52958   0.86246   0.85647   0.00000  Uiso   1.00
H348   H     0.32749   0.65187   0.68092   0.00000  Uiso   1.00
H349   H     0.58963   0.51670   0.87780   0.00000  Uiso   1.00
H350   H     0.57307   0.05679   0.91540   0.00000  Uiso   1.00
H351   H     0.14695   0.61272   0.54523   0.00000  Uiso   1.00
H352   H     0.69973   0.32768   0.96038   0.00000  Uiso   1.00
H353   H     0.38958   0.56036   0.82534   0.00000  Uiso   1.00
H354   H     0.43444   0.74268   0.87728   0.00000  Uiso   1.00
H355   H     0.23234   0.53210   0.70172   0.00000  Uiso   1.00
H356   H     0.49448   0.39693   0.89860   0.00000  Uiso   1.00
H357   H     0.49584   0.95957   0.93228   0.00000  Uiso   1.00
H358   H     0.06972   0.51550   0.56211   0.00000  Uiso   1.00
H359   H     0.62250   0.23047   0.97727   0.00000  Uiso   1.00
O360   O     0.56557   0.13018   0.95763   0.00000  Uiso   1.00
O361   O     0.00652   0.54757   0.47199   0.00000  Uiso   1.00
O362   O     0.73176   0.17360   0.01666   0.00000  Uiso   1.00
N363   N     0.54875   0.00888   0.91226   0.00000  Uiso   1.00
N364   N     0.15035   0.59372   0.56616   0.00000  Uiso   1.00
N365   N     0.66714   0.32721   0.95429   0.00000  Uiso   1.00
N366   N     0.50720   0.95657   0.92134   0.00000  Uiso   1.00
N367   N     0.10879   0.54141   0.57525   0.00000  Uiso   1.00
N368   N     0.62559   0.27490   0.96337   0.00000  Uiso   1.00
