data_job_00149
_audit_creation_date              2018-12-19
_audit_creation_method            'Materials Studio'
_symmetry_space_group_name_H-M    'P1'
_symmetry_Int_Tables_number       1
_symmetry_cell_setting            triclinic
loop_
_symmetry_equiv_pos_as_xyz
  x,y,z
_cell_length_a                    33.0748
_cell_length_b                    12.9681
_cell_length_c                    19.6272
_cell_angle_alpha                 90.0000
_cell_angle_beta                  147.8097
_cell_angle_gamma                 90.0000
loop_
_atom_site_label
_atom_site_type_symbol
_atom_site_fract_x
_atom_site_fract_y
_atom_site_fract_z
_atom_site_U_iso_or_equiv
_atom_site_adp_type
_atom_site_occupancy
C1     C     0.21280   0.69161   0.68816   0.00000  Uiso   1.00
C2     C     0.18076   0.61102   0.59374   0.00000  Uiso   1.00
C3     C     0.19836   0.50671   0.61898   0.00000  Uiso   1.00
C4     C     0.16305   0.44572   0.51989   0.00000  Uiso   1.00
C5     C     0.12109   0.31421   0.39155   0.00000  Uiso   1.00
C6     C     0.24879   0.77446   0.69479   0.00000  Uiso   1.00
C7     C     0.32358   0.80758   0.80501   0.00000  Uiso   1.00
C8     C     0.34553   0.88418   0.79098   0.00000  Uiso   1.00
C9     C     0.40917   0.00647   0.81955   0.00000  Uiso   1.00
C10    C     0.14444   0.74223   0.62457   0.00000  Uiso   1.00
C11    C     0.13150   0.74829   0.67576   0.00000  Uiso   1.00
C12    C     0.06559   0.79778   0.60262   0.00000  Uiso   1.00
C13    C     0.96722   0.87004   0.52216   0.00000  Uiso   1.00
C14    C     0.11878   0.76877   0.46728   0.00000  Uiso   1.00
C15    C     0.12969   0.65294   0.47377   0.00000  Uiso   1.00
C16    C     0.09434   0.59208   0.37461   0.00000  Uiso   1.00
C17    C     0.11188   0.48770   0.39970   0.00000  Uiso   1.00
C18    C     0.19772   0.81637   0.57483   0.00000  Uiso   1.00
C19    C     0.21956   0.89295   0.56064   0.00000  Uiso   1.00
C20    C     0.29437   0.92617   0.67080   0.00000  Uiso   1.00
C21    C     0.09337   0.78415   0.50460   0.00000  Uiso   1.00
C22    C     0.02747   0.83365   0.43138   0.00000  Uiso   1.00
C23    C     0.01444   0.83977   0.48244   0.00000  Uiso   1.00
H24    H     0.25256   0.65899   0.78156   0.00000  Uiso   1.00
H25    H     0.23789   0.47431   0.71184   0.00000  Uiso   1.00
H26    H     0.36309   0.77514   0.89784   0.00000  Uiso   1.00
H27    H     0.17103   0.71584   0.76860   0.00000  Uiso   1.00
H28    H     0.19912   0.28805   0.58165   0.00000  Uiso   1.00
H29    H     0.46310   0.92238   0.97384   0.00000  Uiso   1.00
H30    H     0.05811   0.79736   0.70132   0.00000  Uiso   1.00
H31    H     0.07903   0.80141   0.37388   0.00000  Uiso   1.00
H32    H     0.05482   0.62454   0.28178   0.00000  Uiso   1.00
H33    H     0.18003   0.92537   0.46778   0.00000  Uiso   1.00
H34    H     0.98797   0.86608   0.33854   0.00000  Uiso   1.00
H35    H     0.05054   0.40998   0.23260   0.00000  Uiso   1.00
H36    H     0.31452   0.04433   0.62480   0.00000  Uiso   1.00
H37    H     0.90953   0.91930   0.35227   0.00000  Uiso   1.00
O38    O     0.11206   0.23010   0.35391   0.00000  Uiso   1.00
O39    O     0.45839   0.06234   0.86845   0.00000  Uiso   1.00
O40    O     0.92705   0.89830   0.51091   0.00000  Uiso   1.00
N41    N     0.16746   0.34101   0.51213   0.00000  Uiso   1.00
N42    N     0.41427   0.93407   0.87881   0.00000  Uiso   1.00
N43    N     0.03565   0.81721   0.62404   0.00000  Uiso   1.00
N44    N     0.08751   0.40663   0.32431   0.00000  Uiso   1.00
N45    N     0.33432   0.99968   0.69098   0.00000  Uiso   1.00
N46    N     0.95570   0.88282   0.43622   0.00000  Uiso   1.00
C47    C     0.71280   0.19161   0.68816   0.00000  Uiso   1.00
C48    C     0.68076   0.11102   0.59374   0.00000  Uiso   1.00
C49    C     0.69836   0.00671   0.61898   0.00000  Uiso   1.00
C50    C     0.66305   0.94572   0.51989   0.00000  Uiso   1.00
C51    C     0.62109   0.81421   0.39155   0.00000  Uiso   1.00
C52    C     0.74879   0.27446   0.69479   0.00000  Uiso   1.00
C53    C     0.82358   0.30758   0.80501   0.00000  Uiso   1.00
C54    C     0.84553   0.38418   0.79098   0.00000  Uiso   1.00
C55    C     0.90917   0.50647   0.81955   0.00000  Uiso   1.00
C56    C     0.64444   0.24223   0.62457   0.00000  Uiso   1.00
C57    C     0.63150   0.24829   0.67576   0.00000  Uiso   1.00
C58    C     0.56559   0.29778   0.60262   0.00000  Uiso   1.00
C59    C     0.46722   0.37004   0.52216   0.00000  Uiso   1.00
C60    C     0.61878   0.26877   0.46728   0.00000  Uiso   1.00
C61    C     0.62969   0.15294   0.47377   0.00000  Uiso   1.00
C62    C     0.59434   0.09208   0.37461   0.00000  Uiso   1.00
C63    C     0.61188   0.98770   0.39970   0.00000  Uiso   1.00
C64    C     0.69772   0.31637   0.57483   0.00000  Uiso   1.00
C65    C     0.71956   0.39295   0.56064   0.00000  Uiso   1.00
C66    C     0.79437   0.42617   0.67080   0.00000  Uiso   1.00
C67    C     0.59337   0.28415   0.50460   0.00000  Uiso   1.00
C68    C     0.52747   0.33365   0.43138   0.00000  Uiso   1.00
C69    C     0.51444   0.33977   0.48244   0.00000  Uiso   1.00
H70    H     0.75256   0.15899   0.78156   0.00000  Uiso   1.00
H71    H     0.73789   0.97431   0.71184   0.00000  Uiso   1.00
H72    H     0.86309   0.27514   0.89784   0.00000  Uiso   1.00
H73    H     0.67103   0.21584   0.76860   0.00000  Uiso   1.00
H74    H     0.69912   0.78805   0.58165   0.00000  Uiso   1.00
H75    H     0.96310   0.42238   0.97384   0.00000  Uiso   1.00
H76    H     0.55811   0.29736   0.70132   0.00000  Uiso   1.00
H77    H     0.57903   0.30141   0.37388   0.00000  Uiso   1.00
H78    H     0.55482   0.12454   0.28178   0.00000  Uiso   1.00
H79    H     0.68003   0.42537   0.46778   0.00000  Uiso   1.00
H80    H     0.48797   0.36608   0.33854   0.00000  Uiso   1.00
H81    H     0.55054   0.90998   0.23260   0.00000  Uiso   1.00
H82    H     0.81452   0.54433   0.62480   0.00000  Uiso   1.00
H83    H     0.40953   0.41930   0.35227   0.00000  Uiso   1.00
O84    O     0.61206   0.73010   0.35391   0.00000  Uiso   1.00
O85    O     0.95839   0.56234   0.86845   0.00000  Uiso   1.00
O86    O     0.42705   0.39830   0.51091   0.00000  Uiso   1.00
N87    N     0.66746   0.84101   0.51213   0.00000  Uiso   1.00
N88    N     0.91427   0.43407   0.87881   0.00000  Uiso   1.00
N89    N     0.53565   0.31721   0.62404   0.00000  Uiso   1.00
N90    N     0.58751   0.90663   0.32431   0.00000  Uiso   1.00
N91    N     0.83432   0.49968   0.69098   0.00000  Uiso   1.00
N92    N     0.45570   0.38282   0.43622   0.00000  Uiso   1.00
C93    C     0.78720   0.69161   0.81184   0.00000  Uiso   1.00
C94    C     0.81924   0.61102   0.90626   0.00000  Uiso   1.00
C95    C     0.80164   0.50671   0.88102   0.00000  Uiso   1.00
C96    C     0.83695   0.44572   0.98011   0.00000  Uiso   1.00
C97    C     0.87891   0.31421   0.10845   0.00000  Uiso   1.00
C98    C     0.75121   0.77446   0.80521   0.00000  Uiso   1.00
C99    C     0.67642   0.80758   0.69499   0.00000  Uiso   1.00
C100   C     0.65447   0.88418   0.70902   0.00000  Uiso   1.00
C101   C     0.59083   0.00647   0.68045   0.00000  Uiso   1.00
C102   C     0.85556   0.74223   0.87543   0.00000  Uiso   1.00
C103   C     0.86850   0.74829   0.82424   0.00000  Uiso   1.00
C104   C     0.93441   0.79778   0.89738   0.00000  Uiso   1.00
C105   C     0.03278   0.87004   0.97784   0.00000  Uiso   1.00
C106   C     0.88122   0.76877   0.03272   0.00000  Uiso   1.00
C107   C     0.87031   0.65294   0.02623   0.00000  Uiso   1.00
C108   C     0.90566   0.59208   0.12539   0.00000  Uiso   1.00
C109   C     0.88812   0.48770   0.10030   0.00000  Uiso   1.00
C110   C     0.80228   0.81637   0.92517   0.00000  Uiso   1.00
C111   C     0.78044   0.89295   0.93936   0.00000  Uiso   1.00
C112   C     0.70563   0.92617   0.82920   0.00000  Uiso   1.00
C113   C     0.90663   0.78415   0.99540   0.00000  Uiso   1.00
C114   C     0.97253   0.83365   0.06862   0.00000  Uiso   1.00
C115   C     0.98556   0.83977   0.01756   0.00000  Uiso   1.00
H116   H     0.74744   0.65899   0.71844   0.00000  Uiso   1.00
H117   H     0.76211   0.47431   0.78816   0.00000  Uiso   1.00
H118   H     0.63691   0.77514   0.60216   0.00000  Uiso   1.00
H119   H     0.82897   0.71584   0.73140   0.00000  Uiso   1.00
H120   H     0.80088   0.28805   0.91835   0.00000  Uiso   1.00
H121   H     0.53690   0.92238   0.52616   0.00000  Uiso   1.00
H122   H     0.94189   0.79736   0.79868   0.00000  Uiso   1.00
H123   H     0.92097   0.80141   0.12612   0.00000  Uiso   1.00
H124   H     0.94518   0.62454   0.21822   0.00000  Uiso   1.00
H125   H     0.81997   0.92537   0.03222   0.00000  Uiso   1.00
H126   H     0.01203   0.86608   0.16146   0.00000  Uiso   1.00
H127   H     0.94946   0.40998   0.26740   0.00000  Uiso   1.00
H128   H     0.68548   0.04433   0.87520   0.00000  Uiso   1.00
H129   H     0.09047   0.91930   0.14773   0.00000  Uiso   1.00
O130   O     0.88794   0.23010   0.14609   0.00000  Uiso   1.00
O131   O     0.54161   0.06234   0.63155   0.00000  Uiso   1.00
O132   O     0.07295   0.89830   0.98909   0.00000  Uiso   1.00
N133   N     0.83254   0.34101   0.98787   0.00000  Uiso   1.00
N134   N     0.58573   0.93407   0.62119   0.00000  Uiso   1.00
N135   N     0.96435   0.81721   0.87596   0.00000  Uiso   1.00
N136   N     0.91249   0.40663   0.17569   0.00000  Uiso   1.00
N137   N     0.66568   0.99968   0.80902   0.00000  Uiso   1.00
N138   N     0.04430   0.88282   0.06378   0.00000  Uiso   1.00
C139   C     0.28720   0.19161   0.81184   0.00000  Uiso   1.00
C140   C     0.31924   0.11102   0.90626   0.00000  Uiso   1.00
C141   C     0.30164   0.00671   0.88102   0.00000  Uiso   1.00
C142   C     0.33695   0.94572   0.98011   0.00000  Uiso   1.00
C143   C     0.37891   0.81421   0.10845   0.00000  Uiso   1.00
C144   C     0.25121   0.27446   0.80521   0.00000  Uiso   1.00
C145   C     0.17642   0.30758   0.69499   0.00000  Uiso   1.00
C146   C     0.15447   0.38418   0.70902   0.00000  Uiso   1.00
C147   C     0.09083   0.50647   0.68045   0.00000  Uiso   1.00
C148   C     0.35556   0.24223   0.87543   0.00000  Uiso   1.00
C149   C     0.36850   0.24829   0.82424   0.00000  Uiso   1.00
C150   C     0.43441   0.29778   0.89738   0.00000  Uiso   1.00
C151   C     0.53278   0.37004   0.97784   0.00000  Uiso   1.00
C152   C     0.38122   0.26877   0.03272   0.00000  Uiso   1.00
C153   C     0.37031   0.15294   0.02623   0.00000  Uiso   1.00
C154   C     0.40566   0.09208   0.12539   0.00000  Uiso   1.00
C155   C     0.38812   0.98770   0.10030   0.00000  Uiso   1.00
C156   C     0.30228   0.31637   0.92517   0.00000  Uiso   1.00
C157   C     0.28044   0.39295   0.93936   0.00000  Uiso   1.00
C158   C     0.20563   0.42617   0.82920   0.00000  Uiso   1.00
C159   C     0.40663   0.28415   0.99540   0.00000  Uiso   1.00
C160   C     0.47253   0.33365   0.06862   0.00000  Uiso   1.00
C161   C     0.48556   0.33977   0.01756   0.00000  Uiso   1.00
H162   H     0.24744   0.15899   0.71844   0.00000  Uiso   1.00
H163   H     0.26211   0.97431   0.78816   0.00000  Uiso   1.00
H164   H     0.13691   0.27514   0.60216   0.00000  Uiso   1.00
H165   H     0.32897   0.21584   0.73140   0.00000  Uiso   1.00
H166   H     0.30088   0.78805   0.91835   0.00000  Uiso   1.00
H167   H     0.03690   0.42238   0.52616   0.00000  Uiso   1.00
H168   H     0.44189   0.29736   0.79868   0.00000  Uiso   1.00
H169   H     0.42097   0.30141   0.12612   0.00000  Uiso   1.00
H170   H     0.44518   0.12454   0.21822   0.00000  Uiso   1.00
H171   H     0.31997   0.42537   0.03222   0.00000  Uiso   1.00
H172   H     0.51203   0.36608   0.16146   0.00000  Uiso   1.00
H173   H     0.44946   0.90998   0.26740   0.00000  Uiso   1.00
H174   H     0.18548   0.54433   0.87520   0.00000  Uiso   1.00
H175   H     0.59047   0.41930   0.14773   0.00000  Uiso   1.00
O176   O     0.38794   0.73010   0.14609   0.00000  Uiso   1.00
O177   O     0.04161   0.56234   0.63155   0.00000  Uiso   1.00
O178   O     0.57295   0.39830   0.98909   0.00000  Uiso   1.00
N179   N     0.33254   0.84101   0.98787   0.00000  Uiso   1.00
N180   N     0.08573   0.43407   0.62119   0.00000  Uiso   1.00
N181   N     0.46435   0.31721   0.87596   0.00000  Uiso   1.00
N182   N     0.41249   0.90663   0.17569   0.00000  Uiso   1.00
N183   N     0.16568   0.49968   0.80902   0.00000  Uiso   1.00
N184   N     0.54430   0.38282   0.06378   0.00000  Uiso   1.00
C185   C     0.78720   0.30839   0.31184   0.00000  Uiso   1.00
C186   C     0.81924   0.38898   0.40626   0.00000  Uiso   1.00
C187   C     0.80164   0.49329   0.38102   0.00000  Uiso   1.00
C188   C     0.83695   0.55428   0.48011   0.00000  Uiso   1.00
C189   C     0.87891   0.68579   0.60845   0.00000  Uiso   1.00
C190   C     0.75121   0.22554   0.30521   0.00000  Uiso   1.00
C191   C     0.67642   0.19242   0.19499   0.00000  Uiso   1.00
C192   C     0.65447   0.11582   0.20902   0.00000  Uiso   1.00
C193   C     0.59083   0.99353   0.18045   0.00000  Uiso   1.00
C194   C     0.85556   0.25777   0.37543   0.00000  Uiso   1.00
C195   C     0.86850   0.25171   0.32424   0.00000  Uiso   1.00
C196   C     0.93441   0.20222   0.39738   0.00000  Uiso   1.00
C197   C     0.03278   0.12996   0.47784   0.00000  Uiso   1.00
C198   C     0.88122   0.23123   0.53272   0.00000  Uiso   1.00
C199   C     0.87031   0.34706   0.52623   0.00000  Uiso   1.00
C200   C     0.90566   0.40792   0.62539   0.00000  Uiso   1.00
C201   C     0.88812   0.51230   0.60030   0.00000  Uiso   1.00
C202   C     0.80228   0.18363   0.42517   0.00000  Uiso   1.00
C203   C     0.78044   0.10705   0.43936   0.00000  Uiso   1.00
C204   C     0.70563   0.07383   0.32920   0.00000  Uiso   1.00
C205   C     0.90663   0.21585   0.49540   0.00000  Uiso   1.00
C206   C     0.97253   0.16635   0.56862   0.00000  Uiso   1.00
C207   C     0.98556   0.16023   0.51756   0.00000  Uiso   1.00
H208   H     0.74744   0.34101   0.21844   0.00000  Uiso   1.00
H209   H     0.76211   0.52569   0.28816   0.00000  Uiso   1.00
H210   H     0.63691   0.22486   0.10216   0.00000  Uiso   1.00
H211   H     0.82897   0.28416   0.23140   0.00000  Uiso   1.00
H212   H     0.80088   0.71195   0.41835   0.00000  Uiso   1.00
H213   H     0.53690   0.07762   0.02616   0.00000  Uiso   1.00
H214   H     0.94189   0.20264   0.29868   0.00000  Uiso   1.00
H215   H     0.92097   0.19859   0.62612   0.00000  Uiso   1.00
H216   H     0.94518   0.37546   0.71822   0.00000  Uiso   1.00
H217   H     0.81997   0.07463   0.53222   0.00000  Uiso   1.00
H218   H     0.01203   0.13392   0.66146   0.00000  Uiso   1.00
H219   H     0.94946   0.59002   0.76740   0.00000  Uiso   1.00
H220   H     0.68548   0.95567   0.37520   0.00000  Uiso   1.00
H221   H     0.09047   0.08070   0.64773   0.00000  Uiso   1.00
O222   O     0.88794   0.76990   0.64609   0.00000  Uiso   1.00
O223   O     0.54161   0.93766   0.13155   0.00000  Uiso   1.00
O224   O     0.07295   0.10170   0.48909   0.00000  Uiso   1.00
N225   N     0.83254   0.65899   0.48787   0.00000  Uiso   1.00
N226   N     0.58573   0.06593   0.12119   0.00000  Uiso   1.00
N227   N     0.96435   0.18279   0.37596   0.00000  Uiso   1.00
N228   N     0.91249   0.59337   0.67569   0.00000  Uiso   1.00
N229   N     0.66568   0.00032   0.30902   0.00000  Uiso   1.00
N230   N     0.04430   0.11718   0.56378   0.00000  Uiso   1.00
C231   C     0.28720   0.80839   0.31184   0.00000  Uiso   1.00
C232   C     0.31924   0.88898   0.40626   0.00000  Uiso   1.00
C233   C     0.30164   0.99329   0.38102   0.00000  Uiso   1.00
C234   C     0.33695   0.05428   0.48011   0.00000  Uiso   1.00
C235   C     0.37891   0.18579   0.60845   0.00000  Uiso   1.00
C236   C     0.25121   0.72554   0.30521   0.00000  Uiso   1.00
C237   C     0.17642   0.69242   0.19499   0.00000  Uiso   1.00
C238   C     0.15447   0.61582   0.20902   0.00000  Uiso   1.00
C239   C     0.09083   0.49353   0.18045   0.00000  Uiso   1.00
C240   C     0.35556   0.75777   0.37543   0.00000  Uiso   1.00
C241   C     0.36850   0.75171   0.32424   0.00000  Uiso   1.00
C242   C     0.43441   0.70222   0.39738   0.00000  Uiso   1.00
C243   C     0.53278   0.62996   0.47784   0.00000  Uiso   1.00
C244   C     0.38122   0.73123   0.53272   0.00000  Uiso   1.00
C245   C     0.37031   0.84706   0.52623   0.00000  Uiso   1.00
C246   C     0.40566   0.90792   0.62539   0.00000  Uiso   1.00
C247   C     0.38812   0.01230   0.60030   0.00000  Uiso   1.00
C248   C     0.30228   0.68363   0.42517   0.00000  Uiso   1.00
C249   C     0.28044   0.60705   0.43936   0.00000  Uiso   1.00
C250   C     0.20563   0.57383   0.32920   0.00000  Uiso   1.00
C251   C     0.40663   0.71585   0.49540   0.00000  Uiso   1.00
C252   C     0.47253   0.66635   0.56862   0.00000  Uiso   1.00
C253   C     0.48556   0.66023   0.51756   0.00000  Uiso   1.00
H254   H     0.24744   0.84101   0.21844   0.00000  Uiso   1.00
H255   H     0.26211   0.02569   0.28816   0.00000  Uiso   1.00
H256   H     0.13691   0.72486   0.10216   0.00000  Uiso   1.00
H257   H     0.32897   0.78416   0.23140   0.00000  Uiso   1.00
H258   H     0.30088   0.21195   0.41835   0.00000  Uiso   1.00
H259   H     0.03690   0.57762   0.02616   0.00000  Uiso   1.00
H260   H     0.44189   0.70264   0.29868   0.00000  Uiso   1.00
H261   H     0.42097   0.69859   0.62612   0.00000  Uiso   1.00
H262   H     0.44518   0.87546   0.71822   0.00000  Uiso   1.00
H263   H     0.31997   0.57463   0.53222   0.00000  Uiso   1.00
H264   H     0.51203   0.63392   0.66146   0.00000  Uiso   1.00
H265   H     0.44946   0.09002   0.76740   0.00000  Uiso   1.00
H266   H     0.18548   0.45567   0.37520   0.00000  Uiso   1.00
H267   H     0.59047   0.58070   0.64773   0.00000  Uiso   1.00
O268   O     0.38794   0.26990   0.64609   0.00000  Uiso   1.00
O269   O     0.04161   0.43766   0.13155   0.00000  Uiso   1.00
O270   O     0.57295   0.60170   0.48909   0.00000  Uiso   1.00
N271   N     0.33254   0.15899   0.48787   0.00000  Uiso   1.00
N272   N     0.08573   0.56593   0.12119   0.00000  Uiso   1.00
N273   N     0.46435   0.68279   0.37596   0.00000  Uiso   1.00
N274   N     0.41249   0.09337   0.67569   0.00000  Uiso   1.00
N275   N     0.16568   0.50032   0.30902   0.00000  Uiso   1.00
N276   N     0.54430   0.61718   0.56378   0.00000  Uiso   1.00
C277   C     0.21280   0.30839   0.18816   0.00000  Uiso   1.00
C278   C     0.18076   0.38898   0.09374   0.00000  Uiso   1.00
C279   C     0.19836   0.49329   0.11898   0.00000  Uiso   1.00
C280   C     0.16305   0.55428   0.01989   0.00000  Uiso   1.00
C281   C     0.12109   0.68579   0.89155   0.00000  Uiso   1.00
C282   C     0.24879   0.22554   0.19479   0.00000  Uiso   1.00
C283   C     0.32358   0.19242   0.30501   0.00000  Uiso   1.00
C284   C     0.34553   0.11582   0.29098   0.00000  Uiso   1.00
C285   C     0.40917   0.99353   0.31955   0.00000  Uiso   1.00
C286   C     0.14444   0.25777   0.12457   0.00000  Uiso   1.00
C287   C     0.13150   0.25171   0.17576   0.00000  Uiso   1.00
C288   C     0.06559   0.20222   0.10262   0.00000  Uiso   1.00
C289   C     0.96722   0.12996   0.02216   0.00000  Uiso   1.00
C290   C     0.11878   0.23123   0.96728   0.00000  Uiso   1.00
C291   C     0.12969   0.34706   0.97377   0.00000  Uiso   1.00
C292   C     0.09434   0.40792   0.87461   0.00000  Uiso   1.00
C293   C     0.11188   0.51230   0.89970   0.00000  Uiso   1.00
C294   C     0.19772   0.18363   0.07483   0.00000  Uiso   1.00
C295   C     0.21956   0.10705   0.06064   0.00000  Uiso   1.00
C296   C     0.29437   0.07383   0.17080   0.00000  Uiso   1.00
C297   C     0.09337   0.21585   0.00460   0.00000  Uiso   1.00
C298   C     0.02747   0.16635   0.93138   0.00000  Uiso   1.00
C299   C     0.01444   0.16023   0.98244   0.00000  Uiso   1.00
H300   H     0.25256   0.34101   0.28156   0.00000  Uiso   1.00
H301   H     0.23789   0.52569   0.21184   0.00000  Uiso   1.00
H302   H     0.36309   0.22486   0.39784   0.00000  Uiso   1.00
H303   H     0.17103   0.28416   0.26860   0.00000  Uiso   1.00
H304   H     0.19912   0.71195   0.08165   0.00000  Uiso   1.00
H305   H     0.46310   0.07762   0.47384   0.00000  Uiso   1.00
H306   H     0.05811   0.20264   0.20132   0.00000  Uiso   1.00
H307   H     0.07903   0.19859   0.87388   0.00000  Uiso   1.00
H308   H     0.05482   0.37546   0.78178   0.00000  Uiso   1.00
H309   H     0.18003   0.07463   0.96778   0.00000  Uiso   1.00
H310   H     0.98797   0.13392   0.83854   0.00000  Uiso   1.00
H311   H     0.05054   0.59002   0.73260   0.00000  Uiso   1.00
H312   H     0.31452   0.95567   0.12480   0.00000  Uiso   1.00
H313   H     0.90953   0.08070   0.85227   0.00000  Uiso   1.00
O314   O     0.11206   0.76990   0.85391   0.00000  Uiso   1.00
O315   O     0.45839   0.93766   0.36845   0.00000  Uiso   1.00
O316   O     0.92705   0.10170   0.01091   0.00000  Uiso   1.00
N317   N     0.16746   0.65899   0.01213   0.00000  Uiso   1.00
N318   N     0.41427   0.06593   0.37881   0.00000  Uiso   1.00
N319   N     0.03565   0.18279   0.12404   0.00000  Uiso   1.00
N320   N     0.08751   0.59337   0.82431   0.00000  Uiso   1.00
N321   N     0.33432   0.00032   0.19098   0.00000  Uiso   1.00
N322   N     0.95570   0.11718   0.93622   0.00000  Uiso   1.00
C323   C     0.71280   0.80839   0.18816   0.00000  Uiso   1.00
C324   C     0.68076   0.88898   0.09374   0.00000  Uiso   1.00
C325   C     0.69836   0.99329   0.11898   0.00000  Uiso   1.00
C326   C     0.66305   0.05428   0.01989   0.00000  Uiso   1.00
C327   C     0.62109   0.18579   0.89155   0.00000  Uiso   1.00
C328   C     0.74879   0.72554   0.19479   0.00000  Uiso   1.00
C329   C     0.82358   0.69242   0.30501   0.00000  Uiso   1.00
C330   C     0.84553   0.61582   0.29098   0.00000  Uiso   1.00
C331   C     0.90917   0.49353   0.31955   0.00000  Uiso   1.00
C332   C     0.64444   0.75777   0.12457   0.00000  Uiso   1.00
C333   C     0.63150   0.75171   0.17576   0.00000  Uiso   1.00
C334   C     0.56559   0.70222   0.10262   0.00000  Uiso   1.00
C335   C     0.46722   0.62996   0.02216   0.00000  Uiso   1.00
C336   C     0.61878   0.73123   0.96728   0.00000  Uiso   1.00
C337   C     0.62969   0.84706   0.97377   0.00000  Uiso   1.00
C338   C     0.59434   0.90792   0.87461   0.00000  Uiso   1.00
C339   C     0.61188   0.01230   0.89970   0.00000  Uiso   1.00
C340   C     0.69772   0.68363   0.07483   0.00000  Uiso   1.00
C341   C     0.71956   0.60705   0.06064   0.00000  Uiso   1.00
C342   C     0.79437   0.57383   0.17080   0.00000  Uiso   1.00
C343   C     0.59337   0.71585   0.00460   0.00000  Uiso   1.00
C344   C     0.52747   0.66635   0.93138   0.00000  Uiso   1.00
C345   C     0.51444   0.66023   0.98244   0.00000  Uiso   1.00
H346   H     0.75256   0.84101   0.28156   0.00000  Uiso   1.00
H347   H     0.73789   0.02569   0.21184   0.00000  Uiso   1.00
H348   H     0.86309   0.72486   0.39784   0.00000  Uiso   1.00
H349   H     0.67103   0.78416   0.26860   0.00000  Uiso   1.00
H350   H     0.69912   0.21195   0.08165   0.00000  Uiso   1.00
H351   H     0.96310   0.57762   0.47384   0.00000  Uiso   1.00
H352   H     0.55811   0.70264   0.20132   0.00000  Uiso   1.00
H353   H     0.57903   0.69859   0.87388   0.00000  Uiso   1.00
H354   H     0.55482   0.87546   0.78178   0.00000  Uiso   1.00
H355   H     0.68003   0.57463   0.96778   0.00000  Uiso   1.00
H356   H     0.48797   0.63392   0.83854   0.00000  Uiso   1.00
H357   H     0.55054   0.09002   0.73260   0.00000  Uiso   1.00
H358   H     0.81452   0.45567   0.12480   0.00000  Uiso   1.00
H359   H     0.40953   0.58070   0.85227   0.00000  Uiso   1.00
O360   O     0.61206   0.26990   0.85391   0.00000  Uiso   1.00
O361   O     0.95839   0.43766   0.36845   0.00000  Uiso   1.00
O362   O     0.42705   0.60170   0.01091   0.00000  Uiso   1.00
N363   N     0.66746   0.15899   0.01213   0.00000  Uiso   1.00
N364   N     0.91427   0.56593   0.37881   0.00000  Uiso   1.00
N365   N     0.53565   0.68279   0.12404   0.00000  Uiso   1.00
N366   N     0.58751   0.09337   0.82431   0.00000  Uiso   1.00
N367   N     0.83432   0.50032   0.19098   0.00000  Uiso   1.00
N368   N     0.45570   0.61718   0.93622   0.00000  Uiso   1.00
