data_job_02517
_audit_creation_date              2018-12-19
_audit_creation_method            'Materials Studio'
_symmetry_space_group_name_H-M    'P1'
_symmetry_Int_Tables_number       1
_symmetry_cell_setting            triclinic
loop_
_symmetry_equiv_pos_as_xyz
  x,y,z
_cell_length_a                    10.3970
_cell_length_b                    11.6407
_cell_length_c                    23.6353
_cell_angle_alpha                 90.0000
_cell_angle_beta                  104.1710
_cell_angle_gamma                 90.0000
loop_
_atom_site_label
_atom_site_type_symbol
_atom_site_fract_x
_atom_site_fract_y
_atom_site_fract_z
_atom_site_U_iso_or_equiv
_atom_site_adp_type
_atom_site_occupancy
C1     C     0.41747   0.05891   0.68514   0.00000  Uiso   1.00
C2     C     0.32986   0.15320   0.65100   0.00000  Uiso   1.00
C3     C     0.36770   0.26626   0.64579   0.00000  Uiso   1.00
C4     C     0.27304   0.33932   0.61266   0.00000  Uiso   1.00
C5     C     0.15644   0.49163   0.56377   0.00000  Uiso   1.00
C6     C     0.34352   0.01272   0.72866   0.00000  Uiso   1.00
C7     C     0.39284   0.00765   0.78873   0.00000  Uiso   1.00
C8     C     0.30968   0.96243   0.82097   0.00000  Uiso   1.00
C9     C     0.21431   0.89657   0.89264   0.00000  Uiso   1.00
C10    C     0.41771   0.96194   0.64179   0.00000  Uiso   1.00
C11    C     0.52942   0.91415   0.62884   0.00000  Uiso   1.00
C12    C     0.50872   0.82616   0.58795   0.00000  Uiso   1.00
C13    C     0.52855   0.68145   0.52474   0.00000  Uiso   1.00
C14    C     0.18208   0.98758   0.63556   0.00000  Uiso   1.00
C15    C     0.20201   0.11445   0.62408   0.00000  Uiso   1.00
C16    C     0.10727   0.18735   0.59094   0.00000  Uiso   1.00
C17    C     0.14496   0.30051   0.58568   0.00000  Uiso   1.00
C18    C     0.21567   0.97398   0.70173   0.00000  Uiso   1.00
C19    C     0.13241   0.92874   0.73388   0.00000  Uiso   1.00
C20    C     0.18159   0.92362   0.79399   0.00000  Uiso   1.00
C21    C     0.28986   0.92320   0.61486   0.00000  Uiso   1.00
C22    C     0.26898   0.83525   0.57399   0.00000  Uiso   1.00
C23    C     0.38063   0.78735   0.56097   0.00000  Uiso   1.00
H24    H     0.51700   0.08907   0.70611   0.00000  Uiso   1.00
H25    H     0.46665   0.29622   0.66664   0.00000  Uiso   1.00
H26    H     0.49179   0.03763   0.80956   0.00000  Uiso   1.00
H27    H     0.62834   0.94416   0.64969   0.00000  Uiso   1.00
H28    H     0.35442   0.50880   0.61103   0.00000  Uiso   1.00
H29    H     0.40745   0.96353   0.91238   0.00000  Uiso   1.00
H30    H     0.69539   0.76641   0.57526   0.00000  Uiso   1.00
H31    H     0.08254   0.95742   0.61460   0.00000  Uiso   1.00
H32    H     0.00834   0.15735   0.57011   0.00000  Uiso   1.00
H33    H     0.03348   0.89876   0.71303   0.00000  Uiso   1.00
H34    H     0.17003   0.80529   0.55316   0.00000  Uiso   1.00
H35    H     0.98243   0.39609   0.53268   0.00000  Uiso   1.00
H36    H     0.03547   0.85081   0.83403   0.00000  Uiso   1.00
H37    H     0.32341   0.65370   0.49691   0.00000  Uiso   1.00
O38    O     0.12744   0.58635   0.54425   0.00000  Uiso   1.00
O39    O     0.19703   0.87095   0.93961   0.00000  Uiso   1.00
O40    O     0.57480   0.61235   0.49732   0.00000  Uiso   1.00
N41    N     0.27706   0.45483   0.59868   0.00000  Uiso   1.00
N42    N     0.32664   0.94505   0.88043   0.00000  Uiso   1.00
N43    N     0.59584   0.76074   0.56526   0.00000  Uiso   1.00
N44    N     0.07690   0.39418   0.55652   0.00000  Uiso   1.00
N45    N     0.12648   0.88440   0.83827   0.00000  Uiso   1.00
N46    N     0.39568   0.70010   0.52310   0.00000  Uiso   1.00
C47    C     0.58253   0.55891   0.81486   0.00000  Uiso   1.00
C48    C     0.67014   0.65320   0.84900   0.00000  Uiso   1.00
C49    C     0.63230   0.76626   0.85421   0.00000  Uiso   1.00
C50    C     0.72696   0.83932   0.88734   0.00000  Uiso   1.00
C51    C     0.84356   0.99163   0.93623   0.00000  Uiso   1.00
C52    C     0.65648   0.51272   0.77134   0.00000  Uiso   1.00
C53    C     0.60716   0.50765   0.71127   0.00000  Uiso   1.00
C54    C     0.69032   0.46243   0.67903   0.00000  Uiso   1.00
C55    C     0.78569   0.39657   0.60736   0.00000  Uiso   1.00
C56    C     0.58229   0.46194   0.85821   0.00000  Uiso   1.00
C57    C     0.47058   0.41415   0.87116   0.00000  Uiso   1.00
C58    C     0.49128   0.32616   0.91205   0.00000  Uiso   1.00
C59    C     0.47145   0.18145   0.97526   0.00000  Uiso   1.00
C60    C     0.81792   0.48758   0.86444   0.00000  Uiso   1.00
C61    C     0.79799   0.61445   0.87592   0.00000  Uiso   1.00
C62    C     0.89273   0.68735   0.90906   0.00000  Uiso   1.00
C63    C     0.85504   0.80051   0.91432   0.00000  Uiso   1.00
C64    C     0.78433   0.47398   0.79827   0.00000  Uiso   1.00
C65    C     0.86759   0.42874   0.76612   0.00000  Uiso   1.00
C66    C     0.81841   0.42362   0.70601   0.00000  Uiso   1.00
C67    C     0.71014   0.42320   0.88514   0.00000  Uiso   1.00
C68    C     0.73102   0.33525   0.92601   0.00000  Uiso   1.00
C69    C     0.61937   0.28735   0.93903   0.00000  Uiso   1.00
H70    H     0.48300   0.58907   0.79389   0.00000  Uiso   1.00
H71    H     0.53335   0.79622   0.83336   0.00000  Uiso   1.00
H72    H     0.50821   0.53763   0.69044   0.00000  Uiso   1.00
H73    H     0.37166   0.44416   0.85031   0.00000  Uiso   1.00
H74    H     0.64558   0.00880   0.88897   0.00000  Uiso   1.00
H75    H     0.59255   0.46353   0.58762   0.00000  Uiso   1.00
H76    H     0.30461   0.26641   0.92474   0.00000  Uiso   1.00
H77    H     0.91746   0.45742   0.88540   0.00000  Uiso   1.00
H78    H     0.99166   0.65735   0.92989   0.00000  Uiso   1.00
H79    H     0.96652   0.39876   0.78697   0.00000  Uiso   1.00
H80    H     0.82997   0.30529   0.94684   0.00000  Uiso   1.00
H81    H     0.01757   0.89609   0.96732   0.00000  Uiso   1.00
H82    H     0.96453   0.35081   0.66597   0.00000  Uiso   1.00
H83    H     0.67659   0.15370   0.00309   0.00000  Uiso   1.00
O84    O     0.87256   0.08635   0.95575   0.00000  Uiso   1.00
O85    O     0.80297   0.37095   0.56039   0.00000  Uiso   1.00
O86    O     0.42520   0.11235   0.00268   0.00000  Uiso   1.00
N87    N     0.72294   0.95483   0.90132   0.00000  Uiso   1.00
N88    N     0.67336   0.44505   0.61957   0.00000  Uiso   1.00
N89    N     0.40416   0.26074   0.93474   0.00000  Uiso   1.00
N90    N     0.92310   0.89418   0.94348   0.00000  Uiso   1.00
N91    N     0.87352   0.38440   0.66173   0.00000  Uiso   1.00
N92    N     0.60432   0.20010   0.97690   0.00000  Uiso   1.00
C93    C     0.58253   0.94109   0.31486   0.00000  Uiso   1.00
C94    C     0.67014   0.84680   0.34900   0.00000  Uiso   1.00
C95    C     0.63230   0.73374   0.35421   0.00000  Uiso   1.00
C96    C     0.72696   0.66068   0.38734   0.00000  Uiso   1.00
C97    C     0.84356   0.50837   0.43623   0.00000  Uiso   1.00
C98    C     0.65648   0.98728   0.27134   0.00000  Uiso   1.00
C99    C     0.60716   0.99235   0.21127   0.00000  Uiso   1.00
C100   C     0.69032   0.03757   0.17903   0.00000  Uiso   1.00
C101   C     0.78569   0.10343   0.10736   0.00000  Uiso   1.00
C102   C     0.58229   0.03806   0.35821   0.00000  Uiso   1.00
C103   C     0.47058   0.08585   0.37116   0.00000  Uiso   1.00
C104   C     0.49128   0.17384   0.41205   0.00000  Uiso   1.00
C105   C     0.47145   0.31855   0.47526   0.00000  Uiso   1.00
C106   C     0.81792   0.01242   0.36444   0.00000  Uiso   1.00
C107   C     0.79799   0.88555   0.37592   0.00000  Uiso   1.00
C108   C     0.89273   0.81265   0.40906   0.00000  Uiso   1.00
C109   C     0.85504   0.69949   0.41432   0.00000  Uiso   1.00
C110   C     0.78433   0.02602   0.29827   0.00000  Uiso   1.00
C111   C     0.86759   0.07126   0.26612   0.00000  Uiso   1.00
C112   C     0.81841   0.07638   0.20601   0.00000  Uiso   1.00
C113   C     0.71014   0.07680   0.38514   0.00000  Uiso   1.00
C114   C     0.73102   0.16475   0.42601   0.00000  Uiso   1.00
C115   C     0.61937   0.21265   0.43903   0.00000  Uiso   1.00
H116   H     0.48300   0.91093   0.29389   0.00000  Uiso   1.00
H117   H     0.53335   0.70378   0.33336   0.00000  Uiso   1.00
H118   H     0.50821   0.96237   0.19044   0.00000  Uiso   1.00
H119   H     0.37166   0.05584   0.35031   0.00000  Uiso   1.00
H120   H     0.64558   0.49120   0.38897   0.00000  Uiso   1.00
H121   H     0.59255   0.03647   0.08762   0.00000  Uiso   1.00
H122   H     0.30461   0.23359   0.42474   0.00000  Uiso   1.00
H123   H     0.91746   0.04258   0.38540   0.00000  Uiso   1.00
H124   H     0.99166   0.84265   0.42989   0.00000  Uiso   1.00
H125   H     0.96652   0.10124   0.28697   0.00000  Uiso   1.00
H126   H     0.82997   0.19471   0.44684   0.00000  Uiso   1.00
H127   H     0.01757   0.60391   0.46732   0.00000  Uiso   1.00
H128   H     0.96453   0.14919   0.16597   0.00000  Uiso   1.00
H129   H     0.67659   0.34630   0.50309   0.00000  Uiso   1.00
O130   O     0.87256   0.41365   0.45575   0.00000  Uiso   1.00
O131   O     0.80297   0.12905   0.06039   0.00000  Uiso   1.00
O132   O     0.42520   0.38765   0.50268   0.00000  Uiso   1.00
N133   N     0.72294   0.54517   0.40132   0.00000  Uiso   1.00
N134   N     0.67336   0.05495   0.11957   0.00000  Uiso   1.00
N135   N     0.40416   0.23926   0.43474   0.00000  Uiso   1.00
N136   N     0.92310   0.60582   0.44348   0.00000  Uiso   1.00
N137   N     0.87352   0.11560   0.16173   0.00000  Uiso   1.00
N138   N     0.60432   0.29990   0.47690   0.00000  Uiso   1.00
C139   C     0.41747   0.44109   0.18514   0.00000  Uiso   1.00
C140   C     0.32986   0.34680   0.15100   0.00000  Uiso   1.00
C141   C     0.36770   0.23374   0.14579   0.00000  Uiso   1.00
C142   C     0.27304   0.16068   0.11266   0.00000  Uiso   1.00
C143   C     0.15644   0.00837   0.06377   0.00000  Uiso   1.00
C144   C     0.34352   0.48728   0.22866   0.00000  Uiso   1.00
C145   C     0.39284   0.49235   0.28873   0.00000  Uiso   1.00
C146   C     0.30968   0.53757   0.32097   0.00000  Uiso   1.00
C147   C     0.21431   0.60343   0.39264   0.00000  Uiso   1.00
C148   C     0.41771   0.53806   0.14179   0.00000  Uiso   1.00
C149   C     0.52942   0.58585   0.12884   0.00000  Uiso   1.00
C150   C     0.50872   0.67384   0.08795   0.00000  Uiso   1.00
C151   C     0.52855   0.81855   0.02474   0.00000  Uiso   1.00
C152   C     0.18208   0.51242   0.13556   0.00000  Uiso   1.00
C153   C     0.20201   0.38555   0.12408   0.00000  Uiso   1.00
C154   C     0.10727   0.31265   0.09094   0.00000  Uiso   1.00
C155   C     0.14496   0.19949   0.08568   0.00000  Uiso   1.00
C156   C     0.21567   0.52602   0.20173   0.00000  Uiso   1.00
C157   C     0.13241   0.57126   0.23388   0.00000  Uiso   1.00
C158   C     0.18159   0.57638   0.29399   0.00000  Uiso   1.00
C159   C     0.28986   0.57680   0.11486   0.00000  Uiso   1.00
C160   C     0.26898   0.66475   0.07399   0.00000  Uiso   1.00
C161   C     0.38063   0.71265   0.06097   0.00000  Uiso   1.00
H162   H     0.51700   0.41093   0.20611   0.00000  Uiso   1.00
H163   H     0.46665   0.20378   0.16664   0.00000  Uiso   1.00
H164   H     0.49179   0.46237   0.30956   0.00000  Uiso   1.00
H165   H     0.62834   0.55584   0.14969   0.00000  Uiso   1.00
H166   H     0.35442   0.99120   0.11103   0.00000  Uiso   1.00
H167   H     0.40745   0.53647   0.41238   0.00000  Uiso   1.00
H168   H     0.69539   0.73359   0.07526   0.00000  Uiso   1.00
H169   H     0.08254   0.54258   0.11460   0.00000  Uiso   1.00
H170   H     0.00834   0.34265   0.07011   0.00000  Uiso   1.00
H171   H     0.03348   0.60124   0.21303   0.00000  Uiso   1.00
H172   H     0.17003   0.69471   0.05316   0.00000  Uiso   1.00
H173   H     0.98243   0.10391   0.03268   0.00000  Uiso   1.00
H174   H     0.03547   0.64919   0.33403   0.00000  Uiso   1.00
H175   H     0.32341   0.84630   0.99691   0.00000  Uiso   1.00
O176   O     0.12744   0.91365   0.04425   0.00000  Uiso   1.00
O177   O     0.19703   0.62905   0.43961   0.00000  Uiso   1.00
O178   O     0.57480   0.88765   0.99732   0.00000  Uiso   1.00
N179   N     0.27706   0.04517   0.09868   0.00000  Uiso   1.00
N180   N     0.32664   0.55495   0.38043   0.00000  Uiso   1.00
N181   N     0.59584   0.73926   0.06526   0.00000  Uiso   1.00
N182   N     0.07690   0.10582   0.05652   0.00000  Uiso   1.00
N183   N     0.12648   0.61560   0.33827   0.00000  Uiso   1.00
N184   N     0.39568   0.79990   0.02310   0.00000  Uiso   1.00
