data_job_03872
_audit_creation_date              2018-12-19
_audit_creation_method            'Materials Studio'
_symmetry_space_group_name_H-M    'P1'
_symmetry_Int_Tables_number       1
_symmetry_cell_setting            triclinic
loop_
_symmetry_equiv_pos_as_xyz
  x,y,z
_cell_length_a                    21.9542
_cell_length_b                    21.9542
_cell_length_c                    12.0583
_cell_angle_alpha                 90.0000
_cell_angle_beta                  90.0000
_cell_angle_gamma                 120.0000
loop_
_atom_site_label
_atom_site_type_symbol
_atom_site_fract_x
_atom_site_fract_y
_atom_site_fract_z
_atom_site_U_iso_or_equiv
_atom_site_adp_type
_atom_site_occupancy
C1     C     0.78782   0.47470   0.26208   0.00000  Uiso   1.00
C2     C     0.81867   0.45888   0.36402   0.00000  Uiso   1.00
C3     C     0.78964   0.39482   0.41892   0.00000  Uiso   1.00
C4     C     0.82591   0.39103   0.51053   0.00000  Uiso   1.00
C5     C     0.86420   0.35762   0.66347   0.00000  Uiso   1.00
C6     C     0.77923   0.53731   0.29319   0.00000  Uiso   1.00
C7     C     0.71703   0.53920   0.28853   0.00000  Uiso   1.00
C8     C     0.72011   0.60144   0.32050   0.00000  Uiso   1.00
C9     C     0.69718   0.68982   0.36340   0.00000  Uiso   1.00
C10    C     0.84509   0.50134   0.17362   0.00000  Uiso   1.00
C11    C     0.83827   0.47300   0.06840   0.00000  Uiso   1.00
C12    C     0.89678   0.50496   0.99969   0.00000  Uiso   1.00
C13    C     0.97611   0.53748   0.85694   0.00000  Uiso   1.00
C14    C     0.90387   0.58186   0.32713   0.00000  Uiso   1.00
C15    C     0.88171   0.51709   0.39935   0.00000  Uiso   1.00
C16    C     0.91803   0.51339   0.49090   0.00000  Uiso   1.00
C17    C     0.88906   0.44934   0.54593   0.00000  Uiso   1.00
C18    C     0.84226   0.59552   0.32853   0.00000  Uiso   1.00
C19    C     0.84543   0.65777   0.36050   0.00000  Uiso   1.00
C20    C     0.78325   0.65975   0.35590   0.00000  Uiso   1.00
C21    C     0.90813   0.55955   0.20895   0.00000  Uiso   1.00
C22    C     0.96666   0.59156   0.14039   0.00000  Uiso   1.00
C23    C     0.95993   0.56327   0.03509   0.00000  Uiso   1.00
H24    H     0.73875   0.42938   0.23457   0.00000  Uiso   1.00
H25    H     0.74085   0.34979   0.39156   0.00000  Uiso   1.00
H26    H     0.66826   0.49415   0.26117   0.00000  Uiso   1.00
H27    H     0.78948   0.42795   0.04109   0.00000  Uiso   1.00
H28    H     0.77097   0.28723   0.58121   0.00000  Uiso   1.00
H29    H     0.61792   0.59163   0.30625   0.00000  Uiso   1.00
H30    H     0.87352   0.45203   0.84216   0.00000  Uiso   1.00
H31    H     0.95295   0.62718   0.35465   0.00000  Uiso   1.00
H32    H     0.96681   0.55844   0.51822   0.00000  Uiso   1.00
H33    H     0.89422   0.70280   0.38784   0.00000  Uiso   1.00
H34    H     0.01543   0.63661   0.16776   0.00000  Uiso   1.00
H35    H     0.95437   0.45658   0.68402   0.00000  Uiso   1.00
H36    H     0.80131   0.76098   0.40906   0.00000  Uiso   1.00
H37    H     0.05691   0.62138   0.94497   0.00000  Uiso   1.00
O38    O     0.86791   0.32312   0.73808   0.00000  Uiso   1.00
O39    O     0.66711   0.72248   0.37732   0.00000  Uiso   1.00
O40    O     0.00246   0.53934   0.76845   0.00000  Uiso   1.00
N41    N     0.81224   0.33651   0.58295   0.00000  Uiso   1.00
N42    N     0.66914   0.62110   0.32589   0.00000  Uiso   1.00
N43    N     0.90810   0.49061   0.89200   0.00000  Uiso   1.00
N44    N     0.91092   0.42764   0.63827   0.00000  Uiso   1.00
N45    N     0.76782   0.71223   0.38121   0.00000  Uiso   1.00
N46    N     0.00678   0.58173   0.94732   0.00000  Uiso   1.00
C47    C     0.52530   0.31313   0.26208   0.00000  Uiso   1.00
C48    C     0.54112   0.35979   0.36402   0.00000  Uiso   1.00
C49    C     0.60518   0.39481   0.41892   0.00000  Uiso   1.00
C50    C     0.60897   0.43488   0.51053   0.00000  Uiso   1.00
C51    C     0.64238   0.50658   0.66347   0.00000  Uiso   1.00
C52    C     0.46269   0.24192   0.29319   0.00000  Uiso   1.00
C53    C     0.46080   0.17783   0.28853   0.00000  Uiso   1.00
C54    C     0.39856   0.11867   0.32050   0.00000  Uiso   1.00
C55    C     0.31018   0.00736   0.36340   0.00000  Uiso   1.00
C56    C     0.49866   0.34375   0.17362   0.00000  Uiso   1.00
C57    C     0.52700   0.36527   0.06840   0.00000  Uiso   1.00
C58    C     0.49504   0.39183   0.99969   0.00000  Uiso   1.00
C59    C     0.46252   0.43863   0.85694   0.00000  Uiso   1.00
C60    C     0.41814   0.32201   0.32713   0.00000  Uiso   1.00
C61    C     0.48291   0.36462   0.39935   0.00000  Uiso   1.00
C62    C     0.48661   0.40465   0.49090   0.00000  Uiso   1.00
C63    C     0.55066   0.43972   0.54593   0.00000  Uiso   1.00
C64    C     0.40448   0.24674   0.32853   0.00000  Uiso   1.00
C65    C     0.34223   0.18766   0.36050   0.00000  Uiso   1.00
C66    C     0.34025   0.12350   0.35590   0.00000  Uiso   1.00
C67    C     0.44045   0.34858   0.20895   0.00000  Uiso   1.00
C68    C     0.40844   0.37510   0.14039   0.00000  Uiso   1.00
C69    C     0.43673   0.39666   0.03509   0.00000  Uiso   1.00
H70    H     0.57062   0.30936   0.23457   0.00000  Uiso   1.00
H71    H     0.65021   0.39106   0.39156   0.00000  Uiso   1.00
H72    H     0.50585   0.17411   0.26117   0.00000  Uiso   1.00
H73    H     0.57205   0.36152   0.04109   0.00000  Uiso   1.00
H74    H     0.71277   0.48374   0.58121   0.00000  Uiso   1.00
H75    H     0.40837   0.02629   0.30625   0.00000  Uiso   1.00
H76    H     0.54797   0.42148   0.84216   0.00000  Uiso   1.00
H77    H     0.37282   0.32577   0.35465   0.00000  Uiso   1.00
H78    H     0.44156   0.40837   0.51822   0.00000  Uiso   1.00
H79    H     0.29720   0.19142   0.38784   0.00000  Uiso   1.00
H80    H     0.36339   0.37883   0.16776   0.00000  Uiso   1.00
H81    H     0.54342   0.49779   0.68402   0.00000  Uiso   1.00
H82    H     0.23902   0.04033   0.40906   0.00000  Uiso   1.00
H83    H     0.37862   0.43553   0.94497   0.00000  Uiso   1.00
O84    O     0.67688   0.54479   0.73808   0.00000  Uiso   1.00
O85    O     0.27752   0.94463   0.37732   0.00000  Uiso   1.00
O86    O     0.46066   0.46312   0.76845   0.00000  Uiso   1.00
N87    N     0.66349   0.47573   0.58295   0.00000  Uiso   1.00
N88    N     0.37890   0.04803   0.32589   0.00000  Uiso   1.00
N89    N     0.50939   0.41749   0.89200   0.00000  Uiso   1.00
N90    N     0.57236   0.48328   0.63827   0.00000  Uiso   1.00
N91    N     0.28777   0.05559   0.38121   0.00000  Uiso   1.00
N92    N     0.41827   0.42505   0.94732   0.00000  Uiso   1.00
C93    C     0.68687   0.21218   0.26208   0.00000  Uiso   1.00
C94    C     0.64021   0.18133   0.36402   0.00000  Uiso   1.00
C95    C     0.60519   0.21036   0.41892   0.00000  Uiso   1.00
C96    C     0.56512   0.17409   0.51053   0.00000  Uiso   1.00
C97    C     0.49342   0.13580   0.66347   0.00000  Uiso   1.00
C98    C     0.75808   0.22077   0.29319   0.00000  Uiso   1.00
C99    C     0.82217   0.28297   0.28853   0.00000  Uiso   1.00
C100   C     0.88133   0.27989   0.32050   0.00000  Uiso   1.00
C101   C     0.99264   0.30282   0.36340   0.00000  Uiso   1.00
C102   C     0.65625   0.15491   0.17362   0.00000  Uiso   1.00
C103   C     0.63473   0.16173   0.06840   0.00000  Uiso   1.00
C104   C     0.60817   0.10322   0.99969   0.00000  Uiso   1.00
C105   C     0.56137   0.02389   0.85694   0.00000  Uiso   1.00
C106   C     0.67799   0.09613   0.32713   0.00000  Uiso   1.00
C107   C     0.63538   0.11829   0.39935   0.00000  Uiso   1.00
C108   C     0.59535   0.08197   0.49090   0.00000  Uiso   1.00
C109   C     0.56028   0.11094   0.54593   0.00000  Uiso   1.00
C110   C     0.75326   0.15774   0.32853   0.00000  Uiso   1.00
C111   C     0.81234   0.15457   0.36050   0.00000  Uiso   1.00
C112   C     0.87650   0.21675   0.35590   0.00000  Uiso   1.00
C113   C     0.65142   0.09187   0.20895   0.00000  Uiso   1.00
C114   C     0.62490   0.03334   0.14039   0.00000  Uiso   1.00
C115   C     0.60334   0.04007   0.03509   0.00000  Uiso   1.00
H116   H     0.69064   0.26125   0.23457   0.00000  Uiso   1.00
H117   H     0.60894   0.25915   0.39156   0.00000  Uiso   1.00
H118   H     0.82589   0.33174   0.26117   0.00000  Uiso   1.00
H119   H     0.63848   0.21052   0.04109   0.00000  Uiso   1.00
H120   H     0.51626   0.22903   0.58121   0.00000  Uiso   1.00
H121   H     0.97371   0.38208   0.30625   0.00000  Uiso   1.00
H122   H     0.57852   0.12648   0.84216   0.00000  Uiso   1.00
H123   H     0.67423   0.04705   0.35465   0.00000  Uiso   1.00
H124   H     0.59163   0.03319   0.51822   0.00000  Uiso   1.00
H125   H     0.80858   0.10578   0.38784   0.00000  Uiso   1.00
H126   H     0.62117   0.98457   0.16776   0.00000  Uiso   1.00
H127   H     0.50221   0.04563   0.68402   0.00000  Uiso   1.00
H128   H     0.95967   0.19869   0.40906   0.00000  Uiso   1.00
H129   H     0.56447   0.94309   0.94497   0.00000  Uiso   1.00
O130   O     0.45521   0.13209   0.73808   0.00000  Uiso   1.00
O131   O     0.05537   0.33289   0.37732   0.00000  Uiso   1.00
O132   O     0.53688   0.99754   0.76845   0.00000  Uiso   1.00
N133   N     0.52427   0.18776   0.58295   0.00000  Uiso   1.00
N134   N     0.95197   0.33086   0.32589   0.00000  Uiso   1.00
N135   N     0.58251   0.09190   0.89200   0.00000  Uiso   1.00
N136   N     0.51672   0.08908   0.63827   0.00000  Uiso   1.00
N137   N     0.94441   0.23218   0.38121   0.00000  Uiso   1.00
N138   N     0.57495   0.99322   0.94732   0.00000  Uiso   1.00
C139   C     0.21218   0.52530   0.73792   0.00000  Uiso   1.00
C140   C     0.18133   0.54112   0.63598   0.00000  Uiso   1.00
C141   C     0.21036   0.60518   0.58108   0.00000  Uiso   1.00
C142   C     0.17409   0.60897   0.48947   0.00000  Uiso   1.00
C143   C     0.13580   0.64238   0.33653   0.00000  Uiso   1.00
C144   C     0.22077   0.46269   0.70681   0.00000  Uiso   1.00
C145   C     0.28297   0.46080   0.71147   0.00000  Uiso   1.00
C146   C     0.27989   0.39856   0.67950   0.00000  Uiso   1.00
C147   C     0.30282   0.31018   0.63660   0.00000  Uiso   1.00
C148   C     0.15491   0.49866   0.82638   0.00000  Uiso   1.00
C149   C     0.16173   0.52700   0.93160   0.00000  Uiso   1.00
C150   C     0.10322   0.49504   0.00031   0.00000  Uiso   1.00
C151   C     0.02389   0.46252   0.14306   0.00000  Uiso   1.00
C152   C     0.09613   0.41814   0.67287   0.00000  Uiso   1.00
C153   C     0.11829   0.48291   0.60065   0.00000  Uiso   1.00
C154   C     0.08197   0.48661   0.50910   0.00000  Uiso   1.00
C155   C     0.11094   0.55066   0.45407   0.00000  Uiso   1.00
C156   C     0.15774   0.40448   0.67147   0.00000  Uiso   1.00
C157   C     0.15457   0.34223   0.63950   0.00000  Uiso   1.00
C158   C     0.21675   0.34025   0.64410   0.00000  Uiso   1.00
C159   C     0.09187   0.44045   0.79105   0.00000  Uiso   1.00
C160   C     0.03334   0.40844   0.85961   0.00000  Uiso   1.00
C161   C     0.04007   0.43673   0.96491   0.00000  Uiso   1.00
H162   H     0.26125   0.57062   0.76543   0.00000  Uiso   1.00
H163   H     0.25915   0.65021   0.60844   0.00000  Uiso   1.00
H164   H     0.33174   0.50585   0.73883   0.00000  Uiso   1.00
H165   H     0.21052   0.57205   0.95891   0.00000  Uiso   1.00
H166   H     0.22903   0.71277   0.41879   0.00000  Uiso   1.00
H167   H     0.38208   0.40837   0.69375   0.00000  Uiso   1.00
H168   H     0.12648   0.54797   0.15784   0.00000  Uiso   1.00
H169   H     0.04705   0.37282   0.64535   0.00000  Uiso   1.00
H170   H     0.03319   0.44156   0.48178   0.00000  Uiso   1.00
H171   H     0.10578   0.29720   0.61216   0.00000  Uiso   1.00
H172   H     0.98457   0.36339   0.83224   0.00000  Uiso   1.00
H173   H     0.04563   0.54342   0.31598   0.00000  Uiso   1.00
H174   H     0.19869   0.23902   0.59094   0.00000  Uiso   1.00
H175   H     0.94309   0.37862   0.05503   0.00000  Uiso   1.00
O176   O     0.13209   0.67688   0.26192   0.00000  Uiso   1.00
O177   O     0.33289   0.27752   0.62268   0.00000  Uiso   1.00
O178   O     0.99754   0.46066   0.23155   0.00000  Uiso   1.00
N179   N     0.18776   0.66349   0.41705   0.00000  Uiso   1.00
N180   N     0.33086   0.37890   0.67411   0.00000  Uiso   1.00
N181   N     0.09190   0.50939   0.10800   0.00000  Uiso   1.00
N182   N     0.08908   0.57236   0.36173   0.00000  Uiso   1.00
N183   N     0.23218   0.28777   0.61879   0.00000  Uiso   1.00
N184   N     0.99322   0.41827   0.05268   0.00000  Uiso   1.00
C185   C     0.47470   0.68687   0.73792   0.00000  Uiso   1.00
C186   C     0.45888   0.64021   0.63598   0.00000  Uiso   1.00
C187   C     0.39482   0.60519   0.58108   0.00000  Uiso   1.00
C188   C     0.39103   0.56512   0.48947   0.00000  Uiso   1.00
C189   C     0.35762   0.49342   0.33653   0.00000  Uiso   1.00
C190   C     0.53731   0.75808   0.70681   0.00000  Uiso   1.00
C191   C     0.53920   0.82217   0.71147   0.00000  Uiso   1.00
C192   C     0.60144   0.88133   0.67950   0.00000  Uiso   1.00
C193   C     0.68982   0.99264   0.63660   0.00000  Uiso   1.00
C194   C     0.50134   0.65625   0.82638   0.00000  Uiso   1.00
C195   C     0.47300   0.63473   0.93160   0.00000  Uiso   1.00
C196   C     0.50496   0.60817   0.00031   0.00000  Uiso   1.00
C197   C     0.53748   0.56137   0.14306   0.00000  Uiso   1.00
C198   C     0.58186   0.67799   0.67287   0.00000  Uiso   1.00
C199   C     0.51709   0.63538   0.60065   0.00000  Uiso   1.00
C200   C     0.51339   0.59535   0.50910   0.00000  Uiso   1.00
C201   C     0.44934   0.56028   0.45407   0.00000  Uiso   1.00
C202   C     0.59552   0.75326   0.67147   0.00000  Uiso   1.00
C203   C     0.65777   0.81234   0.63950   0.00000  Uiso   1.00
C204   C     0.65975   0.87650   0.64410   0.00000  Uiso   1.00
C205   C     0.55955   0.65142   0.79105   0.00000  Uiso   1.00
C206   C     0.59156   0.62490   0.85961   0.00000  Uiso   1.00
C207   C     0.56327   0.60334   0.96491   0.00000  Uiso   1.00
H208   H     0.42938   0.69064   0.76543   0.00000  Uiso   1.00
H209   H     0.34979   0.60894   0.60844   0.00000  Uiso   1.00
H210   H     0.49415   0.82589   0.73883   0.00000  Uiso   1.00
H211   H     0.42795   0.63848   0.95891   0.00000  Uiso   1.00
H212   H     0.28723   0.51626   0.41879   0.00000  Uiso   1.00
H213   H     0.59163   0.97371   0.69375   0.00000  Uiso   1.00
H214   H     0.45203   0.57852   0.15784   0.00000  Uiso   1.00
H215   H     0.62718   0.67423   0.64535   0.00000  Uiso   1.00
H216   H     0.55844   0.59163   0.48178   0.00000  Uiso   1.00
H217   H     0.70280   0.80858   0.61216   0.00000  Uiso   1.00
H218   H     0.63661   0.62117   0.83224   0.00000  Uiso   1.00
H219   H     0.45658   0.50221   0.31598   0.00000  Uiso   1.00
H220   H     0.76098   0.95967   0.59094   0.00000  Uiso   1.00
H221   H     0.62138   0.56447   0.05503   0.00000  Uiso   1.00
O222   O     0.32312   0.45521   0.26192   0.00000  Uiso   1.00
O223   O     0.72248   0.05537   0.62268   0.00000  Uiso   1.00
O224   O     0.53934   0.53688   0.23155   0.00000  Uiso   1.00
N225   N     0.33651   0.52427   0.41705   0.00000  Uiso   1.00
N226   N     0.62110   0.95197   0.67411   0.00000  Uiso   1.00
N227   N     0.49061   0.58251   0.10800   0.00000  Uiso   1.00
N228   N     0.42764   0.51672   0.36173   0.00000  Uiso   1.00
N229   N     0.71223   0.94441   0.61879   0.00000  Uiso   1.00
N230   N     0.58173   0.57495   0.05268   0.00000  Uiso   1.00
C231   C     0.31313   0.78782   0.73792   0.00000  Uiso   1.00
C232   C     0.35979   0.81867   0.63598   0.00000  Uiso   1.00
C233   C     0.39481   0.78964   0.58108   0.00000  Uiso   1.00
C234   C     0.43488   0.82591   0.48947   0.00000  Uiso   1.00
C235   C     0.50658   0.86420   0.33653   0.00000  Uiso   1.00
C236   C     0.24192   0.77923   0.70681   0.00000  Uiso   1.00
C237   C     0.17783   0.71703   0.71147   0.00000  Uiso   1.00
C238   C     0.11867   0.72011   0.67950   0.00000  Uiso   1.00
C239   C     0.00736   0.69718   0.63660   0.00000  Uiso   1.00
C240   C     0.34375   0.84509   0.82638   0.00000  Uiso   1.00
C241   C     0.36527   0.83827   0.93160   0.00000  Uiso   1.00
C242   C     0.39183   0.89678   0.00031   0.00000  Uiso   1.00
C243   C     0.43863   0.97611   0.14306   0.00000  Uiso   1.00
C244   C     0.32201   0.90387   0.67287   0.00000  Uiso   1.00
C245   C     0.36462   0.88171   0.60065   0.00000  Uiso   1.00
C246   C     0.40465   0.91803   0.50910   0.00000  Uiso   1.00
C247   C     0.43972   0.88906   0.45407   0.00000  Uiso   1.00
C248   C     0.24674   0.84226   0.67147   0.00000  Uiso   1.00
C249   C     0.18766   0.84543   0.63950   0.00000  Uiso   1.00
C250   C     0.12350   0.78325   0.64410   0.00000  Uiso   1.00
C251   C     0.34858   0.90813   0.79105   0.00000  Uiso   1.00
C252   C     0.37510   0.96666   0.85961   0.00000  Uiso   1.00
C253   C     0.39666   0.95993   0.96491   0.00000  Uiso   1.00
H254   H     0.30936   0.73875   0.76543   0.00000  Uiso   1.00
H255   H     0.39106   0.74085   0.60844   0.00000  Uiso   1.00
H256   H     0.17411   0.66826   0.73883   0.00000  Uiso   1.00
H257   H     0.36152   0.78948   0.95891   0.00000  Uiso   1.00
H258   H     0.48374   0.77097   0.41879   0.00000  Uiso   1.00
H259   H     0.02629   0.61792   0.69375   0.00000  Uiso   1.00
H260   H     0.42148   0.87352   0.15784   0.00000  Uiso   1.00
H261   H     0.32577   0.95295   0.64535   0.00000  Uiso   1.00
H262   H     0.40837   0.96681   0.48178   0.00000  Uiso   1.00
H263   H     0.19142   0.89422   0.61216   0.00000  Uiso   1.00
H264   H     0.37883   0.01543   0.83224   0.00000  Uiso   1.00
H265   H     0.49779   0.95437   0.31598   0.00000  Uiso   1.00
H266   H     0.04033   0.80131   0.59094   0.00000  Uiso   1.00
H267   H     0.43553   0.05691   0.05503   0.00000  Uiso   1.00
O268   O     0.54479   0.86791   0.26192   0.00000  Uiso   1.00
O269   O     0.94463   0.66711   0.62268   0.00000  Uiso   1.00
O270   O     0.46312   0.00246   0.23155   0.00000  Uiso   1.00
N271   N     0.47573   0.81224   0.41705   0.00000  Uiso   1.00
N272   N     0.04803   0.66914   0.67411   0.00000  Uiso   1.00
N273   N     0.41749   0.90810   0.10800   0.00000  Uiso   1.00
N274   N     0.48328   0.91092   0.36173   0.00000  Uiso   1.00
N275   N     0.05559   0.76782   0.61879   0.00000  Uiso   1.00
N276   N     0.42505   0.00678   0.05268   0.00000  Uiso   1.00
