data_job_06429
_audit_creation_date              2018-12-19
_audit_creation_method            'Materials Studio'
_symmetry_space_group_name_H-M    'P1'
_symmetry_Int_Tables_number       1
_symmetry_cell_setting            triclinic
loop_
_symmetry_equiv_pos_as_xyz
  x,y,z
_cell_length_a                    14.5200
_cell_length_b                    18.4172
_cell_length_c                    18.5316
_cell_angle_alpha                 113.4090
_cell_angle_beta                  74.5790
_cell_angle_gamma                 75.4251
loop_
_atom_site_label
_atom_site_type_symbol
_atom_site_fract_x
_atom_site_fract_y
_atom_site_fract_z
_atom_site_U_iso_or_equiv
_atom_site_adp_type
_atom_site_occupancy
C1     C     0.23852   0.17226   0.74169   0.00000  Uiso   1.00
C2     C     0.34173   0.17201   0.74669   0.00000  Uiso   1.00
C3     C     0.43983   0.10670   0.68885   0.00000  Uiso   1.00
C4     C     0.52460   0.11868   0.70470   0.00000  Uiso   1.00
C5     C     0.68684   0.10692   0.70167   0.00000  Uiso   1.00
C6     C     0.17065   0.18424   0.82746   0.00000  Uiso   1.00
C7     C     0.12489   0.12922   0.83753   0.00000  Uiso   1.00
C8     C     0.06563   0.15150   0.92137   0.00000  Uiso   1.00
C9     C     0.96218   0.15876   0.04374   0.00000  Uiso   1.00
C10    C     0.18680   0.25469   0.74069   0.00000  Uiso   1.00
C11    C     0.15459   0.25893   0.67782   0.00000  Uiso   1.00
C12    C     0.10890   0.34054   0.68862   0.00000  Uiso   1.00
C13    C     0.03054   0.45720   0.67627   0.00000  Uiso   1.00
C14    C     0.21462   0.30967   0.87270   0.00000  Uiso   1.00
C15    C     0.32875   0.24665   0.81785   0.00000  Uiso   1.00
C16    C     0.41339   0.25873   0.83380   0.00000  Uiso   1.00
C17    C     0.51160   0.19346   0.77599   0.00000  Uiso   1.00
C18    C     0.15766   0.25887   0.89862   0.00000  Uiso   1.00
C19    C     0.09845   0.28125   0.98247   0.00000  Uiso   1.00
C20    C     0.05262   0.22628   0.99266   0.00000  Uiso   1.00
C21    C     0.17382   0.32934   0.81185   0.00000  Uiso   1.00
C22    C     0.12816   0.41096   0.82276   0.00000  Uiso   1.00
C23    C     0.09590   0.41532   0.75991   0.00000  Uiso   1.00
H24    H     0.24862   0.11415   0.68629   0.00000  Uiso   1.00
H25    H     0.44985   0.04894   0.63379   0.00000  Uiso   1.00
H26    H     0.13494   0.07146   0.78245   0.00000  Uiso   1.00
H27    H     0.16465   0.20115   0.62276   0.00000  Uiso   1.00
H28    H     0.66721   0.00955   0.60699   0.00000  Uiso   1.00
H29    H     0.00319   0.05706   0.92043   0.00000  Uiso   1.00
H30    H     0.06583   0.33053   0.58370   0.00000  Uiso   1.00
H31    H     0.20451   0.36779   0.92810   0.00000  Uiso   1.00
H32    H     0.40332   0.31650   0.88887   0.00000  Uiso   1.00
H33    H     0.08841   0.33902   0.03752   0.00000  Uiso   1.00
H34    H     0.11812   0.46871   0.87784   0.00000  Uiso   1.00
H35    H     0.62945   0.22671   0.81402   0.00000  Uiso   1.00
H36    H     0.96542   0.27421   0.12747   0.00000  Uiso   1.00
H37    H     0.02807   0.54769   0.79073   0.00000  Uiso   1.00
O38    O     0.77991   0.07981   0.68035   0.00000  Uiso   1.00
O39    O     0.90872   0.14213   0.09157   0.00000  Uiso   1.00
O40    O     0.99092   0.50093   0.64979   0.00000  Uiso   1.00
N41    N     0.63105   0.06771   0.66109   0.00000  Uiso   1.00
N42    N     0.01024   0.11211   0.95414   0.00000  Uiso   1.00
N43    N     0.06878   0.36779   0.63933   0.00000  Uiso   1.00
N44    N     0.61073   0.18456   0.77249   0.00000  Uiso   1.00
N45    N     0.98992   0.22896   0.06554   0.00000  Uiso   1.00
N46    N     0.04846   0.48464   0.75074   0.00000  Uiso   1.00
C47    C     0.98076   0.25833   0.43057   0.00000  Uiso   1.00
C48    C     0.08893   0.25390   0.42490   0.00000  Uiso   1.00
C49    C     0.12976   0.31231   0.41726   0.00000  Uiso   1.00
C50    C     0.23023   0.29692   0.41301   0.00000  Uiso   1.00
C51    C     0.38946   0.30086   0.40366   0.00000  Uiso   1.00
C52    C     0.99843   0.17227   0.35715   0.00000  Uiso   1.00
C53    C     0.96315   0.16204   0.29256   0.00000  Uiso   1.00
C54    C     0.98743   0.07794   0.23128   0.00000  Uiso   1.00
C55    C     0.00609   0.95514   0.11679   0.00000  Uiso   1.00
C56    C     0.92745   0.25891   0.51379   0.00000  Uiso   1.00
C57    C     0.83247   0.32153   0.58089   0.00000  Uiso   1.00
C58    C     0.79697   0.31036   0.65148   0.00000  Uiso   1.00
C59    C     0.70542   0.32210   0.78019   0.00000  Uiso   1.00
C60    C     0.08658   0.12715   0.43661   0.00000  Uiso   1.00
C61    C     0.14640   0.18265   0.42818   0.00000  Uiso   1.00
C62    C     0.24683   0.16718   0.42394   0.00000  Uiso   1.00
C63    C     0.28780   0.22555   0.41630   0.00000  Uiso   1.00
C64    C     0.05590   0.10102   0.36043   0.00000  Uiso   1.00
C65    C     0.08022   0.01691   0.29924   0.00000  Uiso   1.00
C66    C     0.04500   0.00656   0.23457   0.00000  Uiso   1.00
C67    C     0.98492   0.18767   0.51707   0.00000  Uiso   1.00
C68    C     0.94955   0.17640   0.58757   0.00000  Uiso   1.00
C69    C     0.85455   0.23898   0.65476   0.00000  Uiso   1.00
H70    H     0.93602   0.31379   0.42801   0.00000  Uiso   1.00
H71    H     0.08526   0.36743   0.41472   0.00000  Uiso   1.00
H72    H     0.91867   0.21719   0.29004   0.00000  Uiso   1.00
H73    H     0.78802   0.37665   0.57833   0.00000  Uiso   1.00
H74    H     0.27609   0.39546   0.40139   0.00000  Uiso   1.00
H75    H     0.92479   0.07867   0.13852   0.00000  Uiso   1.00
H76    H     0.64928   0.41493   0.74643   0.00000  Uiso   1.00
H77    H     0.13132   0.07168   0.43916   0.00000  Uiso   1.00
H78    H     0.29129   0.11203   0.42648   0.00000  Uiso   1.00
H79    H     0.12470   0.96179   0.30180   0.00000  Uiso   1.00
H80    H     0.99405   0.12125   0.59008   0.00000  Uiso   1.00
H81    H     0.44331   0.18817   0.41093   0.00000  Uiso   1.00
H82    H     0.09201   0.87137   0.14806   0.00000  Uiso   1.00
H83    H     0.81651   0.20764   0.75597   0.00000  Uiso   1.00
O84    O     0.46142   0.32271   0.39759   0.00000  Uiso   1.00
O85    O     0.00051   0.90710   0.05273   0.00000  Uiso   1.00
O86    O     0.63906   0.34827   0.85028   0.00000  Uiso   1.00
N87    N     0.29348   0.34115   0.40539   0.00000  Uiso   1.00
N88    N     0.96505   0.04496   0.15962   0.00000  Uiso   1.00
N89    N     0.70747   0.35933   0.72795   0.00000  Uiso   1.00
N90    N     0.38346   0.22960   0.41053   0.00000  Uiso   1.00
N91    N     0.05503   0.93342   0.16475   0.00000  Uiso   1.00
N92    N     0.79745   0.24779   0.73309   0.00000  Uiso   1.00
C93    C     0.41060   0.56892   0.82770   0.00000  Uiso   1.00
C94    C     0.51310   0.57519   0.82851   0.00000  Uiso   1.00
C95    C     0.54584   0.58296   0.89407   0.00000  Uiso   1.00
C96    C     0.64214   0.58779   0.88260   0.00000  Uiso   1.00
C97    C     0.79195   0.59800   0.89519   0.00000  Uiso   1.00
C98    C     0.35564   0.64247   0.81530   0.00000  Uiso   1.00
C99    C     0.25600   0.70680   0.86974   0.00000  Uiso   1.00
C100   C     0.21974   0.76826   0.84713   0.00000  Uiso   1.00
C101   C     0.12507   0.88288   0.83918   0.00000  Uiso   1.00
C102   C     0.44035   0.48552   0.74544   0.00000  Uiso   1.00
C103   C     0.41191   0.41788   0.74114   0.00000  Uiso   1.00
C104   C     0.44696   0.34720   0.65972   0.00000  Uiso   1.00
C105   C     0.48381   0.21813   0.54331   0.00000  Uiso   1.00
C106   C     0.52339   0.56367   0.69074   0.00000  Uiso   1.00
C107   C     0.57436   0.57234   0.75412   0.00000  Uiso   1.00
C108   C     0.67063   0.57715   0.74254   0.00000  Uiso   1.00
C109   C     0.70351   0.58493   0.80807   0.00000  Uiso   1.00
C110   C     0.41690   0.63962   0.74091   0.00000  Uiso   1.00
C111   C     0.38078   0.70099   0.71821   0.00000  Uiso   1.00
C112   C     0.28111   0.76540   0.77261   0.00000  Uiso   1.00
C113   C     0.50162   0.48266   0.67105   0.00000  Uiso   1.00
C114   C     0.53670   0.41207   0.58962   0.00000  Uiso   1.00
C115   C     0.50833   0.34434   0.58520   0.00000  Uiso   1.00
H116   H     0.36290   0.57115   0.88561   0.00000  Uiso   1.00
H117   H     0.49841   0.58518   0.95163   0.00000  Uiso   1.00
H118   H     0.20860   0.70899   0.92730   0.00000  Uiso   1.00
H119   H     0.36450   0.42011   0.79873   0.00000  Uiso   1.00
H120   H     0.67564   0.59950   0.99203   0.00000  Uiso   1.00
H121   H     0.06456   0.86055   0.94071   0.00000  Uiso   1.00
H122   H     0.39329   0.25140   0.66959   0.00000  Uiso   1.00
H123   H     0.57108   0.56145   0.63282   0.00000  Uiso   1.00
H124   H     0.71802   0.57494   0.68497   0.00000  Uiso   1.00
H125   H     0.42821   0.69876   0.66064   0.00000  Uiso   1.00
H126   H     0.58411   0.40988   0.53207   0.00000  Uiso   1.00
H127   H     0.85388   0.59120   0.77560   0.00000  Uiso   1.00
H128   H     0.24280   0.85225   0.72428   0.00000  Uiso   1.00
H129   H     0.57154   0.24310   0.45316   0.00000  Uiso   1.00
O130   O     0.85765   0.60443   0.92269   0.00000  Uiso   1.00
O131   O     0.05592   0.94691   0.85535   0.00000  Uiso   1.00
O132   O     0.48722   0.14772   0.49965   0.00000  Uiso   1.00
N133   N     0.69743   0.59568   0.93393   0.00000  Uiso   1.00
N134   N     0.12611   0.83975   0.88595   0.00000  Uiso   1.00
N135   N     0.43343   0.27026   0.63248   0.00000  Uiso   1.00
N136   N     0.79335   0.59121   0.81747   0.00000  Uiso   1.00
N137   N     0.22203   0.83528   0.76949   0.00000  Uiso   1.00
N138   N     0.52934   0.26579   0.51602   0.00000  Uiso   1.00
C139   C     0.48035   0.43043   0.25828   0.00000  Uiso   1.00
C140   C     0.58851   0.42523   0.25337   0.00000  Uiso   1.00
C141   C     0.62880   0.41775   0.31133   0.00000  Uiso   1.00
C142   C     0.72936   0.41394   0.29556   0.00000  Uiso   1.00
C143   C     0.88849   0.40528   0.29875   0.00000  Uiso   1.00
C144   C     0.49812   0.35676   0.17252   0.00000  Uiso   1.00
C145   C     0.46239   0.29171   0.16251   0.00000  Uiso   1.00
C146   C     0.48685   0.23027   0.07867   0.00000  Uiso   1.00
C147   C     0.50558   0.11534   0.95635   0.00000  Uiso   1.00
C148   C     0.42773   0.51377   0.25910   0.00000  Uiso   1.00
C149   C     0.33279   0.58074   0.32187   0.00000  Uiso   1.00
C150   C     0.29797   0.65149   0.31091   0.00000  Uiso   1.00
C151   C     0.20739   0.78036   0.32301   0.00000  Uiso   1.00
C152   C     0.58731   0.43697   0.12720   0.00000  Uiso   1.00
C153   C     0.64661   0.42878   0.18217   0.00000  Uiso   1.00
C154   C     0.74713   0.42499   0.16631   0.00000  Uiso   1.00
C155   C     0.78756   0.41750   0.22423   0.00000  Uiso   1.00
C156   C     0.55622   0.36031   0.10133   0.00000  Uiso   1.00
C157   C     0.58073   0.29895   0.01749   0.00000  Uiso   1.00
C158   C     0.54505   0.23383   0.00735   0.00000  Uiso   1.00
C159   C     0.48582   0.51733   0.18791   0.00000  Uiso   1.00
C160   C     0.45113   0.58799   0.17684   0.00000  Uiso   1.00
C161   C     0.35617   0.65505   0.23958   0.00000  Uiso   1.00
H162   H     0.43512   0.42766   0.31370   0.00000  Uiso   1.00
H163   H     0.58382   0.41499   0.36642   0.00000  Uiso   1.00
H164   H     0.41743   0.28898   0.21762   0.00000  Uiso   1.00
H165   H     0.28785   0.57797   0.37695   0.00000  Uiso   1.00
H166   H     0.77430   0.40248   0.39345   0.00000  Uiso   1.00
H167   H     0.42343   0.13680   0.07970   0.00000  Uiso   1.00
H168   H     0.15019   0.74619   0.41568   0.00000  Uiso   1.00
H169   H     0.63254   0.43974   0.07176   0.00000  Uiso   1.00
H170   H     0.79207   0.42774   0.11121   0.00000  Uiso   1.00
H171   H     0.62568   0.30173   0.96241   0.00000  Uiso   1.00
H172   H     0.49611   0.59072   0.12174   0.00000  Uiso   1.00
H173   H     0.94334   0.41283   0.18631   0.00000  Uiso   1.00
H174   H     0.59246   0.14715   0.87255   0.00000  Uiso   1.00
H175   H     0.31923   0.75654   0.20854   0.00000  Uiso   1.00
O176   O     0.96021   0.39951   0.32017   0.00000  Uiso   1.00
O177   O     0.49987   0.05096   0.90855   0.00000  Uiso   1.00
O178   O     0.14139   0.85046   0.34936   0.00000  Uiso   1.00
N179   N     0.79219   0.40658   0.33929   0.00000  Uiso   1.00
N180   N     0.46416   0.15818   0.04595   0.00000  Uiso   1.00
N181   N     0.20869   0.72790   0.36006   0.00000  Uiso   1.00
N182   N     0.88314   0.41215   0.22783   0.00000  Uiso   1.00
N183   N     0.55511   0.16375   0.93449   0.00000  Uiso   1.00
N184   N     0.29964   0.73346   0.24860   0.00000  Uiso   1.00
C185   C     0.91134   0.82775   0.56928   0.00000  Uiso   1.00
C186   C     0.01380   0.82904   0.57505   0.00000  Uiso   1.00
C187   C     0.04703   0.89504   0.58263   0.00000  Uiso   1.00
C188   C     0.14319   0.88396   0.58700   0.00000  Uiso   1.00
C189   C     0.29302   0.89730   0.59648   0.00000  Uiso   1.00
C190   C     0.85567   0.81504   0.64275   0.00000  Uiso   1.00
C191   C     0.75594   0.86927   0.70725   0.00000  Uiso   1.00
C192   C     0.71898   0.84640   0.76860   0.00000  Uiso   1.00
C193   C     0.62329   0.83797   0.88315   0.00000  Uiso   1.00
C194   C     0.94110   0.74526   0.48611   0.00000  Uiso   1.00
C195   C     0.91318   0.74081   0.41891   0.00000  Uiso   1.00
C196   C     0.94814   0.65918   0.34839   0.00000  Uiso   1.00
C197   C     0.98509   0.54241   0.21973   0.00000  Uiso   1.00
C198   C     0.02304   0.69069   0.56354   0.00000  Uiso   1.00
C199   C     0.07446   0.75459   0.57194   0.00000  Uiso   1.00
C200   C     0.17060   0.74341   0.57628   0.00000  Uiso   1.00
C201   C     0.20397   0.80938   0.58387   0.00000  Uiso   1.00
C202   C     0.91633   0.74060   0.63964   0.00000  Uiso   1.00
C203   C     0.87951   0.71764   0.70090   0.00000  Uiso   1.00
C204   C     0.77976   0.77182   0.76548   0.00000  Uiso   1.00
C205   C     0.00177   0.67081   0.48299   0.00000  Uiso   1.00
C206   C     0.03677   0.58917   0.41256   0.00000  Uiso   1.00
C207   C     0.00892   0.58460   0.34526   0.00000  Uiso   1.00
H208   H     0.86411   0.88571   0.57171   0.00000  Uiso   1.00
H209   H     0.00005   0.95265   0.58505   0.00000  Uiso   1.00
H210   H     0.70901   0.92687   0.70964   0.00000  Uiso   1.00
H211   H     0.86624   0.79843   0.42135   0.00000  Uiso   1.00
H212   H     0.17751   0.99405   0.59850   0.00000  Uiso   1.00
H213   H     0.56381   0.93968   0.86119   0.00000  Uiso   1.00
H214   H     0.89535   0.66884   0.25326   0.00000  Uiso   1.00
H215   H     0.07027   0.63274   0.56112   0.00000  Uiso   1.00
H216   H     0.21753   0.68579   0.57387   0.00000  Uiso   1.00
H217   H     0.92648   0.66002   0.69847   0.00000  Uiso   1.00
H218   H     0.08371   0.53158   0.41017   0.00000  Uiso   1.00
H219   H     0.35402   0.77746   0.58943   0.00000  Uiso   1.00
H220   H     0.74032   0.72310   0.85212   0.00000  Uiso   1.00
H221   H     0.07187   0.45225   0.24419   0.00000  Uiso   1.00
O222   O     0.35890   0.92523   0.60258   0.00000  Uiso   1.00
O223   O     0.55374   0.85390   0.94720   0.00000  Uiso   1.00
O224   O     0.98873   0.49856   0.14962   0.00000  Uiso   1.00
N225   N     0.19885   0.93578   0.59460   0.00000  Uiso   1.00
N226   N     0.62508   0.88497   0.84021   0.00000  Uiso   1.00
N227   N     0.93503   0.63175   0.27185   0.00000  Uiso   1.00
N228   N     0.29383   0.81924   0.58972   0.00000  Uiso   1.00
N229   N     0.72006   0.76842   0.83532   0.00000  Uiso   1.00
N230   N     0.03001   0.51520   0.26697   0.00000  Uiso   1.00
C231   C     0.73819   0.74133   0.17240   0.00000  Uiso   1.00
C232   C     0.84145   0.74683   0.17167   0.00000  Uiso   1.00
C233   C     0.93961   0.68918   0.10621   0.00000  Uiso   1.00
C234   C     0.02442   0.70549   0.11775   0.00000  Uiso   1.00
C235   C     0.18673   0.70320   0.10530   0.00000  Uiso   1.00
C236   C     0.67093   0.82718   0.18463   0.00000  Uiso   1.00
C237   C     0.62571   0.83707   0.13006   0.00000  Uiso   1.00
C238   C     0.56696   0.92103   0.15252   0.00000  Uiso   1.00
C239   C     0.46447   0.04347   0.16021   0.00000  Uiso   1.00
C240   C     0.68577   0.74009   0.25471   0.00000  Uiso   1.00
C241   C     0.65301   0.67678   0.25907   0.00000  Uiso   1.00
C242   C     0.60673   0.68743   0.34053   0.00000  Uiso   1.00
C243   C     0.52729   0.67466   0.45703   0.00000  Uiso   1.00
C244   C     0.71424   0.87282   0.30930   0.00000  Uiso   1.00
C245   C     0.82844   0.81826   0.24604   0.00000  Uiso   1.00
C246   C     0.91312   0.83466   0.25768   0.00000  Uiso   1.00
C247   C     0.01139   0.77704   0.19225   0.00000  Uiso   1.00
C248   C     0.65792   0.89860   0.25899   0.00000  Uiso   1.00
C249   C     0.59921   0.98256   0.28153   0.00000  Uiso   1.00
C250   C     0.55393   0.99258   0.22701   0.00000  Uiso   1.00
C251   C     0.67276   0.81152   0.32907   0.00000  Uiso   1.00
C252   C     0.62652   0.82227   0.41054   0.00000  Uiso   1.00
C253   C     0.59369   0.75899   0.41503   0.00000  Uiso   1.00
H254   H     0.74831   0.68573   0.11450   0.00000  Uiso   1.00
H255   H     0.94965   0.63392   0.04867   0.00000  Uiso   1.00
H256   H     0.63578   0.78179   0.07253   0.00000  Uiso   1.00
H257   H     0.66309   0.62152   0.20151   0.00000  Uiso   1.00
H258   H     0.16713   0.60799   0.00846   0.00000  Uiso   1.00
H259   H     0.50530   0.91979   0.05878   0.00000  Uiso   1.00
H260   H     0.56286   0.58184   0.33077   0.00000  Uiso   1.00
H261   H     0.70411   0.92843   0.36720   0.00000  Uiso   1.00
H262   H     0.90303   0.88994   0.31523   0.00000  Uiso   1.00
H263   H     0.58916   0.03782   0.33909   0.00000  Uiso   1.00
H264   H     0.61646   0.87755   0.46807   0.00000  Uiso   1.00
H265   H     0.12929   0.81579   0.22481   0.00000  Uiso   1.00
H266   H     0.46745   0.12759   0.27513   0.00000  Uiso   1.00
H267   H     0.52502   0.78964   0.54712   0.00000  Uiso   1.00
O268   O     0.27985   0.68221   0.07788   0.00000  Uiso   1.00
O269   O     0.41155   0.09127   0.14390   0.00000  Uiso   1.00
O270   O     0.48708   0.64788   0.50075   0.00000  Uiso   1.00
N271   N     0.13092   0.66217   0.06652   0.00000  Uiso   1.00
N272   N     0.51217   0.95369   0.11355   0.00000  Uiso   1.00
N273   N     0.56596   0.63774   0.36785   0.00000  Uiso   1.00
N274   N     0.11056   0.77399   0.18294   0.00000  Uiso   1.00
N275   N     0.49181   0.06550   0.22997   0.00000  Uiso   1.00
N276   N     0.54560   0.74955   0.48426   0.00000  Uiso   1.00
