data_job_00173
_audit_creation_date              2018-12-19
_audit_creation_method            'Materials Studio'
_symmetry_space_group_name_H-M    'P1'
_symmetry_Int_Tables_number       1
_symmetry_cell_setting            triclinic
loop_
_symmetry_equiv_pos_as_xyz
  x,y,z
_cell_length_a                    12.9676
_cell_length_b                    28.5810
_cell_length_c                    12.5594
_cell_angle_alpha                 90.0000
_cell_angle_beta                  90.0000
_cell_angle_gamma                 90.0000
loop_
_atom_site_label
_atom_site_type_symbol
_atom_site_fract_x
_atom_site_fract_y
_atom_site_fract_z
_atom_site_U_iso_or_equiv
_atom_site_adp_type
_atom_site_occupancy
C1     C     0.38225   0.63383   0.59297   0.00000  Uiso   1.00
C2     C     0.30293   0.61684   0.51208   0.00000  Uiso   1.00
C3     C     0.32491   0.59565   0.41529   0.00000  Uiso   1.00
C4     C     0.24152   0.58265   0.35258   0.00000  Uiso   1.00
C5     C     0.13383   0.55510   0.22194   0.00000  Uiso   1.00
C6     C     0.35915   0.68552   0.61123   0.00000  Uiso   1.00
C7     C     0.42840   0.72208   0.59781   0.00000  Uiso   1.00
C8     C     0.39234   0.76690   0.61858   0.00000  Uiso   1.00
C9     C     0.37196   0.84596   0.64195   0.00000  Uiso   1.00
C10    C     0.35639   0.60913   0.69722   0.00000  Uiso   1.00
C11    C     0.42331   0.58146   0.75613   0.00000  Uiso   1.00
C12    C     0.38492   0.56196   0.84931   0.00000  Uiso   1.00
C13    C     0.36024   0.52242   0.00619   0.00000  Uiso   1.00
C14    C     0.19508   0.64843   0.65373   0.00000  Uiso   1.00
C15    C     0.20127   0.62478   0.54508   0.00000  Uiso   1.00
C16    C     0.11782   0.61181   0.48251   0.00000  Uiso   1.00
C17    C     0.13967   0.59060   0.38564   0.00000  Uiso   1.00
C18    C     0.25750   0.69346   0.64423   0.00000  Uiso   1.00
C19    C     0.22132   0.73823   0.66503   0.00000  Uiso   1.00
C20    C     0.29049   0.77484   0.65164   0.00000  Uiso   1.00
C21    C     0.25472   0.61706   0.73022   0.00000  Uiso   1.00
C22    C     0.21623   0.59761   0.82334   0.00000  Uiso   1.00
C23    C     0.28308   0.56991   0.88237   0.00000  Uiso   1.00
H24    H     0.46140   0.62765   0.56727   0.00000  Uiso   1.00
H25    H     0.40359   0.58952   0.38977   0.00000  Uiso   1.00
H26    H     0.50707   0.71593   0.57228   0.00000  Uiso   1.00
H27    H     0.50198   0.57532   0.73056   0.00000  Uiso   1.00
H28    H     0.29468   0.55076   0.20751   0.00000  Uiso   1.00
H29    H     0.51288   0.81729   0.59238   0.00000  Uiso   1.00
H30    H     0.50214   0.52080   0.92615   0.00000  Uiso   1.00
H31    H     0.11593   0.65461   0.67942   0.00000  Uiso   1.00
H32    H     0.03916   0.61795   0.50807   0.00000  Uiso   1.00
H33    H     0.14264   0.74436   0.69058   0.00000  Uiso   1.00
H34    H     0.13755   0.60376   0.84886   0.00000  Uiso   1.00
H35    H     0.99889   0.57383   0.30352   0.00000  Uiso   1.00
H36    H     0.21710   0.84037   0.68840   0.00000  Uiso   1.00
H37    H     0.20635   0.54388   0.02216   0.00000  Uiso   1.00
O38    O     0.10252   0.53771   0.14076   0.00000  Uiso   1.00
O39    O     0.38880   0.88738   0.64571   0.00000  Uiso   1.00
O40    O     0.37471   0.49841   0.08360   0.00000  Uiso   1.00
N41    N     0.23560   0.56121   0.25363   0.00000  Uiso   1.00
N42    N     0.43960   0.81040   0.61344   0.00000  Uiso   1.00
N43    N     0.42957   0.53323   0.92551   0.00000  Uiso   1.00
N44    N     0.07644   0.57363   0.30530   0.00000  Uiso   1.00
N45    N     0.28044   0.82282   0.66511   0.00000  Uiso   1.00
N46    N     0.27041   0.54564   0.97717   0.00000  Uiso   1.00
C47    C     0.11775   0.36617   0.09297   0.00000  Uiso   1.00
C48    C     0.19707   0.38316   0.01208   0.00000  Uiso   1.00
C49    C     0.17509   0.40435   0.91529   0.00000  Uiso   1.00
C50    C     0.25848   0.41735   0.85258   0.00000  Uiso   1.00
C51    C     0.36617   0.44490   0.72194   0.00000  Uiso   1.00
C52    C     0.14085   0.31448   0.11123   0.00000  Uiso   1.00
C53    C     0.07160   0.27792   0.09781   0.00000  Uiso   1.00
C54    C     0.10766   0.23310   0.11858   0.00000  Uiso   1.00
C55    C     0.12804   0.15404   0.14195   0.00000  Uiso   1.00
C56    C     0.14361   0.39087   0.19722   0.00000  Uiso   1.00
C57    C     0.07669   0.41854   0.25613   0.00000  Uiso   1.00
C58    C     0.11508   0.43804   0.34931   0.00000  Uiso   1.00
C59    C     0.13976   0.47758   0.50619   0.00000  Uiso   1.00
C60    C     0.30492   0.35157   0.15373   0.00000  Uiso   1.00
C61    C     0.29873   0.37522   0.04508   0.00000  Uiso   1.00
C62    C     0.38218   0.38819   0.98251   0.00000  Uiso   1.00
C63    C     0.36033   0.40940   0.88564   0.00000  Uiso   1.00
C64    C     0.24250   0.30654   0.14423   0.00000  Uiso   1.00
C65    C     0.27868   0.26177   0.16503   0.00000  Uiso   1.00
C66    C     0.20951   0.22516   0.15164   0.00000  Uiso   1.00
C67    C     0.24528   0.38294   0.23022   0.00000  Uiso   1.00
C68    C     0.28377   0.40239   0.32334   0.00000  Uiso   1.00
C69    C     0.21692   0.43009   0.38237   0.00000  Uiso   1.00
H70    H     0.03860   0.37235   0.06727   0.00000  Uiso   1.00
H71    H     0.09641   0.41048   0.88977   0.00000  Uiso   1.00
H72    H     0.99293   0.28407   0.07228   0.00000  Uiso   1.00
H73    H     0.99802   0.42468   0.23056   0.00000  Uiso   1.00
H74    H     0.20532   0.44924   0.70751   0.00000  Uiso   1.00
H75    H     0.98712   0.18271   0.09238   0.00000  Uiso   1.00
H76    H     0.99786   0.47920   0.42615   0.00000  Uiso   1.00
H77    H     0.38407   0.34539   0.17942   0.00000  Uiso   1.00
H78    H     0.46084   0.38205   0.00807   0.00000  Uiso   1.00
H79    H     0.35736   0.25564   0.19058   0.00000  Uiso   1.00
H80    H     0.36245   0.39624   0.34886   0.00000  Uiso   1.00
H81    H     0.50111   0.42617   0.80352   0.00000  Uiso   1.00
H82    H     0.28290   0.15963   0.18840   0.00000  Uiso   1.00
H83    H     0.29365   0.45612   0.52216   0.00000  Uiso   1.00
O84    O     0.39748   0.46229   0.64076   0.00000  Uiso   1.00
O85    O     0.11120   0.11262   0.14571   0.00000  Uiso   1.00
O86    O     0.12529   0.50159   0.58360   0.00000  Uiso   1.00
N87    N     0.26440   0.43879   0.75363   0.00000  Uiso   1.00
N88    N     0.06040   0.18960   0.11344   0.00000  Uiso   1.00
N89    N     0.07043   0.46677   0.42551   0.00000  Uiso   1.00
N90    N     0.42356   0.42637   0.80530   0.00000  Uiso   1.00
N91    N     0.21956   0.17718   0.16511   0.00000  Uiso   1.00
N92    N     0.22959   0.45436   0.47717   0.00000  Uiso   1.00
C93    C     0.61775   0.13383   0.90703   0.00000  Uiso   1.00
C94    C     0.69707   0.11684   0.98792   0.00000  Uiso   1.00
C95    C     0.67509   0.09565   0.08471   0.00000  Uiso   1.00
C96    C     0.75848   0.08265   0.14742   0.00000  Uiso   1.00
C97    C     0.86617   0.05510   0.27806   0.00000  Uiso   1.00
C98    C     0.64085   0.18552   0.88877   0.00000  Uiso   1.00
C99    C     0.57160   0.22208   0.90219   0.00000  Uiso   1.00
C100   C     0.60766   0.26690   0.88142   0.00000  Uiso   1.00
C101   C     0.62804   0.34596   0.85805   0.00000  Uiso   1.00
C102   C     0.64361   0.10913   0.80278   0.00000  Uiso   1.00
C103   C     0.57669   0.08146   0.74387   0.00000  Uiso   1.00
C104   C     0.61508   0.06196   0.65069   0.00000  Uiso   1.00
C105   C     0.63976   0.02242   0.49381   0.00000  Uiso   1.00
C106   C     0.80492   0.14843   0.84627   0.00000  Uiso   1.00
C107   C     0.79873   0.12478   0.95492   0.00000  Uiso   1.00
C108   C     0.88218   0.11181   0.01749   0.00000  Uiso   1.00
C109   C     0.86033   0.09060   0.11436   0.00000  Uiso   1.00
C110   C     0.74250   0.19346   0.85577   0.00000  Uiso   1.00
C111   C     0.77868   0.23823   0.83497   0.00000  Uiso   1.00
C112   C     0.70951   0.27484   0.84836   0.00000  Uiso   1.00
C113   C     0.74528   0.11706   0.76978   0.00000  Uiso   1.00
C114   C     0.78377   0.09761   0.67666   0.00000  Uiso   1.00
C115   C     0.71692   0.06991   0.61763   0.00000  Uiso   1.00
H116   H     0.53860   0.12765   0.93273   0.00000  Uiso   1.00
H117   H     0.59641   0.08952   0.11023   0.00000  Uiso   1.00
H118   H     0.49293   0.21593   0.92772   0.00000  Uiso   1.00
H119   H     0.49802   0.07532   0.76944   0.00000  Uiso   1.00
H120   H     0.70532   0.05076   0.29249   0.00000  Uiso   1.00
H121   H     0.48712   0.31729   0.90762   0.00000  Uiso   1.00
H122   H     0.49786   0.02080   0.57385   0.00000  Uiso   1.00
H123   H     0.88407   0.15461   0.82058   0.00000  Uiso   1.00
H124   H     0.96084   0.11795   0.99193   0.00000  Uiso   1.00
H125   H     0.85736   0.24436   0.80942   0.00000  Uiso   1.00
H126   H     0.86245   0.10376   0.65114   0.00000  Uiso   1.00
H127   H     0.00111   0.07383   0.19648   0.00000  Uiso   1.00
H128   H     0.78290   0.34037   0.81160   0.00000  Uiso   1.00
H129   H     0.79365   0.04388   0.47784   0.00000  Uiso   1.00
O130   O     0.89748   0.03771   0.35924   0.00000  Uiso   1.00
O131   O     0.61120   0.38738   0.85429   0.00000  Uiso   1.00
O132   O     0.62529   0.99841   0.41640   0.00000  Uiso   1.00
N133   N     0.76440   0.06121   0.24637   0.00000  Uiso   1.00
N134   N     0.56040   0.31040   0.88656   0.00000  Uiso   1.00
N135   N     0.57043   0.03323   0.57449   0.00000  Uiso   1.00
N136   N     0.92356   0.07363   0.19470   0.00000  Uiso   1.00
N137   N     0.71956   0.32282   0.83489   0.00000  Uiso   1.00
N138   N     0.72959   0.04564   0.52283   0.00000  Uiso   1.00
C139   C     0.88225   0.86617   0.40703   0.00000  Uiso   1.00
C140   C     0.80293   0.88316   0.48792   0.00000  Uiso   1.00
C141   C     0.82491   0.90435   0.58471   0.00000  Uiso   1.00
C142   C     0.74152   0.91735   0.64742   0.00000  Uiso   1.00
C143   C     0.63383   0.94490   0.77806   0.00000  Uiso   1.00
C144   C     0.85915   0.81448   0.38877   0.00000  Uiso   1.00
C145   C     0.92840   0.77792   0.40219   0.00000  Uiso   1.00
C146   C     0.89234   0.73310   0.38142   0.00000  Uiso   1.00
C147   C     0.87196   0.65404   0.35805   0.00000  Uiso   1.00
C148   C     0.85639   0.89087   0.30278   0.00000  Uiso   1.00
C149   C     0.92331   0.91854   0.24387   0.00000  Uiso   1.00
C150   C     0.88492   0.93804   0.15069   0.00000  Uiso   1.00
C151   C     0.86024   0.97758   0.99381   0.00000  Uiso   1.00
C152   C     0.69508   0.85157   0.34627   0.00000  Uiso   1.00
C153   C     0.70127   0.87522   0.45492   0.00000  Uiso   1.00
C154   C     0.61782   0.88819   0.51749   0.00000  Uiso   1.00
C155   C     0.63967   0.90940   0.61436   0.00000  Uiso   1.00
C156   C     0.75750   0.80654   0.35577   0.00000  Uiso   1.00
C157   C     0.72132   0.76177   0.33497   0.00000  Uiso   1.00
C158   C     0.79049   0.72516   0.34836   0.00000  Uiso   1.00
C159   C     0.75472   0.88294   0.26978   0.00000  Uiso   1.00
C160   C     0.71623   0.90239   0.17666   0.00000  Uiso   1.00
C161   C     0.78308   0.93009   0.11763   0.00000  Uiso   1.00
H162   H     0.96140   0.87235   0.43273   0.00000  Uiso   1.00
H163   H     0.90359   0.91048   0.61023   0.00000  Uiso   1.00
H164   H     0.00707   0.78407   0.42772   0.00000  Uiso   1.00
H165   H     0.00198   0.92468   0.26944   0.00000  Uiso   1.00
H166   H     0.79468   0.94924   0.79249   0.00000  Uiso   1.00
H167   H     0.01288   0.68271   0.40762   0.00000  Uiso   1.00
H168   H     0.00214   0.97920   0.07385   0.00000  Uiso   1.00
H169   H     0.61593   0.84539   0.32058   0.00000  Uiso   1.00
H170   H     0.53916   0.88205   0.49193   0.00000  Uiso   1.00
H171   H     0.64264   0.75564   0.30942   0.00000  Uiso   1.00
H172   H     0.63755   0.89624   0.15114   0.00000  Uiso   1.00
H173   H     0.49889   0.92617   0.69648   0.00000  Uiso   1.00
H174   H     0.71710   0.65963   0.31160   0.00000  Uiso   1.00
H175   H     0.70635   0.95612   0.97784   0.00000  Uiso   1.00
O176   O     0.60252   0.96229   0.85924   0.00000  Uiso   1.00
O177   O     0.88880   0.61262   0.35429   0.00000  Uiso   1.00
O178   O     0.87471   0.00159   0.91640   0.00000  Uiso   1.00
N179   N     0.73560   0.93879   0.74637   0.00000  Uiso   1.00
N180   N     0.93960   0.68960   0.38656   0.00000  Uiso   1.00
N181   N     0.92957   0.96677   0.07449   0.00000  Uiso   1.00
N182   N     0.57644   0.92637   0.69470   0.00000  Uiso   1.00
N183   N     0.78044   0.67718   0.33489   0.00000  Uiso   1.00
N184   N     0.77041   0.95436   0.02283   0.00000  Uiso   1.00
C185   C     0.61775   0.36617   0.40703   0.00000  Uiso   1.00
C186   C     0.69707   0.38316   0.48792   0.00000  Uiso   1.00
C187   C     0.67509   0.40435   0.58471   0.00000  Uiso   1.00
C188   C     0.75848   0.41735   0.64742   0.00000  Uiso   1.00
C189   C     0.86617   0.44490   0.77806   0.00000  Uiso   1.00
C190   C     0.64085   0.31448   0.38877   0.00000  Uiso   1.00
C191   C     0.57160   0.27792   0.40219   0.00000  Uiso   1.00
C192   C     0.60766   0.23310   0.38142   0.00000  Uiso   1.00
C193   C     0.62804   0.15404   0.35805   0.00000  Uiso   1.00
C194   C     0.64361   0.39087   0.30278   0.00000  Uiso   1.00
C195   C     0.57669   0.41854   0.24387   0.00000  Uiso   1.00
C196   C     0.61508   0.43804   0.15069   0.00000  Uiso   1.00
C197   C     0.63976   0.47758   0.99381   0.00000  Uiso   1.00
C198   C     0.80492   0.35157   0.34627   0.00000  Uiso   1.00
C199   C     0.79873   0.37522   0.45492   0.00000  Uiso   1.00
C200   C     0.88218   0.38819   0.51749   0.00000  Uiso   1.00
C201   C     0.86033   0.40940   0.61436   0.00000  Uiso   1.00
C202   C     0.74250   0.30654   0.35577   0.00000  Uiso   1.00
C203   C     0.77868   0.26177   0.33497   0.00000  Uiso   1.00
C204   C     0.70951   0.22516   0.34836   0.00000  Uiso   1.00
C205   C     0.74528   0.38294   0.26978   0.00000  Uiso   1.00
C206   C     0.78377   0.40239   0.17666   0.00000  Uiso   1.00
C207   C     0.71692   0.43009   0.11763   0.00000  Uiso   1.00
H208   H     0.53860   0.37235   0.43273   0.00000  Uiso   1.00
H209   H     0.59641   0.41048   0.61023   0.00000  Uiso   1.00
H210   H     0.49293   0.28407   0.42772   0.00000  Uiso   1.00
H211   H     0.49802   0.42468   0.26944   0.00000  Uiso   1.00
H212   H     0.70532   0.44924   0.79249   0.00000  Uiso   1.00
H213   H     0.48712   0.18271   0.40762   0.00000  Uiso   1.00
H214   H     0.49786   0.47920   0.07385   0.00000  Uiso   1.00
H215   H     0.88407   0.34539   0.32058   0.00000  Uiso   1.00
H216   H     0.96084   0.38205   0.49193   0.00000  Uiso   1.00
H217   H     0.85736   0.25564   0.30942   0.00000  Uiso   1.00
H218   H     0.86245   0.39624   0.15114   0.00000  Uiso   1.00
H219   H     0.00111   0.42617   0.69648   0.00000  Uiso   1.00
H220   H     0.78290   0.15963   0.31160   0.00000  Uiso   1.00
H221   H     0.79365   0.45612   0.97784   0.00000  Uiso   1.00
O222   O     0.89748   0.46229   0.85924   0.00000  Uiso   1.00
O223   O     0.61120   0.11262   0.35429   0.00000  Uiso   1.00
O224   O     0.62529   0.50159   0.91640   0.00000  Uiso   1.00
N225   N     0.76440   0.43879   0.74637   0.00000  Uiso   1.00
N226   N     0.56040   0.18960   0.38656   0.00000  Uiso   1.00
N227   N     0.57043   0.46677   0.07449   0.00000  Uiso   1.00
N228   N     0.92356   0.42637   0.69470   0.00000  Uiso   1.00
N229   N     0.71956   0.17718   0.33489   0.00000  Uiso   1.00
N230   N     0.72959   0.45436   0.02283   0.00000  Uiso   1.00
C231   C     0.88225   0.63383   0.90703   0.00000  Uiso   1.00
C232   C     0.80293   0.61684   0.98792   0.00000  Uiso   1.00
C233   C     0.82491   0.59565   0.08471   0.00000  Uiso   1.00
C234   C     0.74152   0.58265   0.14742   0.00000  Uiso   1.00
C235   C     0.63383   0.55510   0.27806   0.00000  Uiso   1.00
C236   C     0.85915   0.68552   0.88877   0.00000  Uiso   1.00
C237   C     0.92840   0.72208   0.90219   0.00000  Uiso   1.00
C238   C     0.89234   0.76690   0.88142   0.00000  Uiso   1.00
C239   C     0.87196   0.84596   0.85805   0.00000  Uiso   1.00
C240   C     0.85639   0.60913   0.80278   0.00000  Uiso   1.00
C241   C     0.92331   0.58146   0.74387   0.00000  Uiso   1.00
C242   C     0.88492   0.56196   0.65069   0.00000  Uiso   1.00
C243   C     0.86024   0.52242   0.49381   0.00000  Uiso   1.00
C244   C     0.69508   0.64843   0.84627   0.00000  Uiso   1.00
C245   C     0.70127   0.62478   0.95492   0.00000  Uiso   1.00
C246   C     0.61782   0.61181   0.01749   0.00000  Uiso   1.00
C247   C     0.63967   0.59060   0.11436   0.00000  Uiso   1.00
C248   C     0.75750   0.69346   0.85577   0.00000  Uiso   1.00
C249   C     0.72132   0.73823   0.83497   0.00000  Uiso   1.00
C250   C     0.79049   0.77484   0.84836   0.00000  Uiso   1.00
C251   C     0.75472   0.61706   0.76978   0.00000  Uiso   1.00
C252   C     0.71623   0.59761   0.67666   0.00000  Uiso   1.00
C253   C     0.78308   0.56991   0.61763   0.00000  Uiso   1.00
H254   H     0.96140   0.62765   0.93273   0.00000  Uiso   1.00
H255   H     0.90359   0.58952   0.11023   0.00000  Uiso   1.00
H256   H     0.00707   0.71593   0.92772   0.00000  Uiso   1.00
H257   H     0.00198   0.57532   0.76944   0.00000  Uiso   1.00
H258   H     0.79468   0.55076   0.29249   0.00000  Uiso   1.00
H259   H     0.01288   0.81729   0.90762   0.00000  Uiso   1.00
H260   H     0.00214   0.52080   0.57385   0.00000  Uiso   1.00
H261   H     0.61593   0.65461   0.82058   0.00000  Uiso   1.00
H262   H     0.53916   0.61795   0.99193   0.00000  Uiso   1.00
H263   H     0.64264   0.74436   0.80942   0.00000  Uiso   1.00
H264   H     0.63755   0.60376   0.65114   0.00000  Uiso   1.00
H265   H     0.49889   0.57383   0.19648   0.00000  Uiso   1.00
H266   H     0.71710   0.84037   0.81160   0.00000  Uiso   1.00
H267   H     0.70635   0.54388   0.47784   0.00000  Uiso   1.00
O268   O     0.60252   0.53771   0.35924   0.00000  Uiso   1.00
O269   O     0.88880   0.88738   0.85429   0.00000  Uiso   1.00
O270   O     0.87471   0.49841   0.41640   0.00000  Uiso   1.00
N271   N     0.73560   0.56121   0.24637   0.00000  Uiso   1.00
N272   N     0.93960   0.81040   0.88656   0.00000  Uiso   1.00
N273   N     0.92957   0.53323   0.57449   0.00000  Uiso   1.00
N274   N     0.57644   0.57363   0.19470   0.00000  Uiso   1.00
N275   N     0.78044   0.82282   0.83489   0.00000  Uiso   1.00
N276   N     0.77041   0.54564   0.52283   0.00000  Uiso   1.00
C277   C     0.38225   0.86617   0.09297   0.00000  Uiso   1.00
C278   C     0.30293   0.88316   0.01208   0.00000  Uiso   1.00
C279   C     0.32491   0.90435   0.91529   0.00000  Uiso   1.00
C280   C     0.24152   0.91735   0.85258   0.00000  Uiso   1.00
C281   C     0.13383   0.94490   0.72194   0.00000  Uiso   1.00
C282   C     0.35915   0.81448   0.11123   0.00000  Uiso   1.00
C283   C     0.42840   0.77792   0.09781   0.00000  Uiso   1.00
C284   C     0.39234   0.73310   0.11858   0.00000  Uiso   1.00
C285   C     0.37196   0.65404   0.14195   0.00000  Uiso   1.00
C286   C     0.35639   0.89087   0.19722   0.00000  Uiso   1.00
C287   C     0.42331   0.91854   0.25613   0.00000  Uiso   1.00
C288   C     0.38492   0.93804   0.34931   0.00000  Uiso   1.00
C289   C     0.36024   0.97758   0.50619   0.00000  Uiso   1.00
C290   C     0.19508   0.85157   0.15373   0.00000  Uiso   1.00
C291   C     0.20127   0.87522   0.04508   0.00000  Uiso   1.00
C292   C     0.11782   0.88819   0.98251   0.00000  Uiso   1.00
C293   C     0.13967   0.90940   0.88564   0.00000  Uiso   1.00
C294   C     0.25750   0.80654   0.14423   0.00000  Uiso   1.00
C295   C     0.22132   0.76177   0.16503   0.00000  Uiso   1.00
C296   C     0.29049   0.72516   0.15164   0.00000  Uiso   1.00
C297   C     0.25472   0.88294   0.23022   0.00000  Uiso   1.00
C298   C     0.21623   0.90239   0.32334   0.00000  Uiso   1.00
C299   C     0.28308   0.93009   0.38237   0.00000  Uiso   1.00
H300   H     0.46140   0.87235   0.06727   0.00000  Uiso   1.00
H301   H     0.40359   0.91048   0.88977   0.00000  Uiso   1.00
H302   H     0.50707   0.78407   0.07228   0.00000  Uiso   1.00
H303   H     0.50198   0.92468   0.23056   0.00000  Uiso   1.00
H304   H     0.29468   0.94924   0.70751   0.00000  Uiso   1.00
H305   H     0.51288   0.68271   0.09238   0.00000  Uiso   1.00
H306   H     0.50214   0.97920   0.42615   0.00000  Uiso   1.00
H307   H     0.11593   0.84539   0.17942   0.00000  Uiso   1.00
H308   H     0.03916   0.88205   0.00807   0.00000  Uiso   1.00
H309   H     0.14264   0.75564   0.19058   0.00000  Uiso   1.00
H310   H     0.13755   0.89624   0.34886   0.00000  Uiso   1.00
H311   H     0.99889   0.92617   0.80352   0.00000  Uiso   1.00
H312   H     0.21710   0.65963   0.18840   0.00000  Uiso   1.00
H313   H     0.20635   0.95612   0.52216   0.00000  Uiso   1.00
O314   O     0.10252   0.96229   0.64076   0.00000  Uiso   1.00
O315   O     0.38880   0.61262   0.14571   0.00000  Uiso   1.00
O316   O     0.37471   0.00159   0.58360   0.00000  Uiso   1.00
N317   N     0.23560   0.93879   0.75363   0.00000  Uiso   1.00
N318   N     0.43960   0.68960   0.11344   0.00000  Uiso   1.00
N319   N     0.42957   0.96677   0.42551   0.00000  Uiso   1.00
N320   N     0.07644   0.92637   0.80530   0.00000  Uiso   1.00
N321   N     0.28044   0.67718   0.16511   0.00000  Uiso   1.00
N322   N     0.27041   0.95436   0.47717   0.00000  Uiso   1.00
C323   C     0.11775   0.13383   0.59297   0.00000  Uiso   1.00
C324   C     0.19707   0.11684   0.51208   0.00000  Uiso   1.00
C325   C     0.17509   0.09565   0.41529   0.00000  Uiso   1.00
C326   C     0.25848   0.08265   0.35258   0.00000  Uiso   1.00
C327   C     0.36617   0.05510   0.22194   0.00000  Uiso   1.00
C328   C     0.14085   0.18552   0.61123   0.00000  Uiso   1.00
C329   C     0.07160   0.22208   0.59781   0.00000  Uiso   1.00
C330   C     0.10766   0.26690   0.61858   0.00000  Uiso   1.00
C331   C     0.12804   0.34596   0.64195   0.00000  Uiso   1.00
C332   C     0.14361   0.10913   0.69722   0.00000  Uiso   1.00
C333   C     0.07669   0.08146   0.75613   0.00000  Uiso   1.00
C334   C     0.11508   0.06196   0.84931   0.00000  Uiso   1.00
C335   C     0.13976   0.02242   0.00619   0.00000  Uiso   1.00
C336   C     0.30492   0.14843   0.65373   0.00000  Uiso   1.00
C337   C     0.29873   0.12478   0.54508   0.00000  Uiso   1.00
C338   C     0.38218   0.11181   0.48251   0.00000  Uiso   1.00
C339   C     0.36033   0.09060   0.38564   0.00000  Uiso   1.00
C340   C     0.24250   0.19346   0.64423   0.00000  Uiso   1.00
C341   C     0.27868   0.23823   0.66503   0.00000  Uiso   1.00
C342   C     0.20951   0.27484   0.65164   0.00000  Uiso   1.00
C343   C     0.24528   0.11706   0.73022   0.00000  Uiso   1.00
C344   C     0.28377   0.09761   0.82334   0.00000  Uiso   1.00
C345   C     0.21692   0.06991   0.88237   0.00000  Uiso   1.00
H346   H     0.03860   0.12765   0.56727   0.00000  Uiso   1.00
H347   H     0.09641   0.08952   0.38977   0.00000  Uiso   1.00
H348   H     0.99293   0.21593   0.57228   0.00000  Uiso   1.00
H349   H     0.99802   0.07532   0.73056   0.00000  Uiso   1.00
H350   H     0.20532   0.05076   0.20751   0.00000  Uiso   1.00
H351   H     0.98712   0.31729   0.59238   0.00000  Uiso   1.00
H352   H     0.99786   0.02080   0.92615   0.00000  Uiso   1.00
H353   H     0.38407   0.15461   0.67942   0.00000  Uiso   1.00
H354   H     0.46084   0.11795   0.50807   0.00000  Uiso   1.00
H355   H     0.35736   0.24436   0.69058   0.00000  Uiso   1.00
H356   H     0.36245   0.10376   0.84886   0.00000  Uiso   1.00
H357   H     0.50111   0.07383   0.30352   0.00000  Uiso   1.00
H358   H     0.28290   0.34037   0.68840   0.00000  Uiso   1.00
H359   H     0.29365   0.04388   0.02216   0.00000  Uiso   1.00
O360   O     0.39748   0.03771   0.14076   0.00000  Uiso   1.00
O361   O     0.11120   0.38738   0.64571   0.00000  Uiso   1.00
O362   O     0.12529   0.99841   0.08360   0.00000  Uiso   1.00
N363   N     0.26440   0.06121   0.25363   0.00000  Uiso   1.00
N364   N     0.06040   0.31040   0.61344   0.00000  Uiso   1.00
N365   N     0.07043   0.03323   0.92551   0.00000  Uiso   1.00
N366   N     0.42356   0.07363   0.30530   0.00000  Uiso   1.00
N367   N     0.21956   0.32282   0.66511   0.00000  Uiso   1.00
N368   N     0.22959   0.04564   0.97717   0.00000  Uiso   1.00
