data_job_06991
_audit_creation_date              2018-12-19
_audit_creation_method            'Materials Studio'
_symmetry_space_group_name_H-M    'P1'
_symmetry_Int_Tables_number       1
_symmetry_cell_setting            triclinic
loop_
_symmetry_equiv_pos_as_xyz
  x,y,z
_cell_length_a                    25.8555
_cell_length_b                    21.3237
_cell_length_c                    25.3483
_cell_angle_alpha                 94.2723
_cell_angle_beta                  104.4190
_cell_angle_gamma                 98.7285
loop_
_atom_site_label
_atom_site_type_symbol
_atom_site_fract_x
_atom_site_fract_y
_atom_site_fract_z
_atom_site_U_iso_or_equiv
_atom_site_adp_type
_atom_site_occupancy
C1     C     0.94263   0.65236   0.97021   0.00000  Uiso   1.00
C2     C     0.91280   0.70412   0.94553   0.00000  Uiso   1.00
C3     C     0.86899   0.69474   0.89943   0.00000  Uiso   1.00
C4     C     0.84739   0.74824   0.88340   0.00000  Uiso   1.00
C5     C     0.79783   0.81939   0.84065   0.00000  Uiso   1.00
C6     C     0.00208   0.67397   0.97196   0.00000  Uiso   1.00
C7     C     0.03333   0.63923   0.94809   0.00000  Uiso   1.00
C8     C     0.08690   0.66735   0.95432   0.00000  Uiso   1.00
C9     C     0.17596   0.69168   0.95264   0.00000  Uiso   1.00
C10    C     0.94012   0.65553   0.02980   0.00000  Uiso   1.00
C11    C     0.91928   0.60528   0.05457   0.00000  Uiso   1.00
C12    C     0.92070   0.61786   0.10949   0.00000  Uiso   1.00
C13    C     0.91354   0.61355   0.19760   0.00000  Uiso   1.00
C14    C     0.98220   0.76406   0.02372   0.00000  Uiso   1.00
C15    C     0.93429   0.76480   0.97459   0.00000  Uiso   1.00
C16    C     0.91276   0.81832   0.95863   0.00000  Uiso   1.00
C17    C     0.86892   0.80902   0.91252   0.00000  Uiso   1.00
C18    C     0.02358   0.73464   0.00102   0.00000  Uiso   1.00
C19    C     0.07711   0.76282   0.00729   0.00000  Uiso   1.00
C20    C     0.10844   0.72813   0.98344   0.00000  Uiso   1.00
C21    C     0.96161   0.71620   0.05886   0.00000  Uiso   1.00
C22    C     0.96306   0.72887   0.11376   0.00000  Uiso   1.00
C23    C     0.94223   0.67864   0.13861   0.00000  Uiso   1.00
H24    H     0.92590   0.60512   0.94758   0.00000  Uiso   1.00
H25    H     0.85237   0.64778   0.87695   0.00000  Uiso   1.00
H26    H     0.01669   0.59228   0.92561   0.00000  Uiso   1.00
H27    H     0.90266   0.55833   0.03206   0.00000  Uiso   1.00
H28    H     0.78034   0.72183   0.81144   0.00000  Uiso   1.00
H29    H     0.12683   0.60480   0.91406   0.00000  Uiso   1.00
H30    H     0.88636   0.53321   0.13854   0.00000  Uiso   1.00
H31    H     0.99893   0.81130   0.04634   0.00000  Uiso   1.00
H32    H     0.92940   0.86527   0.98113   0.00000  Uiso   1.00
H33    H     0.09373   0.80977   0.02979   0.00000  Uiso   1.00
H34    H     0.97969   0.77582   0.13624   0.00000  Uiso   1.00
H35    H     0.84286   0.89835   0.89600   0.00000  Uiso   1.00
H36    H     0.18936   0.78132   0.99862   0.00000  Uiso   1.00
H37    H     0.94889   0.70974   0.22309   0.00000  Uiso   1.00
O38    O     0.76456   0.84188   0.80903   0.00000  Uiso   1.00
O39    O     0.21914   0.68833   0.94367   0.00000  Uiso   1.00
O40    O     0.90366   0.59441   0.23817   0.00000  Uiso   1.00
N41    N     0.80459   0.75597   0.84030   0.00000  Uiso   1.00
N42    N     0.12853   0.64655   0.93624   0.00000  Uiso   1.00
N43    N     0.90373   0.57962   0.14611   0.00000  Uiso   1.00
N44    N     0.83823   0.85095   0.88580   0.00000  Uiso   1.00
N45    N     0.16218   0.74154   0.98173   0.00000  Uiso   1.00
N46    N     0.93738   0.67461   0.19160   0.00000  Uiso   1.00
C47    C     0.18008   0.64701   0.61450   0.00000  Uiso   1.00
C48    C     0.18220   0.63615   0.67373   0.00000  Uiso   1.00
C49    C     0.14580   0.59252   0.69054   0.00000  Uiso   1.00
C50    C     0.15473   0.58986   0.74659   0.00000  Uiso   1.00
C51    C     0.15133   0.56700   0.83280   0.00000  Uiso   1.00
C52    C     0.17845   0.71783   0.61127   0.00000  Uiso   1.00
C53    C     0.13891   0.74287   0.57555   0.00000  Uiso   1.00
C54    C     0.14469   0.80897   0.57902   0.00000  Uiso   1.00
C55    C     0.13550   0.91292   0.56823   0.00000  Uiso   1.00
C56    C     0.23482   0.63699   0.60623   0.00000  Uiso   1.00
C57    C     0.24268   0.59405   0.56627   0.00000  Uiso   1.00
C58    C     0.29592   0.59209   0.56548   0.00000  Uiso   1.00
C59    C     0.37425   0.57052   0.54687   0.00000  Uiso   1.00
C60    C     0.26065   0.71988   0.68414   0.00000  Uiso   1.00
C61    C     0.22596   0.67574   0.71155   0.00000  Uiso   1.00
C62    C     0.23494   0.67314   0.76759   0.00000  Uiso   1.00
C63    C     0.19857   0.62951   0.78448   0.00000  Uiso   1.00
C64    C     0.22221   0.75742   0.64909   0.00000  Uiso   1.00
C65    C     0.22805   0.82349   0.65260   0.00000  Uiso   1.00
C66    C     0.18853   0.84862   0.61691   0.00000  Uiso   1.00
C67    C     0.27858   0.67657   0.64405   0.00000  Uiso   1.00
C68    C     0.33181   0.67468   0.64332   0.00000  Uiso   1.00
C69    C     0.33975   0.63175   0.60338   0.00000  Uiso   1.00
H70    H     0.14602   0.61620   0.58505   0.00000  Uiso   1.00
H71    H     0.11194   0.56190   0.66125   0.00000  Uiso   1.00
H72    H     0.10505   0.71222   0.54628   0.00000  Uiso   1.00
H73    H     0.20880   0.56343   0.53700   0.00000  Uiso   1.00
H74    H     0.09345   0.51917   0.76243   0.00000  Uiso   1.00
H75    H     0.07894   0.83614   0.51999   0.00000  Uiso   1.00
H76    H     0.29772   0.52238   0.50042   0.00000  Uiso   1.00
H77    H     0.29472   0.75070   0.71359   0.00000  Uiso   1.00
H78    H     0.26881   0.70378   0.79685   0.00000  Uiso   1.00
H79    H     0.26192   0.85411   0.68188   0.00000  Uiso   1.00
H80    H     0.36567   0.70532   0.67260   0.00000  Uiso   1.00
H81    H     0.22077   0.63433   0.87248   0.00000  Uiso   1.00
H82    H     0.20626   0.95130   0.63005   0.00000  Uiso   1.00
H83    H     0.42503   0.63754   0.61048   0.00000  Uiso   1.00
O84    O     0.13737   0.54347   0.86991   0.00000  Uiso   1.00
O85    O     0.11833   0.95932   0.55184   0.00000  Uiso   1.00
O86    O     0.40536   0.54768   0.52616   0.00000  Uiso   1.00
N87    N     0.12698   0.55270   0.77690   0.00000  Uiso   1.00
N88    N     0.11340   0.84905   0.55024   0.00000  Uiso   1.00
N89    N     0.31794   0.55572   0.53194   0.00000  Uiso   1.00
N90    N     0.19549   0.61467   0.83612   0.00000  Uiso   1.00
N91    N     0.18191   0.91102   0.60947   0.00000  Uiso   1.00
N92    N     0.38645   0.61769   0.59116   0.00000  Uiso   1.00
C93    C     0.82030   0.97604   0.59182   0.00000  Uiso   1.00
C94    C     0.86954   0.96033   0.57413   0.00000  Uiso   1.00
C95    C     0.87127   0.90475   0.54294   0.00000  Uiso   1.00
C96    C     0.92016   0.89946   0.53112   0.00000  Uiso   1.00
C97    C     0.98971   0.86766   0.50083   0.00000  Uiso   1.00
C98    C     0.83840   0.98961   0.65420   0.00000  Uiso   1.00
C99    C     0.81393   0.95865   0.69032   0.00000  Uiso   1.00
C100   C     0.83660   0.97802   0.74591   0.00000  Uiso   1.00
C101   C     0.85777   0.99170   0.83993   0.00000  Uiso   1.00
C102   C     0.81038   0.03947   0.57076   0.00000  Uiso   1.00
C103   C     0.76234   0.05045   0.53673   0.00000  Uiso   1.00
C104   C     0.76142   0.11181   0.52207   0.00000  Uiso   1.00
C105   C     0.73907   0.20292   0.48653   0.00000  Uiso   1.00
C106   C     0.90407   0.06548   0.62630   0.00000  Uiso   1.00
C107   C     0.91504   0.00891   0.59287   0.00000  Uiso   1.00
C108   C     0.96395   0.00371   0.58109   0.00000  Uiso   1.00
C109   C     0.96575   0.94813   0.54988   0.00000  Uiso   1.00
C110   C     0.88390   0.03819   0.67293   0.00000  Uiso   1.00
C111   C     0.90661   0.05761   0.72848   0.00000  Uiso   1.00
C112   C     0.88219   0.02668   0.76467   0.00000  Uiso   1.00
C113   C     0.85588   0.08805   0.58949   0.00000  Uiso   1.00
C114   C     0.85502   0.14941   0.57488   0.00000  Uiso   1.00
C115   C     0.80700   0.16047   0.54084   0.00000  Uiso   1.00
H116   H     0.78488   0.93822   0.57724   0.00000  Uiso   1.00
H117   H     0.83605   0.86716   0.52845   0.00000  Uiso   1.00
H118   H     0.77872   0.92106   0.67582   0.00000  Uiso   1.00
H119   H     0.72714   0.01284   0.52225   0.00000  Uiso   1.00
H120   H     0.91285   0.80980   0.48264   0.00000  Uiso   1.00
H121   H     0.79195   0.92346   0.79336   0.00000  Uiso   1.00
H122   H     0.68319   0.11701   0.46953   0.00000  Uiso   1.00
H123   H     0.93950   0.10331   0.64089   0.00000  Uiso   1.00
H124   H     0.99915   0.04131   0.59559   0.00000  Uiso   1.00
H125   H     0.94182   0.09520   0.74296   0.00000  Uiso   1.00
H126   H     0.89024   0.18699   0.58939   0.00000  Uiso   1.00
H127   H     0.04523   0.95114   0.53713   0.00000  Uiso   1.00
H128   H     0.92433   0.06480   0.84786   0.00000  Uiso   1.00
H129   H     0.81557   0.25835   0.52402   0.00000  Uiso   1.00
O130   O     0.01550   0.83670   0.47896   0.00000  Uiso   1.00
O131   O     0.85688   0.98583   0.88661   0.00000  Uiso   1.00
O132   O     0.71418   0.23975   0.46175   0.00000  Uiso   1.00
N133   N     0.93582   0.85158   0.50167   0.00000  Uiso   1.00
N134   N     0.82279   0.95784   0.79218   0.00000  Uiso   1.00
N135   N     0.72110   0.13879   0.48944   0.00000  Uiso   1.00
N136   N     0.00705   0.92763   0.53099   0.00000  Uiso   1.00
N137   N     0.89402   0.03389   0.82150   0.00000  Uiso   1.00
N138   N     0.79233   0.21485   0.51876   0.00000  Uiso   1.00
C139   C     0.12352   0.51247   0.29152   0.00000  Uiso   1.00
C140   C     0.09958   0.49763   0.33936   0.00000  Uiso   1.00
C141   C     0.05680   0.44897   0.33782   0.00000  Uiso   1.00
C142   C     0.04090   0.44326   0.38593   0.00000  Uiso   1.00
C143   C     0.99979   0.41389   0.45294   0.00000  Uiso   1.00
C144   C     0.18381   0.50996   0.31143   0.00000  Uiso   1.00
C145   C     0.21185   0.47167   0.28640   0.00000  Uiso   1.00
C146   C     0.26686   0.47634   0.31100   0.00000  Uiso   1.00
C147   C     0.35653   0.46614   0.33462   0.00000  Uiso   1.00
C148   C     0.11995   0.58216   0.28419   0.00000  Uiso   1.00
C149   C     0.09431   0.60458   0.23626   0.00000  Uiso   1.00
C150   C     0.09557   0.67004   0.23792   0.00000  Uiso   1.00
C151   C     0.08609   0.77193   0.21925   0.00000  Uiso   1.00
C152   C     0.17136   0.58885   0.37969   0.00000  Uiso   1.00
C153   C     0.12557   0.53912   0.38725   0.00000  Uiso   1.00
C154   C     0.10973   0.53348   0.43538   0.00000  Uiso   1.00
C155   C     0.06693   0.48482   0.43391   0.00000  Uiso   1.00
C156   C     0.20980   0.55144   0.35932   0.00000  Uiso   1.00
C157   C     0.26478   0.55617   0.38396   0.00000  Uiso   1.00
C158   C     0.29289   0.51790   0.35898   0.00000  Uiso   1.00
C159   C     0.14594   0.62364   0.33209   0.00000  Uiso   1.00
C160   C     0.14724   0.68908   0.33382   0.00000  Uiso   1.00
C161   C     0.12160   0.71159   0.28590   0.00000  Uiso   1.00
H162   H     0.10329   0.48017   0.25423   0.00000  Uiso   1.00
H163   H     0.03670   0.41687   0.30075   0.00000  Uiso   1.00
H164   H     0.19173   0.43957   0.24933   0.00000  Uiso   1.00
H165   H     0.07420   0.57246   0.19920   0.00000  Uiso   1.00
H166   H     0.97434   0.36498   0.37345   0.00000  Uiso   1.00
H167   H     0.30124   0.41286   0.26503   0.00000  Uiso   1.00
H168   H     0.05341   0.69307   0.15931   0.00000  Uiso   1.00
H169   H     0.19160   0.62115   0.41698   0.00000  Uiso   1.00
H170   H     0.12985   0.56559   0.47243   0.00000  Uiso   1.00
H171   H     0.28488   0.58828   0.42102   0.00000  Uiso   1.00
H172   H     0.16735   0.72117   0.37089   0.00000  Uiso   1.00
H173   H     0.04995   0.48568   0.51280   0.00000  Uiso   1.00
H174   H     0.37684   0.53355   0.40437   0.00000  Uiso   1.00
H175   H     0.12902   0.81377   0.29866   0.00000  Uiso   1.00
O176   O     0.96994   0.38622   0.47667   0.00000  Uiso   1.00
O177   O     0.39882   0.44904   0.33442   0.00000  Uiso   1.00
O178   O     0.07368   0.81668   0.19573   0.00000  Uiso   1.00
N179   N     0.00060   0.40102   0.39863   0.00000  Uiso   1.00
N180   N     0.30623   0.44577   0.29727   0.00000  Uiso   1.00
N181   N     0.07455   0.70775   0.19843   0.00000  Uiso   1.00
N182   N     0.04129   0.46597   0.47361   0.00000  Uiso   1.00
N183   N     0.34691   0.51072   0.37225   0.00000  Uiso   1.00
N184   N     0.11523   0.77270   0.27341   0.00000  Uiso   1.00
C185   C     0.43820   0.10624   0.39029   0.00000  Uiso   1.00
C186   C     0.41799   0.16335   0.36449   0.00000  Uiso   1.00
C187   C     0.37054   0.16088   0.32348   0.00000  Uiso   1.00
C188   C     0.35923   0.21843   0.30539   0.00000  Uiso   1.00
C189   C     0.32253   0.29830   0.26197   0.00000  Uiso   1.00
C190   C     0.44572   0.12095   0.45181   0.00000  Uiso   1.00
C191   C     0.42159   0.08282   0.48422   0.00000  Uiso   1.00
C192   C     0.43364   0.10467   0.53963   0.00000  Uiso   1.00
C193   C     0.44002   0.11869   0.63179   0.00000  Uiso   1.00
C194   C     0.49495   0.10747   0.38253   0.00000  Uiso   1.00
C195   C     0.51221   0.05800   0.35670   0.00000  Uiso   1.00
C196   C     0.56571   0.06850   0.35380   0.00000  Uiso   1.00
C197   C     0.64852   0.06160   0.33840   0.00000  Uiso   1.00
C198   C     0.50251   0.21284   0.43108   0.00000  Uiso   1.00
C199   C     0.45292   0.22125   0.38665   0.00000  Uiso   1.00
C200   C     0.44169   0.27882   0.36861   0.00000  Uiso   1.00
C201   C     0.39423   0.27643   0.32758   0.00000  Uiso   1.00
C202   C     0.48065   0.17885   0.47397   0.00000  Uiso   1.00
C203   C     0.49274   0.20076   0.52935   0.00000  Uiso   1.00
C204   C     0.46863   0.16267   0.56183   0.00000  Uiso   1.00
C205   C     0.52988   0.16537   0.40469   0.00000  Uiso   1.00
C206   C     0.58337   0.17595   0.40183   0.00000  Uiso   1.00
C207   C     0.60070   0.12651   0.37600   0.00000  Uiso   1.00
H208   H     0.41100   0.06116   0.37304   0.00000  Uiso   1.00
H209   H     0.34351   0.11606   0.30635   0.00000  Uiso   1.00
H210   H     0.39456   0.03801   0.46706   0.00000  Uiso   1.00
H211   H     0.48517   0.01320   0.33956   0.00000  Uiso   1.00
H212   H     0.28408   0.20246   0.24219   0.00000  Uiso   1.00
H213   H     0.39174   0.03788   0.58106   0.00000  Uiso   1.00
H214   H     0.58280   0.98557   0.31221   0.00000  Uiso   1.00
H215   H     0.52971   0.25792   0.44833   0.00000  Uiso   1.00
H216   H     0.46873   0.32362   0.38576   0.00000  Uiso   1.00
H217   H     0.51978   0.24557   0.54648   0.00000  Uiso   1.00
H218   H     0.61039   0.22076   0.41898   0.00000  Uiso   1.00
H219   H     0.38571   0.37093   0.30665   0.00000  Uiso   1.00
H220   H     0.49337   0.20634   0.64552   0.00000  Uiso   1.00
H221   H     0.68443   0.15403   0.37667   0.00000  Uiso   1.00
O222   O     0.29263   0.32637   0.23191   0.00000  Uiso   1.00
O223   O     0.43388   0.11043   0.67650   0.00000  Uiso   1.00
O224   O     0.68455   0.04180   0.32378   0.00000  Uiso   1.00
N225   N     0.31637   0.23309   0.26593   0.00000  Uiso   1.00
N226   N     0.41702   0.07922   0.58276   0.00000  Uiso   1.00
N227   N     0.59565   0.03031   0.33142   0.00000  Uiso   1.00
N228   N     0.37106   0.32374   0.30062   0.00000  Uiso   1.00
N229   N     0.47171   0.16987   0.61745   0.00000  Uiso   1.00
N230   N     0.65034   0.12096   0.36611   0.00000  Uiso   1.00
C231   C     0.10436   0.16844   0.65693   0.00000  Uiso   1.00
C232   C     0.15658   0.14848   0.64965   0.00000  Uiso   1.00
C233   C     0.15998   0.10059   0.61111   0.00000  Uiso   1.00
C234   C     0.21154   0.08963   0.61104   0.00000  Uiso   1.00
C235   C     0.28556   0.05322   0.59406   0.00000  Uiso   1.00
C236   C     0.11040   0.23975   0.65150   0.00000  Uiso   1.00
C237   C     0.07496   0.26861   0.61451   0.00000  Uiso   1.00
C238   C     0.08765   0.33447   0.61601   0.00000  Uiso   1.00
C239   C     0.08995   0.43978   0.60193   0.00000  Uiso   1.00
C240   C     0.10471   0.16210   0.71654   0.00000  Uiso   1.00
C241   C     0.06447   0.12568   0.73425   0.00000  Uiso   1.00
C242   C     0.07236   0.12619   0.79051   0.00000  Uiso   1.00
C243   C     0.06582   0.11093   0.87741   0.00000  Uiso   1.00
C244   C     0.18989   0.23411   0.72535   0.00000  Uiso   1.00
C245   C     0.20304   0.18415   0.68681   0.00000  Uiso   1.00
C246   C     0.25461   0.17325   0.68681   0.00000  Uiso   1.00
C247   C     0.25808   0.12536   0.64827   0.00000  Uiso   1.00
C248   C     0.15686   0.27542   0.68866   0.00000  Uiso   1.00
C249   C     0.16959   0.34126   0.69022   0.00000  Uiso   1.00
C250   C     0.13419   0.37021   0.65325   0.00000  Uiso   1.00
C251   C     0.15116   0.19777   0.75370   0.00000  Uiso   1.00
C252   C     0.15911   0.19833   0.80995   0.00000  Uiso   1.00
C253   C     0.11890   0.16192   0.82774   0.00000  Uiso   1.00
H254   H     0.06819   0.14067   0.62800   0.00000  Uiso   1.00
H255   H     0.12401   0.07300   0.58235   0.00000  Uiso   1.00
H256   H     0.03901   0.24099   0.58576   0.00000  Uiso   1.00
H257   H     0.02853   0.09809   0.70548   0.00000  Uiso   1.00
H258   H     0.20640   0.01373   0.54812   0.00000  Uiso   1.00
H259   H     0.02715   0.36794   0.55533   0.00000  Uiso   1.00
H260   H     0.00505   0.06660   0.80777   0.00000  Uiso   1.00
H261   H     0.22606   0.26188   0.75429   0.00000  Uiso   1.00
H262   H     0.29055   0.20086   0.71557   0.00000  Uiso   1.00
H263   H     0.20555   0.36885   0.71898   0.00000  Uiso   1.00
H264   H     0.19507   0.22594   0.83870   0.00000  Uiso   1.00
H265   H     0.34157   0.11750   0.65624   0.00000  Uiso   1.00
H266   H     0.16232   0.47171   0.66345   0.00000  Uiso   1.00
H267   H     0.14022   0.17037   0.91589   0.00000  Uiso   1.00
O268   O     0.31356   0.02330   0.57442   0.00000  Uiso   1.00
O269   O     0.07839   0.48801   0.58389   0.00000  Uiso   1.00
O270   O     0.04939   0.09265   0.91508   0.00000  Uiso   1.00
N271   N     0.22936   0.04651   0.57889   0.00000  Uiso   1.00
N272   N     0.06178   0.37768   0.58562   0.00000  Uiso   1.00
N273   N     0.04110   0.09596   0.82163   0.00000  Uiso   1.00
N274   N     0.30209   0.10235   0.63707   0.00000  Uiso   1.00
N275   N     0.13451   0.43352   0.64380   0.00000  Uiso   1.00
N276   N     0.11384   0.15180   0.87981   0.00000  Uiso   1.00
C277   C     0.05737   0.34764   0.02979   0.00000  Uiso   1.00
C278   C     0.08720   0.29588   0.05447   0.00000  Uiso   1.00
C279   C     0.13101   0.30526   0.10057   0.00000  Uiso   1.00
C280   C     0.15261   0.25176   0.11660   0.00000  Uiso   1.00
C281   C     0.20217   0.18061   0.15935   0.00000  Uiso   1.00
C282   C     0.99792   0.32603   0.02804   0.00000  Uiso   1.00
C283   C     0.96667   0.36077   0.05191   0.00000  Uiso   1.00
C284   C     0.91310   0.33265   0.04568   0.00000  Uiso   1.00
C285   C     0.82404   0.30832   0.04736   0.00000  Uiso   1.00
C286   C     0.05988   0.34447   0.97020   0.00000  Uiso   1.00
C287   C     0.08072   0.39472   0.94543   0.00000  Uiso   1.00
C288   C     0.07930   0.38214   0.89051   0.00000  Uiso   1.00
C289   C     0.08646   0.38645   0.80240   0.00000  Uiso   1.00
C290   C     0.01780   0.23594   0.97628   0.00000  Uiso   1.00
C291   C     0.06571   0.23520   0.02541   0.00000  Uiso   1.00
C292   C     0.08724   0.18168   0.04137   0.00000  Uiso   1.00
C293   C     0.13108   0.19098   0.08748   0.00000  Uiso   1.00
C294   C     0.97642   0.26536   0.99898   0.00000  Uiso   1.00
C295   C     0.92289   0.23718   0.99271   0.00000  Uiso   1.00
C296   C     0.89156   0.27187   0.01656   0.00000  Uiso   1.00
C297   C     0.03839   0.28380   0.94114   0.00000  Uiso   1.00
C298   C     0.03694   0.27113   0.88624   0.00000  Uiso   1.00
C299   C     0.05777   0.32136   0.86139   0.00000  Uiso   1.00
H300   H     0.07410   0.39488   0.05242   0.00000  Uiso   1.00
H301   H     0.14763   0.35222   0.12305   0.00000  Uiso   1.00
H302   H     0.98331   0.40772   0.07439   0.00000  Uiso   1.00
H303   H     0.09734   0.44167   0.96794   0.00000  Uiso   1.00
H304   H     0.21966   0.27817   0.18856   0.00000  Uiso   1.00
H305   H     0.87317   0.39520   0.08594   0.00000  Uiso   1.00
H306   H     0.11364   0.46679   0.86146   0.00000  Uiso   1.00
H307   H     0.00107   0.18870   0.95366   0.00000  Uiso   1.00
H308   H     0.07060   0.13473   0.01887   0.00000  Uiso   1.00
H309   H     0.90627   0.19023   0.97021   0.00000  Uiso   1.00
H310   H     0.02031   0.22418   0.86376   0.00000  Uiso   1.00
H311   H     0.15714   0.10165   0.10400   0.00000  Uiso   1.00
H312   H     0.81064   0.21868   0.00138   0.00000  Uiso   1.00
H313   H     0.05111   0.29026   0.77691   0.00000  Uiso   1.00
O314   O     0.23544   0.15812   0.19097   0.00000  Uiso   1.00
O315   O     0.78086   0.31167   0.05633   0.00000  Uiso   1.00
O316   O     0.09634   0.40559   0.76183   0.00000  Uiso   1.00
N317   N     0.19541   0.24403   0.15970   0.00000  Uiso   1.00
N318   N     0.87147   0.35345   0.06376   0.00000  Uiso   1.00
N319   N     0.09627   0.42038   0.85389   0.00000  Uiso   1.00
N320   N     0.16177   0.14905   0.11420   0.00000  Uiso   1.00
N321   N     0.83782   0.25846   0.01827   0.00000  Uiso   1.00
N322   N     0.06262   0.32539   0.80840   0.00000  Uiso   1.00
C323   C     0.81992   0.35299   0.38550   0.00000  Uiso   1.00
C324   C     0.81780   0.36385   0.32627   0.00000  Uiso   1.00
C325   C     0.85420   0.40748   0.30946   0.00000  Uiso   1.00
C326   C     0.84527   0.41014   0.25341   0.00000  Uiso   1.00
C327   C     0.84867   0.43300   0.16720   0.00000  Uiso   1.00
C328   C     0.82155   0.28217   0.38873   0.00000  Uiso   1.00
C329   C     0.86109   0.25713   0.42445   0.00000  Uiso   1.00
C330   C     0.85531   0.19103   0.42098   0.00000  Uiso   1.00
C331   C     0.86450   0.08708   0.43177   0.00000  Uiso   1.00
C332   C     0.76518   0.36301   0.39377   0.00000  Uiso   1.00
C333   C     0.75732   0.40595   0.43373   0.00000  Uiso   1.00
C334   C     0.70408   0.40791   0.43452   0.00000  Uiso   1.00
C335   C     0.62575   0.42948   0.45313   0.00000  Uiso   1.00
C336   C     0.73935   0.28012   0.31586   0.00000  Uiso   1.00
C337   C     0.77404   0.32426   0.28845   0.00000  Uiso   1.00
C338   C     0.76506   0.32686   0.23241   0.00000  Uiso   1.00
C339   C     0.80143   0.37049   0.21552   0.00000  Uiso   1.00
C340   C     0.77779   0.24258   0.35091   0.00000  Uiso   1.00
C341   C     0.77195   0.17651   0.34740   0.00000  Uiso   1.00
C342   C     0.81147   0.15138   0.38309   0.00000  Uiso   1.00
C343   C     0.72142   0.32343   0.35595   0.00000  Uiso   1.00
C344   C     0.66819   0.32532   0.35668   0.00000  Uiso   1.00
C345   C     0.66025   0.36825   0.39662   0.00000  Uiso   1.00
H346   H     0.85398   0.38380   0.41495   0.00000  Uiso   1.00
H347   H     0.88806   0.43810   0.33875   0.00000  Uiso   1.00
H348   H     0.89495   0.28778   0.45372   0.00000  Uiso   1.00
H349   H     0.79120   0.43657   0.46300   0.00000  Uiso   1.00
H350   H     0.90655   0.48083   0.23757   0.00000  Uiso   1.00
H351   H     0.92106   0.16386   0.48001   0.00000  Uiso   1.00
H352   H     0.70228   0.47762   0.49958   0.00000  Uiso   1.00
H353   H     0.70528   0.24930   0.28641   0.00000  Uiso   1.00
H354   H     0.73119   0.29622   0.20315   0.00000  Uiso   1.00
H355   H     0.73808   0.14589   0.31812   0.00000  Uiso   1.00
H356   H     0.63433   0.29468   0.32740   0.00000  Uiso   1.00
H357   H     0.77923   0.36567   0.12752   0.00000  Uiso   1.00
H358   H     0.79374   0.04870   0.36995   0.00000  Uiso   1.00
H359   H     0.57497   0.36246   0.38952   0.00000  Uiso   1.00
O360   O     0.86263   0.45653   0.13009   0.00000  Uiso   1.00
O361   O     0.88167   0.04068   0.44816   0.00000  Uiso   1.00
O362   O     0.59464   0.45232   0.47384   0.00000  Uiso   1.00
N363   N     0.87302   0.44730   0.22310   0.00000  Uiso   1.00
N364   N     0.88660   0.15095   0.44976   0.00000  Uiso   1.00
N365   N     0.68206   0.44428   0.46806   0.00000  Uiso   1.00
N366   N     0.80451   0.38533   0.16388   0.00000  Uiso   1.00
N367   N     0.81809   0.08898   0.39053   0.00000  Uiso   1.00
N368   N     0.61355   0.38231   0.40884   0.00000  Uiso   1.00
C369   C     0.17970   0.02396   0.40818   0.00000  Uiso   1.00
C370   C     0.13046   0.03967   0.42587   0.00000  Uiso   1.00
C371   C     0.12873   0.09525   0.45706   0.00000  Uiso   1.00
C372   C     0.07984   0.10054   0.46888   0.00000  Uiso   1.00
C373   C     0.01029   0.13234   0.49917   0.00000  Uiso   1.00
C374   C     0.16160   0.01039   0.34580   0.00000  Uiso   1.00
C375   C     0.18607   0.04135   0.30968   0.00000  Uiso   1.00
C376   C     0.16340   0.02198   0.25409   0.00000  Uiso   1.00
C377   C     0.14223   0.00830   0.16007   0.00000  Uiso   1.00
C378   C     0.18962   0.96053   0.42924   0.00000  Uiso   1.00
C379   C     0.23766   0.94955   0.46327   0.00000  Uiso   1.00
C380   C     0.23858   0.88819   0.47793   0.00000  Uiso   1.00
C381   C     0.26093   0.79708   0.51347   0.00000  Uiso   1.00
C382   C     0.09593   0.93452   0.37370   0.00000  Uiso   1.00
C383   C     0.08496   0.99109   0.40713   0.00000  Uiso   1.00
C384   C     0.03605   0.99629   0.41891   0.00000  Uiso   1.00
C385   C     0.03425   0.05187   0.45012   0.00000  Uiso   1.00
C386   C     0.11610   0.96181   0.32707   0.00000  Uiso   1.00
C387   C     0.09339   0.94239   0.27152   0.00000  Uiso   1.00
C388   C     0.11781   0.97332   0.23533   0.00000  Uiso   1.00
C389   C     0.14412   0.91195   0.41051   0.00000  Uiso   1.00
C390   C     0.14498   0.85059   0.42512   0.00000  Uiso   1.00
C391   C     0.19300   0.83953   0.45916   0.00000  Uiso   1.00
H392   H     0.21512   0.06178   0.42276   0.00000  Uiso   1.00
H393   H     0.16395   0.13284   0.47155   0.00000  Uiso   1.00
H394   H     0.22128   0.07894   0.32418   0.00000  Uiso   1.00
H395   H     0.27286   0.98716   0.47775   0.00000  Uiso   1.00
H396   H     0.08715   0.19020   0.51736   0.00000  Uiso   1.00
H397   H     0.20805   0.07654   0.20664   0.00000  Uiso   1.00
H398   H     0.31681   0.88299   0.53047   0.00000  Uiso   1.00
H399   H     0.06050   0.89669   0.35911   0.00000  Uiso   1.00
H400   H     0.00085   0.95869   0.40441   0.00000  Uiso   1.00
H401   H     0.05818   0.90480   0.25704   0.00000  Uiso   1.00
H402   H     0.10976   0.81301   0.41061   0.00000  Uiso   1.00
H403   H     0.95477   0.04886   0.46287   0.00000  Uiso   1.00
H404   H     0.07567   0.93520   0.15214   0.00000  Uiso   1.00
H405   H     0.18443   0.74165   0.47598   0.00000  Uiso   1.00
O406   O     0.98450   0.16330   0.52104   0.00000  Uiso   1.00
O407   O     0.14312   0.01417   0.11339   0.00000  Uiso   1.00
O408   O     0.28582   0.76025   0.53825   0.00000  Uiso   1.00
N409   N     0.06418   0.14842   0.49833   0.00000  Uiso   1.00
N410   N     0.17721   0.04216   0.20782   0.00000  Uiso   1.00
N411   N     0.27890   0.86121   0.51056   0.00000  Uiso   1.00
N412   N     0.99295   0.07237   0.46901   0.00000  Uiso   1.00
N413   N     0.10598   0.96611   0.17850   0.00000  Uiso   1.00
N414   N     0.20767   0.78515   0.48124   0.00000  Uiso   1.00
C415   C     0.87648   0.48753   0.70848   0.00000  Uiso   1.00
C416   C     0.90042   0.50237   0.66064   0.00000  Uiso   1.00
C417   C     0.94320   0.55103   0.66218   0.00000  Uiso   1.00
C418   C     0.95910   0.55674   0.61407   0.00000  Uiso   1.00
C419   C     0.00021   0.58611   0.54706   0.00000  Uiso   1.00
C420   C     0.81619   0.49004   0.68857   0.00000  Uiso   1.00
C421   C     0.78815   0.52833   0.71360   0.00000  Uiso   1.00
C422   C     0.73314   0.52366   0.68900   0.00000  Uiso   1.00
C423   C     0.64347   0.53386   0.66538   0.00000  Uiso   1.00
C424   C     0.88005   0.41784   0.71581   0.00000  Uiso   1.00
C425   C     0.90569   0.39542   0.76374   0.00000  Uiso   1.00
C426   C     0.90443   0.32996   0.76208   0.00000  Uiso   1.00
C427   C     0.91391   0.22807   0.78075   0.00000  Uiso   1.00
C428   C     0.82864   0.41115   0.62031   0.00000  Uiso   1.00
C429   C     0.87443   0.46088   0.61275   0.00000  Uiso   1.00
C430   C     0.89027   0.46652   0.56462   0.00000  Uiso   1.00
C431   C     0.93307   0.51518   0.56609   0.00000  Uiso   1.00
C432   C     0.79020   0.44856   0.64068   0.00000  Uiso   1.00
C433   C     0.73522   0.44383   0.61604   0.00000  Uiso   1.00
C434   C     0.70711   0.48210   0.64102   0.00000  Uiso   1.00
C435   C     0.85406   0.37636   0.66791   0.00000  Uiso   1.00
C436   C     0.85276   0.31092   0.66618   0.00000  Uiso   1.00
C437   C     0.87840   0.28841   0.71410   0.00000  Uiso   1.00
H438   H     0.89671   0.51983   0.74577   0.00000  Uiso   1.00
H439   H     0.96330   0.58313   0.69925   0.00000  Uiso   1.00
H440   H     0.80827   0.56043   0.75067   0.00000  Uiso   1.00
H441   H     0.92580   0.42754   0.80080   0.00000  Uiso   1.00
H442   H     0.02566   0.63502   0.62655   0.00000  Uiso   1.00
H443   H     0.69876   0.58714   0.73497   0.00000  Uiso   1.00
H444   H     0.94659   0.30693   0.84069   0.00000  Uiso   1.00
H445   H     0.80840   0.37885   0.58302   0.00000  Uiso   1.00
H446   H     0.87015   0.43441   0.52757   0.00000  Uiso   1.00
H447   H     0.71512   0.41172   0.57898   0.00000  Uiso   1.00
H448   H     0.83265   0.27883   0.62911   0.00000  Uiso   1.00
H449   H     0.95005   0.51432   0.48720   0.00000  Uiso   1.00
H450   H     0.62316   0.46645   0.59563   0.00000  Uiso   1.00
H451   H     0.87098   0.18623   0.70134   0.00000  Uiso   1.00
O452   O     0.03006   0.61378   0.52333   0.00000  Uiso   1.00
O453   O     0.60118   0.55096   0.66558   0.00000  Uiso   1.00
O454   O     0.92632   0.18332   0.80427   0.00000  Uiso   1.00
N455   N     0.99940   0.59898   0.60137   0.00000  Uiso   1.00
N456   N     0.69377   0.55423   0.70273   0.00000  Uiso   1.00
N457   N     0.92545   0.29225   0.80157   0.00000  Uiso   1.00
N458   N     0.95871   0.53403   0.52639   0.00000  Uiso   1.00
N459   N     0.65309   0.48928   0.62775   0.00000  Uiso   1.00
N460   N     0.88477   0.22730   0.72659   0.00000  Uiso   1.00
C461   C     0.56180   0.89376   0.60971   0.00000  Uiso   1.00
C462   C     0.58201   0.83665   0.63551   0.00000  Uiso   1.00
C463   C     0.62946   0.83912   0.67652   0.00000  Uiso   1.00
C464   C     0.64077   0.78157   0.69461   0.00000  Uiso   1.00
C465   C     0.67747   0.70170   0.73803   0.00000  Uiso   1.00
C466   C     0.55428   0.87905   0.54819   0.00000  Uiso   1.00
C467   C     0.57841   0.91718   0.51578   0.00000  Uiso   1.00
C468   C     0.56636   0.89533   0.46037   0.00000  Uiso   1.00
C469   C     0.55998   0.88131   0.36821   0.00000  Uiso   1.00
C470   C     0.50505   0.89253   0.61747   0.00000  Uiso   1.00
C471   C     0.48779   0.94200   0.64330   0.00000  Uiso   1.00
C472   C     0.43429   0.93150   0.64620   0.00000  Uiso   1.00
C473   C     0.35148   0.93840   0.66160   0.00000  Uiso   1.00
C474   C     0.49749   0.78716   0.56892   0.00000  Uiso   1.00
C475   C     0.54708   0.77875   0.61335   0.00000  Uiso   1.00
C476   C     0.55831   0.72118   0.63139   0.00000  Uiso   1.00
C477   C     0.60577   0.72357   0.67242   0.00000  Uiso   1.00
C478   C     0.51935   0.82115   0.52603   0.00000  Uiso   1.00
C479   C     0.50726   0.79924   0.47065   0.00000  Uiso   1.00
C480   C     0.53137   0.83733   0.43817   0.00000  Uiso   1.00
C481   C     0.47012   0.83463   0.59531   0.00000  Uiso   1.00
C482   C     0.41663   0.82405   0.59817   0.00000  Uiso   1.00
C483   C     0.39930   0.87349   0.62400   0.00000  Uiso   1.00
H484   H     0.58900   0.93884   0.62696   0.00000  Uiso   1.00
H485   H     0.65649   0.88394   0.69365   0.00000  Uiso   1.00
H486   H     0.60544   0.96199   0.53294   0.00000  Uiso   1.00
H487   H     0.51483   0.98680   0.66044   0.00000  Uiso   1.00
H488   H     0.71592   0.79754   0.75781   0.00000  Uiso   1.00
H489   H     0.60826   0.96212   0.41894   0.00000  Uiso   1.00
H490   H     0.41720   0.01443   0.68779   0.00000  Uiso   1.00
H491   H     0.47029   0.74208   0.55167   0.00000  Uiso   1.00
H492   H     0.53127   0.67638   0.61424   0.00000  Uiso   1.00
H493   H     0.48022   0.75443   0.45352   0.00000  Uiso   1.00
H494   H     0.38961   0.77924   0.58102   0.00000  Uiso   1.00
H495   H     0.61429   0.62907   0.69335   0.00000  Uiso   1.00
H496   H     0.50663   0.79366   0.35448   0.00000  Uiso   1.00
H497   H     0.31557   0.84597   0.62333   0.00000  Uiso   1.00
O498   O     0.70737   0.67363   0.76809   0.00000  Uiso   1.00
O499   O     0.56612   0.88957   0.32350   0.00000  Uiso   1.00
O500   O     0.31545   0.95820   0.67622   0.00000  Uiso   1.00
N501   N     0.68363   0.76691   0.73407   0.00000  Uiso   1.00
N502   N     0.58298   0.92078   0.41724   0.00000  Uiso   1.00
N503   N     0.40435   0.96969   0.66858   0.00000  Uiso   1.00
N504   N     0.62894   0.67626   0.69938   0.00000  Uiso   1.00
N505   N     0.52829   0.83013   0.38255   0.00000  Uiso   1.00
N506   N     0.34966   0.87904   0.63389   0.00000  Uiso   1.00
C507   C     0.89564   0.83156   0.34307   0.00000  Uiso   1.00
C508   C     0.84342   0.85152   0.35035   0.00000  Uiso   1.00
C509   C     0.84002   0.89941   0.38889   0.00000  Uiso   1.00
C510   C     0.78846   0.91037   0.38896   0.00000  Uiso   1.00
C511   C     0.71444   0.94678   0.40594   0.00000  Uiso   1.00
C512   C     0.88960   0.76025   0.34850   0.00000  Uiso   1.00
C513   C     0.92504   0.73139   0.38549   0.00000  Uiso   1.00
C514   C     0.91235   0.66553   0.38399   0.00000  Uiso   1.00
C515   C     0.91005   0.56022   0.39807   0.00000  Uiso   1.00
C516   C     0.89529   0.83790   0.28346   0.00000  Uiso   1.00
C517   C     0.93553   0.87432   0.26575   0.00000  Uiso   1.00
C518   C     0.92764   0.87381   0.20949   0.00000  Uiso   1.00
C519   C     0.93418   0.88907   0.12259   0.00000  Uiso   1.00
C520   C     0.81011   0.76589   0.27465   0.00000  Uiso   1.00
C521   C     0.79696   0.81585   0.31319   0.00000  Uiso   1.00
C522   C     0.74539   0.82675   0.31319   0.00000  Uiso   1.00
C523   C     0.74192   0.87464   0.35173   0.00000  Uiso   1.00
C524   C     0.84314   0.72458   0.31134   0.00000  Uiso   1.00
C525   C     0.83041   0.65874   0.30978   0.00000  Uiso   1.00
C526   C     0.86581   0.62979   0.34675   0.00000  Uiso   1.00
C527   C     0.84884   0.80223   0.24630   0.00000  Uiso   1.00
C528   C     0.84089   0.80167   0.19005   0.00000  Uiso   1.00
C529   C     0.88110   0.83808   0.17226   0.00000  Uiso   1.00
H530   H     0.93181   0.85933   0.37200   0.00000  Uiso   1.00
H531   H     0.87599   0.92700   0.41765   0.00000  Uiso   1.00
H532   H     0.96099   0.75901   0.41424   0.00000  Uiso   1.00
H533   H     0.97147   0.90191   0.29452   0.00000  Uiso   1.00
H534   H     0.79360   0.98627   0.45188   0.00000  Uiso   1.00
H535   H     0.97285   0.63206   0.44467   0.00000  Uiso   1.00
H536   H     0.99495   0.93340   0.19223   0.00000  Uiso   1.00
H537   H     0.77394   0.73812   0.24571   0.00000  Uiso   1.00
H538   H     0.70945   0.79914   0.28443   0.00000  Uiso   1.00
H539   H     0.79445   0.63115   0.28102   0.00000  Uiso   1.00
H540   H     0.80493   0.77406   0.16130   0.00000  Uiso   1.00
H541   H     0.65843   0.88250   0.34376   0.00000  Uiso   1.00
H542   H     0.83768   0.52829   0.33655   0.00000  Uiso   1.00
H543   H     0.85978   0.82963   0.08411   0.00000  Uiso   1.00
O544   O     0.68644   0.97670   0.42558   0.00000  Uiso   1.00
O545   O     0.92161   0.51199   0.41611   0.00000  Uiso   1.00
O546   O     0.95061   0.90735   0.08492   0.00000  Uiso   1.00
N547   N     0.77064   0.95349   0.42111   0.00000  Uiso   1.00
N548   N     0.93822   0.62232   0.41438   0.00000  Uiso   1.00
N549   N     0.95890   0.90404   0.17837   0.00000  Uiso   1.00
N550   N     0.69791   0.89765   0.36293   0.00000  Uiso   1.00
N551   N     0.86549   0.56648   0.35620   0.00000  Uiso   1.00
N552   N     0.88616   0.84820   0.12019   0.00000  Uiso   1.00
