data_job_02146
_audit_creation_date              2018-12-19
_audit_creation_method            'Materials Studio'
_symmetry_space_group_name_H-M    'P1'
_symmetry_Int_Tables_number       1
_symmetry_cell_setting            triclinic
loop_
_symmetry_equiv_pos_as_xyz
  x,y,z
_cell_length_a                    21.7699
_cell_length_b                    12.2207
_cell_length_c                    33.6732
_cell_angle_alpha                 90.0000
_cell_angle_beta                  144.1321
_cell_angle_gamma                 90.0000
loop_
_atom_site_label
_atom_site_type_symbol
_atom_site_fract_x
_atom_site_fract_y
_atom_site_fract_z
_atom_site_U_iso_or_equiv
_atom_site_adp_type
_atom_site_occupancy
C1     C     0.17218   0.84555   0.82396   0.00000  Uiso   1.00
C2     C     0.20347   0.86742   0.88333   0.00000  Uiso   1.00
C3     C     0.13862   0.85663   0.88221   0.00000  Uiso   1.00
C4     C     0.18204   0.88053   0.94176   0.00000  Uiso   1.00
C5     C     0.21472   0.90946   0.02505   0.00000  Uiso   1.00
C6     C     0.19541   0.95083   0.81346   0.00000  Uiso   1.00
C7     C     0.12377   0.01015   0.75360   0.00000  Uiso   1.00
C8     C     0.16042   0.10426   0.75433   0.00000  Uiso   1.00
C9     C     0.18059   0.26262   0.72913   0.00000  Uiso   1.00
C10    C     0.24954   0.76065   0.84891   0.00000  Uiso   1.00
C11    C     0.22343   0.66008   0.81884   0.00000  Uiso   1.00
C12    C     0.30566   0.59408   0.84941   0.00000  Uiso   1.00
C13    C     0.40988   0.45717   0.87925   0.00000  Uiso   1.00
C14    C     0.36463   0.90719   0.93170   0.00000  Uiso   1.00
C15    C     0.30800   0.90090   0.94185   0.00000  Uiso   1.00
C16    C     0.35154   0.92483   0.00142   0.00000  Uiso   1.00
C17    C     0.28676   0.91407   0.00040   0.00000  Uiso   1.00
C18    C     0.29993   0.98431   0.87198   0.00000  Uiso   1.00
C19    C     0.33670   0.07835   0.87281   0.00000  Uiso   1.00
C20    C     0.26514   0.13780   0.81296   0.00000  Uiso   1.00
C21    C     0.35407   0.79413   0.90744   0.00000  Uiso   1.00
C22    C     0.43635   0.72828   0.93806   0.00000  Uiso   1.00
C23    C     0.41037   0.62762   0.90804   0.00000  Uiso   1.00
H24    H     0.09080   0.81948   0.77839   0.00000  Uiso   1.00
H25    H     0.05772   0.83072   0.83691   0.00000  Uiso   1.00
H26    H     0.04289   0.98421   0.70832   0.00000  Uiso   1.00
H27    H     0.14253   0.63420   0.77356   0.00000  Uiso   1.00
H28    H     0.06714   0.85799   0.92759   0.00000  Uiso   1.00
H29    H     0.03587   0.18161   0.65643   0.00000  Uiso   1.00
H30    H     0.24598   0.44353   0.79400   0.00000  Uiso   1.00
H31    H     0.44601   0.93326   0.97727   0.00000  Uiso   1.00
H32    H     0.43244   0.95074   0.04671   0.00000  Uiso   1.00
H33    H     0.41760   0.10423   0.91811   0.00000  Uiso   1.00
H34    H     0.51724   0.75421   0.98334   0.00000  Uiso   1.00
H35    H     0.37127   0.95540   0.09787   0.00000  Uiso   1.00
H36    H     0.34000   0.27902   0.82671   0.00000  Uiso   1.00
H37    H     0.55011   0.54094   0.96428   0.00000  Uiso   1.00
O38    O     0.20386   0.91618   0.05481   0.00000  Uiso   1.00
O39    O     0.16283   0.34073   0.69906   0.00000  Uiso   1.00
O40    O     0.43849   0.37240   0.87954   0.00000  Uiso   1.00
N41    N     0.14059   0.87850   0.95814   0.00000  Uiso   1.00
N42    N     0.11135   0.18107   0.70463   0.00000  Uiso   1.00
N43    N     0.30778   0.49104   0.83323   0.00000  Uiso   1.00
N44    N     0.30424   0.93091   0.04977   0.00000  Uiso   1.00
N45    N     0.27500   0.23348   0.79625   0.00000  Uiso   1.00
N46    N     0.47143   0.54346   0.92485   0.00000  Uiso   1.00
C47    C     0.67218   0.34555   0.82396   0.00000  Uiso   1.00
C48    C     0.70347   0.36742   0.88333   0.00000  Uiso   1.00
C49    C     0.63862   0.35663   0.88221   0.00000  Uiso   1.00
C50    C     0.68204   0.38053   0.94176   0.00000  Uiso   1.00
C51    C     0.71472   0.40946   0.02505   0.00000  Uiso   1.00
C52    C     0.69541   0.45083   0.81346   0.00000  Uiso   1.00
C53    C     0.62377   0.51015   0.75360   0.00000  Uiso   1.00
C54    C     0.66042   0.60426   0.75433   0.00000  Uiso   1.00
C55    C     0.68059   0.76262   0.72913   0.00000  Uiso   1.00
C56    C     0.74954   0.26065   0.84891   0.00000  Uiso   1.00
C57    C     0.72343   0.16008   0.81884   0.00000  Uiso   1.00
C58    C     0.80566   0.09408   0.84941   0.00000  Uiso   1.00
C59    C     0.90988   0.95717   0.87925   0.00000  Uiso   1.00
C60    C     0.86463   0.40719   0.93170   0.00000  Uiso   1.00
C61    C     0.80800   0.40090   0.94185   0.00000  Uiso   1.00
C62    C     0.85154   0.42483   0.00142   0.00000  Uiso   1.00
C63    C     0.78676   0.41407   0.00040   0.00000  Uiso   1.00
C64    C     0.79993   0.48431   0.87198   0.00000  Uiso   1.00
C65    C     0.83670   0.57835   0.87281   0.00000  Uiso   1.00
C66    C     0.76514   0.63780   0.81296   0.00000  Uiso   1.00
C67    C     0.85407   0.29413   0.90744   0.00000  Uiso   1.00
C68    C     0.93635   0.22828   0.93806   0.00000  Uiso   1.00
C69    C     0.91037   0.12762   0.90804   0.00000  Uiso   1.00
H70    H     0.59080   0.31948   0.77839   0.00000  Uiso   1.00
H71    H     0.55772   0.33072   0.83691   0.00000  Uiso   1.00
H72    H     0.54289   0.48421   0.70832   0.00000  Uiso   1.00
H73    H     0.64253   0.13420   0.77356   0.00000  Uiso   1.00
H74    H     0.56714   0.35799   0.92759   0.00000  Uiso   1.00
H75    H     0.53587   0.68161   0.65643   0.00000  Uiso   1.00
H76    H     0.74598   0.94353   0.79400   0.00000  Uiso   1.00
H77    H     0.94601   0.43326   0.97727   0.00000  Uiso   1.00
H78    H     0.93244   0.45074   0.04671   0.00000  Uiso   1.00
H79    H     0.91760   0.60423   0.91811   0.00000  Uiso   1.00
H80    H     0.01724   0.25421   0.98334   0.00000  Uiso   1.00
H81    H     0.87127   0.45540   0.09787   0.00000  Uiso   1.00
H82    H     0.84000   0.77902   0.82671   0.00000  Uiso   1.00
H83    H     0.05011   0.04094   0.96428   0.00000  Uiso   1.00
O84    O     0.70386   0.41618   0.05481   0.00000  Uiso   1.00
O85    O     0.66283   0.84073   0.69906   0.00000  Uiso   1.00
O86    O     0.93849   0.87240   0.87954   0.00000  Uiso   1.00
N87    N     0.64059   0.37850   0.95814   0.00000  Uiso   1.00
N88    N     0.61135   0.68107   0.70463   0.00000  Uiso   1.00
N89    N     0.80778   0.99104   0.83323   0.00000  Uiso   1.00
N90    N     0.80424   0.43091   0.04977   0.00000  Uiso   1.00
N91    N     0.77500   0.73348   0.79625   0.00000  Uiso   1.00
N92    N     0.97143   0.04346   0.92485   0.00000  Uiso   1.00
C93    C     0.82782   0.84555   0.67604   0.00000  Uiso   1.00
C94    C     0.79653   0.86742   0.61667   0.00000  Uiso   1.00
C95    C     0.86138   0.85663   0.61779   0.00000  Uiso   1.00
C96    C     0.81796   0.88053   0.55824   0.00000  Uiso   1.00
C97    C     0.78528   0.90946   0.47495   0.00000  Uiso   1.00
C98    C     0.80459   0.95083   0.68654   0.00000  Uiso   1.00
C99    C     0.87623   0.01015   0.74640   0.00000  Uiso   1.00
C100   C     0.83958   0.10426   0.74567   0.00000  Uiso   1.00
C101   C     0.81941   0.26262   0.77087   0.00000  Uiso   1.00
C102   C     0.75046   0.76065   0.65109   0.00000  Uiso   1.00
C103   C     0.77657   0.66008   0.68116   0.00000  Uiso   1.00
C104   C     0.69434   0.59408   0.65059   0.00000  Uiso   1.00
C105   C     0.59012   0.45717   0.62075   0.00000  Uiso   1.00
C106   C     0.63537   0.90719   0.56830   0.00000  Uiso   1.00
C107   C     0.69200   0.90090   0.55815   0.00000  Uiso   1.00
C108   C     0.64846   0.92483   0.49858   0.00000  Uiso   1.00
C109   C     0.71324   0.91407   0.49960   0.00000  Uiso   1.00
C110   C     0.70007   0.98431   0.62802   0.00000  Uiso   1.00
C111   C     0.66330   0.07835   0.62719   0.00000  Uiso   1.00
C112   C     0.73486   0.13780   0.68704   0.00000  Uiso   1.00
C113   C     0.64593   0.79413   0.59256   0.00000  Uiso   1.00
C114   C     0.56365   0.72828   0.56194   0.00000  Uiso   1.00
C115   C     0.58963   0.62762   0.59196   0.00000  Uiso   1.00
H116   H     0.90920   0.81948   0.72161   0.00000  Uiso   1.00
H117   H     0.94228   0.83072   0.66309   0.00000  Uiso   1.00
H118   H     0.95711   0.98421   0.79168   0.00000  Uiso   1.00
H119   H     0.85747   0.63420   0.72644   0.00000  Uiso   1.00
H120   H     0.93286   0.85799   0.57241   0.00000  Uiso   1.00
H121   H     0.96413   0.18161   0.84357   0.00000  Uiso   1.00
H122   H     0.75402   0.44353   0.70600   0.00000  Uiso   1.00
H123   H     0.55399   0.93326   0.52273   0.00000  Uiso   1.00
H124   H     0.56756   0.95074   0.45329   0.00000  Uiso   1.00
H125   H     0.58240   0.10423   0.58189   0.00000  Uiso   1.00
H126   H     0.48276   0.75421   0.51666   0.00000  Uiso   1.00
H127   H     0.62873   0.95540   0.40213   0.00000  Uiso   1.00
H128   H     0.66000   0.27902   0.67329   0.00000  Uiso   1.00
H129   H     0.44989   0.54094   0.53572   0.00000  Uiso   1.00
O130   O     0.79614   0.91618   0.44519   0.00000  Uiso   1.00
O131   O     0.83717   0.34073   0.80094   0.00000  Uiso   1.00
O132   O     0.56151   0.37240   0.62046   0.00000  Uiso   1.00
N133   N     0.85941   0.87850   0.54186   0.00000  Uiso   1.00
N134   N     0.88865   0.18107   0.79537   0.00000  Uiso   1.00
N135   N     0.69222   0.49104   0.66677   0.00000  Uiso   1.00
N136   N     0.69576   0.93091   0.45023   0.00000  Uiso   1.00
N137   N     0.72500   0.23348   0.70375   0.00000  Uiso   1.00
N138   N     0.52857   0.54346   0.57515   0.00000  Uiso   1.00
C139   C     0.32782   0.34555   0.67604   0.00000  Uiso   1.00
C140   C     0.29653   0.36742   0.61667   0.00000  Uiso   1.00
C141   C     0.36138   0.35663   0.61779   0.00000  Uiso   1.00
C142   C     0.31796   0.38053   0.55824   0.00000  Uiso   1.00
C143   C     0.28528   0.40946   0.47495   0.00000  Uiso   1.00
C144   C     0.30459   0.45083   0.68654   0.00000  Uiso   1.00
C145   C     0.37623   0.51015   0.74640   0.00000  Uiso   1.00
C146   C     0.33958   0.60426   0.74567   0.00000  Uiso   1.00
C147   C     0.31941   0.76262   0.77087   0.00000  Uiso   1.00
C148   C     0.25046   0.26065   0.65109   0.00000  Uiso   1.00
C149   C     0.27657   0.16008   0.68116   0.00000  Uiso   1.00
C150   C     0.19434   0.09408   0.65059   0.00000  Uiso   1.00
C151   C     0.09012   0.95717   0.62075   0.00000  Uiso   1.00
C152   C     0.13537   0.40719   0.56830   0.00000  Uiso   1.00
C153   C     0.19200   0.40090   0.55815   0.00000  Uiso   1.00
C154   C     0.14846   0.42483   0.49858   0.00000  Uiso   1.00
C155   C     0.21324   0.41407   0.49960   0.00000  Uiso   1.00
C156   C     0.20007   0.48431   0.62802   0.00000  Uiso   1.00
C157   C     0.16330   0.57835   0.62719   0.00000  Uiso   1.00
C158   C     0.23486   0.63780   0.68704   0.00000  Uiso   1.00
C159   C     0.14593   0.29413   0.59256   0.00000  Uiso   1.00
C160   C     0.06365   0.22828   0.56194   0.00000  Uiso   1.00
C161   C     0.08963   0.12762   0.59196   0.00000  Uiso   1.00
H162   H     0.40920   0.31948   0.72161   0.00000  Uiso   1.00
H163   H     0.44228   0.33072   0.66309   0.00000  Uiso   1.00
H164   H     0.45711   0.48421   0.79168   0.00000  Uiso   1.00
H165   H     0.35747   0.13420   0.72644   0.00000  Uiso   1.00
H166   H     0.43286   0.35799   0.57241   0.00000  Uiso   1.00
H167   H     0.46413   0.68161   0.84357   0.00000  Uiso   1.00
H168   H     0.25402   0.94353   0.70600   0.00000  Uiso   1.00
H169   H     0.05399   0.43326   0.52273   0.00000  Uiso   1.00
H170   H     0.06756   0.45074   0.45329   0.00000  Uiso   1.00
H171   H     0.08240   0.60423   0.58189   0.00000  Uiso   1.00
H172   H     0.98276   0.25421   0.51666   0.00000  Uiso   1.00
H173   H     0.12873   0.45540   0.40213   0.00000  Uiso   1.00
H174   H     0.16000   0.77902   0.67329   0.00000  Uiso   1.00
H175   H     0.94989   0.04094   0.53572   0.00000  Uiso   1.00
O176   O     0.29614   0.41618   0.44519   0.00000  Uiso   1.00
O177   O     0.33717   0.84073   0.80094   0.00000  Uiso   1.00
O178   O     0.06151   0.87240   0.62046   0.00000  Uiso   1.00
N179   N     0.35941   0.37850   0.54186   0.00000  Uiso   1.00
N180   N     0.38865   0.68107   0.79537   0.00000  Uiso   1.00
N181   N     0.19222   0.99104   0.66677   0.00000  Uiso   1.00
N182   N     0.19576   0.43091   0.45023   0.00000  Uiso   1.00
N183   N     0.22500   0.73348   0.70375   0.00000  Uiso   1.00
N184   N     0.02857   0.04346   0.57515   0.00000  Uiso   1.00
C185   C     0.82782   0.15445   0.17604   0.00000  Uiso   1.00
C186   C     0.79653   0.13258   0.11667   0.00000  Uiso   1.00
C187   C     0.86138   0.14337   0.11779   0.00000  Uiso   1.00
C188   C     0.81796   0.11947   0.05824   0.00000  Uiso   1.00
C189   C     0.78528   0.09054   0.97495   0.00000  Uiso   1.00
C190   C     0.80459   0.04917   0.18654   0.00000  Uiso   1.00
C191   C     0.87623   0.98985   0.24640   0.00000  Uiso   1.00
C192   C     0.83958   0.89574   0.24567   0.00000  Uiso   1.00
C193   C     0.81941   0.73738   0.27087   0.00000  Uiso   1.00
C194   C     0.75046   0.23935   0.15109   0.00000  Uiso   1.00
C195   C     0.77657   0.33992   0.18116   0.00000  Uiso   1.00
C196   C     0.69434   0.40592   0.15059   0.00000  Uiso   1.00
C197   C     0.59012   0.54283   0.12075   0.00000  Uiso   1.00
C198   C     0.63537   0.09281   0.06830   0.00000  Uiso   1.00
C199   C     0.69200   0.09910   0.05815   0.00000  Uiso   1.00
C200   C     0.64846   0.07517   0.99858   0.00000  Uiso   1.00
C201   C     0.71324   0.08593   0.99960   0.00000  Uiso   1.00
C202   C     0.70007   0.01569   0.12802   0.00000  Uiso   1.00
C203   C     0.66330   0.92165   0.12719   0.00000  Uiso   1.00
C204   C     0.73486   0.86220   0.18704   0.00000  Uiso   1.00
C205   C     0.64593   0.20587   0.09256   0.00000  Uiso   1.00
C206   C     0.56365   0.27172   0.06194   0.00000  Uiso   1.00
C207   C     0.58963   0.37238   0.09196   0.00000  Uiso   1.00
H208   H     0.90920   0.18052   0.22161   0.00000  Uiso   1.00
H209   H     0.94228   0.16928   0.16309   0.00000  Uiso   1.00
H210   H     0.95711   0.01579   0.29168   0.00000  Uiso   1.00
H211   H     0.85747   0.36580   0.22644   0.00000  Uiso   1.00
H212   H     0.93286   0.14201   0.07241   0.00000  Uiso   1.00
H213   H     0.96413   0.81839   0.34357   0.00000  Uiso   1.00
H214   H     0.75402   0.55647   0.20600   0.00000  Uiso   1.00
H215   H     0.55399   0.06674   0.02273   0.00000  Uiso   1.00
H216   H     0.56756   0.04926   0.95329   0.00000  Uiso   1.00
H217   H     0.58240   0.89577   0.08189   0.00000  Uiso   1.00
H218   H     0.48276   0.24579   0.01666   0.00000  Uiso   1.00
H219   H     0.62873   0.04460   0.90213   0.00000  Uiso   1.00
H220   H     0.66000   0.72098   0.17329   0.00000  Uiso   1.00
H221   H     0.44989   0.45906   0.03572   0.00000  Uiso   1.00
O222   O     0.79614   0.08382   0.94519   0.00000  Uiso   1.00
O223   O     0.83717   0.65927   0.30094   0.00000  Uiso   1.00
O224   O     0.56151   0.62760   0.12046   0.00000  Uiso   1.00
N225   N     0.85941   0.12150   0.04186   0.00000  Uiso   1.00
N226   N     0.88865   0.81893   0.29537   0.00000  Uiso   1.00
N227   N     0.69222   0.50896   0.16677   0.00000  Uiso   1.00
N228   N     0.69576   0.06909   0.95023   0.00000  Uiso   1.00
N229   N     0.72500   0.76652   0.20375   0.00000  Uiso   1.00
N230   N     0.52857   0.45654   0.07515   0.00000  Uiso   1.00
C231   C     0.32782   0.65445   0.17604   0.00000  Uiso   1.00
C232   C     0.29653   0.63258   0.11667   0.00000  Uiso   1.00
C233   C     0.36138   0.64337   0.11779   0.00000  Uiso   1.00
C234   C     0.31796   0.61947   0.05824   0.00000  Uiso   1.00
C235   C     0.28528   0.59054   0.97495   0.00000  Uiso   1.00
C236   C     0.30459   0.54917   0.18654   0.00000  Uiso   1.00
C237   C     0.37623   0.48985   0.24640   0.00000  Uiso   1.00
C238   C     0.33958   0.39574   0.24567   0.00000  Uiso   1.00
C239   C     0.31941   0.23738   0.27087   0.00000  Uiso   1.00
C240   C     0.25046   0.73935   0.15109   0.00000  Uiso   1.00
C241   C     0.27657   0.83992   0.18116   0.00000  Uiso   1.00
C242   C     0.19434   0.90592   0.15059   0.00000  Uiso   1.00
C243   C     0.09012   0.04283   0.12075   0.00000  Uiso   1.00
C244   C     0.13537   0.59281   0.06830   0.00000  Uiso   1.00
C245   C     0.19200   0.59910   0.05815   0.00000  Uiso   1.00
C246   C     0.14846   0.57517   0.99858   0.00000  Uiso   1.00
C247   C     0.21324   0.58593   0.99960   0.00000  Uiso   1.00
C248   C     0.20007   0.51569   0.12802   0.00000  Uiso   1.00
C249   C     0.16330   0.42165   0.12719   0.00000  Uiso   1.00
C250   C     0.23486   0.36220   0.18704   0.00000  Uiso   1.00
C251   C     0.14593   0.70587   0.09256   0.00000  Uiso   1.00
C252   C     0.06365   0.77172   0.06194   0.00000  Uiso   1.00
C253   C     0.08963   0.87238   0.09196   0.00000  Uiso   1.00
H254   H     0.40920   0.68052   0.22161   0.00000  Uiso   1.00
H255   H     0.44228   0.66928   0.16309   0.00000  Uiso   1.00
H256   H     0.45711   0.51579   0.29168   0.00000  Uiso   1.00
H257   H     0.35747   0.86580   0.22644   0.00000  Uiso   1.00
H258   H     0.43286   0.64201   0.07241   0.00000  Uiso   1.00
H259   H     0.46413   0.31839   0.34357   0.00000  Uiso   1.00
H260   H     0.25402   0.05647   0.20600   0.00000  Uiso   1.00
H261   H     0.05399   0.56674   0.02273   0.00000  Uiso   1.00
H262   H     0.06756   0.54926   0.95329   0.00000  Uiso   1.00
H263   H     0.08240   0.39577   0.08189   0.00000  Uiso   1.00
H264   H     0.98276   0.74579   0.01666   0.00000  Uiso   1.00
H265   H     0.12873   0.54460   0.90213   0.00000  Uiso   1.00
H266   H     0.16000   0.22098   0.17329   0.00000  Uiso   1.00
H267   H     0.94989   0.95906   0.03572   0.00000  Uiso   1.00
O268   O     0.29614   0.58382   0.94519   0.00000  Uiso   1.00
O269   O     0.33717   0.15927   0.30094   0.00000  Uiso   1.00
O270   O     0.06151   0.12760   0.12046   0.00000  Uiso   1.00
N271   N     0.35941   0.62150   0.04186   0.00000  Uiso   1.00
N272   N     0.38865   0.31893   0.29537   0.00000  Uiso   1.00
N273   N     0.19222   0.00896   0.16677   0.00000  Uiso   1.00
N274   N     0.19576   0.56909   0.95023   0.00000  Uiso   1.00
N275   N     0.22500   0.26652   0.20375   0.00000  Uiso   1.00
N276   N     0.02857   0.95654   0.07515   0.00000  Uiso   1.00
C277   C     0.17218   0.15445   0.32396   0.00000  Uiso   1.00
C278   C     0.20347   0.13258   0.38333   0.00000  Uiso   1.00
C279   C     0.13862   0.14337   0.38221   0.00000  Uiso   1.00
C280   C     0.18204   0.11947   0.44176   0.00000  Uiso   1.00
C281   C     0.21472   0.09054   0.52505   0.00000  Uiso   1.00
C282   C     0.19541   0.04917   0.31346   0.00000  Uiso   1.00
C283   C     0.12377   0.98985   0.25360   0.00000  Uiso   1.00
C284   C     0.16042   0.89574   0.25433   0.00000  Uiso   1.00
C285   C     0.18059   0.73738   0.22913   0.00000  Uiso   1.00
C286   C     0.24954   0.23935   0.34891   0.00000  Uiso   1.00
C287   C     0.22343   0.33992   0.31884   0.00000  Uiso   1.00
C288   C     0.30566   0.40592   0.34941   0.00000  Uiso   1.00
C289   C     0.40988   0.54283   0.37925   0.00000  Uiso   1.00
C290   C     0.36463   0.09281   0.43170   0.00000  Uiso   1.00
C291   C     0.30800   0.09910   0.44185   0.00000  Uiso   1.00
C292   C     0.35154   0.07517   0.50142   0.00000  Uiso   1.00
C293   C     0.28676   0.08593   0.50040   0.00000  Uiso   1.00
C294   C     0.29993   0.01569   0.37198   0.00000  Uiso   1.00
C295   C     0.33670   0.92165   0.37281   0.00000  Uiso   1.00
C296   C     0.26514   0.86220   0.31296   0.00000  Uiso   1.00
C297   C     0.35407   0.20587   0.40744   0.00000  Uiso   1.00
C298   C     0.43635   0.27172   0.43806   0.00000  Uiso   1.00
C299   C     0.41037   0.37238   0.40804   0.00000  Uiso   1.00
H300   H     0.09080   0.18052   0.27839   0.00000  Uiso   1.00
H301   H     0.05772   0.16928   0.33691   0.00000  Uiso   1.00
H302   H     0.04289   0.01579   0.20832   0.00000  Uiso   1.00
H303   H     0.14253   0.36580   0.27356   0.00000  Uiso   1.00
H304   H     0.06714   0.14201   0.42759   0.00000  Uiso   1.00
H305   H     0.03587   0.81839   0.15643   0.00000  Uiso   1.00
H306   H     0.24598   0.55647   0.29400   0.00000  Uiso   1.00
H307   H     0.44601   0.06674   0.47727   0.00000  Uiso   1.00
H308   H     0.43244   0.04926   0.54671   0.00000  Uiso   1.00
H309   H     0.41760   0.89577   0.41811   0.00000  Uiso   1.00
H310   H     0.51724   0.24579   0.48334   0.00000  Uiso   1.00
H311   H     0.37127   0.04460   0.59787   0.00000  Uiso   1.00
H312   H     0.34000   0.72098   0.32671   0.00000  Uiso   1.00
H313   H     0.55011   0.45906   0.46428   0.00000  Uiso   1.00
O314   O     0.20386   0.08382   0.55481   0.00000  Uiso   1.00
O315   O     0.16283   0.65927   0.19906   0.00000  Uiso   1.00
O316   O     0.43849   0.62760   0.37954   0.00000  Uiso   1.00
N317   N     0.14059   0.12150   0.45814   0.00000  Uiso   1.00
N318   N     0.11135   0.81893   0.20463   0.00000  Uiso   1.00
N319   N     0.30778   0.50896   0.33323   0.00000  Uiso   1.00
N320   N     0.30424   0.06909   0.54977   0.00000  Uiso   1.00
N321   N     0.27500   0.76652   0.29625   0.00000  Uiso   1.00
N322   N     0.47143   0.45654   0.42485   0.00000  Uiso   1.00
C323   C     0.67218   0.65445   0.32396   0.00000  Uiso   1.00
C324   C     0.70347   0.63258   0.38333   0.00000  Uiso   1.00
C325   C     0.63862   0.64337   0.38221   0.00000  Uiso   1.00
C326   C     0.68204   0.61947   0.44176   0.00000  Uiso   1.00
C327   C     0.71472   0.59054   0.52505   0.00000  Uiso   1.00
C328   C     0.69541   0.54917   0.31346   0.00000  Uiso   1.00
C329   C     0.62377   0.48985   0.25360   0.00000  Uiso   1.00
C330   C     0.66042   0.39574   0.25433   0.00000  Uiso   1.00
C331   C     0.68059   0.23738   0.22913   0.00000  Uiso   1.00
C332   C     0.74954   0.73935   0.34891   0.00000  Uiso   1.00
C333   C     0.72343   0.83992   0.31884   0.00000  Uiso   1.00
C334   C     0.80566   0.90592   0.34941   0.00000  Uiso   1.00
C335   C     0.90988   0.04283   0.37925   0.00000  Uiso   1.00
C336   C     0.86463   0.59281   0.43170   0.00000  Uiso   1.00
C337   C     0.80800   0.59910   0.44185   0.00000  Uiso   1.00
C338   C     0.85154   0.57517   0.50142   0.00000  Uiso   1.00
C339   C     0.78676   0.58593   0.50040   0.00000  Uiso   1.00
C340   C     0.79993   0.51569   0.37198   0.00000  Uiso   1.00
C341   C     0.83670   0.42165   0.37281   0.00000  Uiso   1.00
C342   C     0.76514   0.36220   0.31296   0.00000  Uiso   1.00
C343   C     0.85407   0.70587   0.40744   0.00000  Uiso   1.00
C344   C     0.93635   0.77172   0.43806   0.00000  Uiso   1.00
C345   C     0.91037   0.87238   0.40804   0.00000  Uiso   1.00
H346   H     0.59080   0.68052   0.27839   0.00000  Uiso   1.00
H347   H     0.55772   0.66928   0.33691   0.00000  Uiso   1.00
H348   H     0.54289   0.51579   0.20832   0.00000  Uiso   1.00
H349   H     0.64253   0.86580   0.27356   0.00000  Uiso   1.00
H350   H     0.56714   0.64201   0.42759   0.00000  Uiso   1.00
H351   H     0.53587   0.31839   0.15643   0.00000  Uiso   1.00
H352   H     0.74598   0.05647   0.29400   0.00000  Uiso   1.00
H353   H     0.94601   0.56674   0.47727   0.00000  Uiso   1.00
H354   H     0.93244   0.54926   0.54671   0.00000  Uiso   1.00
H355   H     0.91760   0.39577   0.41811   0.00000  Uiso   1.00
H356   H     0.01724   0.74579   0.48334   0.00000  Uiso   1.00
H357   H     0.87127   0.54460   0.59787   0.00000  Uiso   1.00
H358   H     0.84000   0.22098   0.32671   0.00000  Uiso   1.00
H359   H     0.05011   0.95906   0.46428   0.00000  Uiso   1.00
O360   O     0.70386   0.58382   0.55481   0.00000  Uiso   1.00
O361   O     0.66283   0.15927   0.19906   0.00000  Uiso   1.00
O362   O     0.93849   0.12760   0.37954   0.00000  Uiso   1.00
N363   N     0.64059   0.62150   0.45814   0.00000  Uiso   1.00
N364   N     0.61135   0.31893   0.20463   0.00000  Uiso   1.00
N365   N     0.80778   0.00896   0.33323   0.00000  Uiso   1.00
N366   N     0.80424   0.56909   0.54977   0.00000  Uiso   1.00
N367   N     0.77500   0.26652   0.29625   0.00000  Uiso   1.00
N368   N     0.97143   0.95654   0.42485   0.00000  Uiso   1.00
