data_job_05264
_audit_creation_date              2018-12-19
_audit_creation_method            'Materials Studio'
_symmetry_space_group_name_H-M    'P1'
_symmetry_Int_Tables_number       1
_symmetry_cell_setting            triclinic
loop_
_symmetry_equiv_pos_as_xyz
  x,y,z
_cell_length_a                    16.7525
_cell_length_b                    14.2307
_cell_length_c                    18.8322
_cell_angle_alpha                 90.0000
_cell_angle_beta                  90.0000
_cell_angle_gamma                 90.0000
loop_
_atom_site_label
_atom_site_type_symbol
_atom_site_fract_x
_atom_site_fract_y
_atom_site_fract_z
_atom_site_U_iso_or_equiv
_atom_site_adp_type
_atom_site_occupancy
C1     C     0.86673   0.39045   0.95417   0.00000  Uiso   1.00
C2     C     0.91841   0.31293   0.92237   0.00000  Uiso   1.00
C3     C     0.98321   0.32626   0.87758   0.00000  Uiso   1.00
C4     C     0.02271   0.24628   0.85418   0.00000  Uiso   1.00
C5     C     0.10667   0.13960   0.80162   0.00000  Uiso   1.00
C6     C     0.78125   0.36845   0.93183   0.00000  Uiso   1.00
C7     C     0.73074   0.42845   0.89501   0.00000  Uiso   1.00
C8     C     0.65477   0.39520   0.87959   0.00000  Uiso   1.00
C9     C     0.52577   0.37474   0.84177   0.00000  Uiso   1.00
C10    C     0.86961   0.37640   0.03440   0.00000  Uiso   1.00
C11    C     0.89337   0.44311   0.08383   0.00000  Uiso   1.00
C12    C     0.89177   0.41657   0.15477   0.00000  Uiso   1.00
C13    C     0.89996   0.40846   0.27621   0.00000  Uiso   1.00
C14    C     0.82164   0.22472   0.99225   0.00000  Uiso   1.00
C15    C     0.89391   0.22291   0.94305   0.00000  Uiso   1.00
C16    C     0.93333   0.14289   0.91971   0.00000  Uiso   1.00
C17    C     0.99818   0.15609   0.87490   0.00000  Uiso   1.00
C18    C     0.75676   0.27843   0.95251   0.00000  Uiso   1.00
C19    C     0.68085   0.24508   0.93714   0.00000  Uiso   1.00
C20    C     0.63024   0.30502   0.90030   0.00000  Uiso   1.00
C21    C     0.84512   0.28638   0.05509   0.00000  Uiso   1.00
C22    C     0.84348   0.25974   0.12596   0.00000  Uiso   1.00
C23    C     0.86724   0.32639   0.17549   0.00000  Uiso   1.00
H24    H     0.88579   0.46054   0.93807   0.00000  Uiso   1.00
H25    H     0.00214   0.39594   0.86158   0.00000  Uiso   1.00
H26    H     0.74970   0.49812   0.87902   0.00000  Uiso   1.00
H27    H     0.91231   0.51277   0.06781   0.00000  Uiso   1.00
H28    H     0.12033   0.28461   0.78589   0.00000  Uiso   1.00
H29    H     0.58804   0.50008   0.82267   0.00000  Uiso   1.00
H30    H     0.93093   0.53097   0.22077   0.00000  Uiso   1.00
H31    H     0.80257   0.15463   0.00835   0.00000  Uiso   1.00
H32    H     0.91436   0.07323   0.93572   0.00000  Uiso   1.00
H33    H     0.66192   0.17542   0.95316   0.00000  Uiso   1.00
H34    H     0.82453   0.19007   0.14194   0.00000  Uiso   1.00
H35    H     0.04908   0.02269   0.84606   0.00000  Uiso   1.00
H36    H     0.51678   0.23816   0.88285   0.00000  Uiso   1.00
H37    H     0.85968   0.26905   0.28094   0.00000  Uiso   1.00
O38    O     0.15973   0.10562   0.76691   0.00000  Uiso   1.00
O39    O     0.46138   0.38832   0.81518   0.00000  Uiso   1.00
O40    O     0.91125   0.42885   0.33748   0.00000  Uiso   1.00
N41    N     0.08823   0.23414   0.81003   0.00000  Uiso   1.00
N42    N     0.59057   0.43558   0.84441   0.00000  Uiso   1.00
N43    N     0.91112   0.46447   0.21660   0.00000  Uiso   1.00
N44    N     0.04989   0.09320   0.84240   0.00000  Uiso   1.00
N45    N     0.55223   0.29465   0.87679   0.00000  Uiso   1.00
N46    N     0.87279   0.32354   0.24898   0.00000  Uiso   1.00
C47    C     0.63327   0.10955   0.45417   0.00000  Uiso   1.00
C48    C     0.58159   0.18707   0.42237   0.00000  Uiso   1.00
C49    C     0.51679   0.17374   0.37758   0.00000  Uiso   1.00
C50    C     0.47729   0.25372   0.35418   0.00000  Uiso   1.00
C51    C     0.39333   0.36040   0.30162   0.00000  Uiso   1.00
C52    C     0.71875   0.13155   0.43183   0.00000  Uiso   1.00
C53    C     0.76926   0.07155   0.39501   0.00000  Uiso   1.00
C54    C     0.84523   0.10480   0.37959   0.00000  Uiso   1.00
C55    C     0.97423   0.12526   0.34177   0.00000  Uiso   1.00
C56    C     0.63039   0.12360   0.53440   0.00000  Uiso   1.00
C57    C     0.60663   0.05689   0.58383   0.00000  Uiso   1.00
C58    C     0.60823   0.08343   0.65477   0.00000  Uiso   1.00
C59    C     0.60004   0.09154   0.77621   0.00000  Uiso   1.00
C60    C     0.67836   0.27528   0.49225   0.00000  Uiso   1.00
C61    C     0.60609   0.27709   0.44305   0.00000  Uiso   1.00
C62    C     0.56667   0.35711   0.41971   0.00000  Uiso   1.00
C63    C     0.50182   0.34391   0.37490   0.00000  Uiso   1.00
C64    C     0.74324   0.22157   0.45251   0.00000  Uiso   1.00
C65    C     0.81915   0.25492   0.43714   0.00000  Uiso   1.00
C66    C     0.86976   0.19498   0.40030   0.00000  Uiso   1.00
C67    C     0.65488   0.21362   0.55509   0.00000  Uiso   1.00
C68    C     0.65652   0.24026   0.62596   0.00000  Uiso   1.00
C69    C     0.63276   0.17361   0.67549   0.00000  Uiso   1.00
H70    H     0.61421   0.03946   0.43807   0.00000  Uiso   1.00
H71    H     0.49786   0.10406   0.36158   0.00000  Uiso   1.00
H72    H     0.75030   0.00188   0.37902   0.00000  Uiso   1.00
H73    H     0.58769   0.98723   0.56781   0.00000  Uiso   1.00
H74    H     0.37967   0.21539   0.28589   0.00000  Uiso   1.00
H75    H     0.91196   0.99992   0.32267   0.00000  Uiso   1.00
H76    H     0.56907   0.96903   0.72077   0.00000  Uiso   1.00
H77    H     0.69743   0.34537   0.50835   0.00000  Uiso   1.00
H78    H     0.58564   0.42677   0.43572   0.00000  Uiso   1.00
H79    H     0.83808   0.32458   0.45316   0.00000  Uiso   1.00
H80    H     0.67547   0.30993   0.64194   0.00000  Uiso   1.00
H81    H     0.45092   0.47731   0.34606   0.00000  Uiso   1.00
H82    H     0.98322   0.26184   0.38285   0.00000  Uiso   1.00
H83    H     0.64032   0.23095   0.78094   0.00000  Uiso   1.00
O84    O     0.34027   0.39438   0.26691   0.00000  Uiso   1.00
O85    O     0.03862   0.11168   0.31518   0.00000  Uiso   1.00
O86    O     0.58875   0.07115   0.83748   0.00000  Uiso   1.00
N87    N     0.41177   0.26586   0.31003   0.00000  Uiso   1.00
N88    N     0.90943   0.06442   0.34441   0.00000  Uiso   1.00
N89    N     0.58888   0.03553   0.71660   0.00000  Uiso   1.00
N90    N     0.45011   0.40680   0.34240   0.00000  Uiso   1.00
N91    N     0.94777   0.20535   0.37679   0.00000  Uiso   1.00
N92    N     0.62721   0.17646   0.74898   0.00000  Uiso   1.00
C93    C     0.13327   0.39045   0.54583   0.00000  Uiso   1.00
C94    C     0.08159   0.31293   0.57763   0.00000  Uiso   1.00
C95    C     0.01679   0.32626   0.62242   0.00000  Uiso   1.00
C96    C     0.97729   0.24628   0.64582   0.00000  Uiso   1.00
C97    C     0.89333   0.13960   0.69838   0.00000  Uiso   1.00
C98    C     0.21875   0.36845   0.56817   0.00000  Uiso   1.00
C99    C     0.26926   0.42845   0.60499   0.00000  Uiso   1.00
C100   C     0.34523   0.39520   0.62041   0.00000  Uiso   1.00
C101   C     0.47423   0.37474   0.65823   0.00000  Uiso   1.00
C102   C     0.13039   0.37640   0.46560   0.00000  Uiso   1.00
C103   C     0.10663   0.44311   0.41617   0.00000  Uiso   1.00
C104   C     0.10823   0.41657   0.34523   0.00000  Uiso   1.00
C105   C     0.10004   0.40846   0.22379   0.00000  Uiso   1.00
C106   C     0.17836   0.22472   0.50775   0.00000  Uiso   1.00
C107   C     0.10609   0.22291   0.55695   0.00000  Uiso   1.00
C108   C     0.06667   0.14289   0.58029   0.00000  Uiso   1.00
C109   C     0.00182   0.15609   0.62510   0.00000  Uiso   1.00
C110   C     0.24324   0.27843   0.54749   0.00000  Uiso   1.00
C111   C     0.31915   0.24508   0.56286   0.00000  Uiso   1.00
C112   C     0.36976   0.30502   0.59970   0.00000  Uiso   1.00
C113   C     0.15488   0.28638   0.44491   0.00000  Uiso   1.00
C114   C     0.15652   0.25974   0.37404   0.00000  Uiso   1.00
C115   C     0.13276   0.32639   0.32451   0.00000  Uiso   1.00
H116   H     0.11421   0.46054   0.56193   0.00000  Uiso   1.00
H117   H     0.99786   0.39594   0.63842   0.00000  Uiso   1.00
H118   H     0.25030   0.49812   0.62098   0.00000  Uiso   1.00
H119   H     0.08769   0.51277   0.43219   0.00000  Uiso   1.00
H120   H     0.87967   0.28461   0.71411   0.00000  Uiso   1.00
H121   H     0.41196   0.50008   0.67733   0.00000  Uiso   1.00
H122   H     0.06907   0.53097   0.27923   0.00000  Uiso   1.00
H123   H     0.19743   0.15463   0.49165   0.00000  Uiso   1.00
H124   H     0.08564   0.07323   0.56428   0.00000  Uiso   1.00
H125   H     0.33808   0.17542   0.54684   0.00000  Uiso   1.00
H126   H     0.17547   0.19007   0.35806   0.00000  Uiso   1.00
H127   H     0.95092   0.02269   0.65394   0.00000  Uiso   1.00
H128   H     0.48322   0.23816   0.61715   0.00000  Uiso   1.00
H129   H     0.14032   0.26905   0.21906   0.00000  Uiso   1.00
O130   O     0.84027   0.10562   0.73309   0.00000  Uiso   1.00
O131   O     0.53862   0.38832   0.68482   0.00000  Uiso   1.00
O132   O     0.08875   0.42885   0.16252   0.00000  Uiso   1.00
N133   N     0.91177   0.23414   0.68997   0.00000  Uiso   1.00
N134   N     0.40943   0.43558   0.65559   0.00000  Uiso   1.00
N135   N     0.08888   0.46447   0.28340   0.00000  Uiso   1.00
N136   N     0.95011   0.09320   0.65760   0.00000  Uiso   1.00
N137   N     0.44777   0.29465   0.62321   0.00000  Uiso   1.00
N138   N     0.12721   0.32354   0.25102   0.00000  Uiso   1.00
C139   C     0.36673   0.10955   0.04583   0.00000  Uiso   1.00
C140   C     0.41841   0.18707   0.07763   0.00000  Uiso   1.00
C141   C     0.48321   0.17374   0.12242   0.00000  Uiso   1.00
C142   C     0.52271   0.25372   0.14582   0.00000  Uiso   1.00
C143   C     0.60667   0.36040   0.19838   0.00000  Uiso   1.00
C144   C     0.28125   0.13155   0.06817   0.00000  Uiso   1.00
C145   C     0.23074   0.07155   0.10499   0.00000  Uiso   1.00
C146   C     0.15477   0.10480   0.12041   0.00000  Uiso   1.00
C147   C     0.02577   0.12526   0.15823   0.00000  Uiso   1.00
C148   C     0.36961   0.12360   0.96560   0.00000  Uiso   1.00
C149   C     0.39337   0.05689   0.91617   0.00000  Uiso   1.00
C150   C     0.39177   0.08343   0.84523   0.00000  Uiso   1.00
C151   C     0.39996   0.09154   0.72379   0.00000  Uiso   1.00
C152   C     0.32164   0.27528   0.00775   0.00000  Uiso   1.00
C153   C     0.39391   0.27709   0.05695   0.00000  Uiso   1.00
C154   C     0.43333   0.35711   0.08029   0.00000  Uiso   1.00
C155   C     0.49818   0.34391   0.12510   0.00000  Uiso   1.00
C156   C     0.25676   0.22157   0.04749   0.00000  Uiso   1.00
C157   C     0.18085   0.25492   0.06286   0.00000  Uiso   1.00
C158   C     0.13024   0.19498   0.09970   0.00000  Uiso   1.00
C159   C     0.34512   0.21362   0.94491   0.00000  Uiso   1.00
C160   C     0.34348   0.24026   0.87404   0.00000  Uiso   1.00
C161   C     0.36724   0.17361   0.82451   0.00000  Uiso   1.00
H162   H     0.38579   0.03946   0.06193   0.00000  Uiso   1.00
H163   H     0.50214   0.10406   0.13842   0.00000  Uiso   1.00
H164   H     0.24970   0.00188   0.12098   0.00000  Uiso   1.00
H165   H     0.41231   0.98723   0.93219   0.00000  Uiso   1.00
H166   H     0.62033   0.21539   0.21411   0.00000  Uiso   1.00
H167   H     0.08804   0.99992   0.17733   0.00000  Uiso   1.00
H168   H     0.43093   0.96903   0.77923   0.00000  Uiso   1.00
H169   H     0.30257   0.34537   0.99165   0.00000  Uiso   1.00
H170   H     0.41436   0.42677   0.06428   0.00000  Uiso   1.00
H171   H     0.16192   0.32458   0.04684   0.00000  Uiso   1.00
H172   H     0.32453   0.30993   0.85806   0.00000  Uiso   1.00
H173   H     0.54908   0.47731   0.15394   0.00000  Uiso   1.00
H174   H     0.01678   0.26184   0.11715   0.00000  Uiso   1.00
H175   H     0.35968   0.23095   0.71906   0.00000  Uiso   1.00
O176   O     0.65973   0.39438   0.23309   0.00000  Uiso   1.00
O177   O     0.96138   0.11168   0.18482   0.00000  Uiso   1.00
O178   O     0.41125   0.07115   0.66252   0.00000  Uiso   1.00
N179   N     0.58823   0.26586   0.18997   0.00000  Uiso   1.00
N180   N     0.09057   0.06442   0.15559   0.00000  Uiso   1.00
N181   N     0.41112   0.03553   0.78340   0.00000  Uiso   1.00
N182   N     0.54989   0.40680   0.15760   0.00000  Uiso   1.00
N183   N     0.05223   0.20535   0.12321   0.00000  Uiso   1.00
N184   N     0.37279   0.17646   0.75102   0.00000  Uiso   1.00
C185   C     0.13327   0.60955   0.04583   0.00000  Uiso   1.00
C186   C     0.08159   0.68707   0.07763   0.00000  Uiso   1.00
C187   C     0.01679   0.67374   0.12242   0.00000  Uiso   1.00
C188   C     0.97729   0.75372   0.14582   0.00000  Uiso   1.00
C189   C     0.89333   0.86040   0.19838   0.00000  Uiso   1.00
C190   C     0.21875   0.63155   0.06817   0.00000  Uiso   1.00
C191   C     0.26926   0.57155   0.10499   0.00000  Uiso   1.00
C192   C     0.34523   0.60480   0.12041   0.00000  Uiso   1.00
C193   C     0.47423   0.62526   0.15823   0.00000  Uiso   1.00
C194   C     0.13039   0.62360   0.96560   0.00000  Uiso   1.00
C195   C     0.10663   0.55689   0.91617   0.00000  Uiso   1.00
C196   C     0.10823   0.58343   0.84523   0.00000  Uiso   1.00
C197   C     0.10004   0.59154   0.72379   0.00000  Uiso   1.00
C198   C     0.17836   0.77528   0.00775   0.00000  Uiso   1.00
C199   C     0.10609   0.77709   0.05695   0.00000  Uiso   1.00
C200   C     0.06667   0.85711   0.08029   0.00000  Uiso   1.00
C201   C     0.00182   0.84391   0.12510   0.00000  Uiso   1.00
C202   C     0.24324   0.72157   0.04749   0.00000  Uiso   1.00
C203   C     0.31915   0.75492   0.06286   0.00000  Uiso   1.00
C204   C     0.36976   0.69498   0.09970   0.00000  Uiso   1.00
C205   C     0.15488   0.71362   0.94491   0.00000  Uiso   1.00
C206   C     0.15652   0.74026   0.87404   0.00000  Uiso   1.00
C207   C     0.13276   0.67361   0.82451   0.00000  Uiso   1.00
H208   H     0.11421   0.53946   0.06193   0.00000  Uiso   1.00
H209   H     0.99786   0.60406   0.13842   0.00000  Uiso   1.00
H210   H     0.25030   0.50188   0.12098   0.00000  Uiso   1.00
H211   H     0.08769   0.48723   0.93219   0.00000  Uiso   1.00
H212   H     0.87967   0.71539   0.21411   0.00000  Uiso   1.00
H213   H     0.41196   0.49992   0.17733   0.00000  Uiso   1.00
H214   H     0.06907   0.46903   0.77923   0.00000  Uiso   1.00
H215   H     0.19743   0.84537   0.99165   0.00000  Uiso   1.00
H216   H     0.08564   0.92677   0.06428   0.00000  Uiso   1.00
H217   H     0.33808   0.82458   0.04684   0.00000  Uiso   1.00
H218   H     0.17547   0.80993   0.85806   0.00000  Uiso   1.00
H219   H     0.95092   0.97731   0.15394   0.00000  Uiso   1.00
H220   H     0.48322   0.76184   0.11715   0.00000  Uiso   1.00
H221   H     0.14032   0.73095   0.71906   0.00000  Uiso   1.00
O222   O     0.84027   0.89438   0.23309   0.00000  Uiso   1.00
O223   O     0.53862   0.61168   0.18482   0.00000  Uiso   1.00
O224   O     0.08875   0.57115   0.66252   0.00000  Uiso   1.00
N225   N     0.91177   0.76586   0.18997   0.00000  Uiso   1.00
N226   N     0.40943   0.56442   0.15559   0.00000  Uiso   1.00
N227   N     0.08888   0.53553   0.78340   0.00000  Uiso   1.00
N228   N     0.95011   0.90680   0.15760   0.00000  Uiso   1.00
N229   N     0.44777   0.70535   0.12321   0.00000  Uiso   1.00
N230   N     0.12721   0.67646   0.75102   0.00000  Uiso   1.00
C231   C     0.36673   0.89045   0.54583   0.00000  Uiso   1.00
C232   C     0.41841   0.81293   0.57763   0.00000  Uiso   1.00
C233   C     0.48321   0.82626   0.62242   0.00000  Uiso   1.00
C234   C     0.52271   0.74628   0.64582   0.00000  Uiso   1.00
C235   C     0.60667   0.63960   0.69838   0.00000  Uiso   1.00
C236   C     0.28125   0.86845   0.56817   0.00000  Uiso   1.00
C237   C     0.23074   0.92845   0.60499   0.00000  Uiso   1.00
C238   C     0.15477   0.89520   0.62041   0.00000  Uiso   1.00
C239   C     0.02577   0.87474   0.65823   0.00000  Uiso   1.00
C240   C     0.36961   0.87640   0.46560   0.00000  Uiso   1.00
C241   C     0.39337   0.94311   0.41617   0.00000  Uiso   1.00
C242   C     0.39177   0.91657   0.34523   0.00000  Uiso   1.00
C243   C     0.39996   0.90846   0.22379   0.00000  Uiso   1.00
C244   C     0.32164   0.72472   0.50775   0.00000  Uiso   1.00
C245   C     0.39391   0.72291   0.55695   0.00000  Uiso   1.00
C246   C     0.43333   0.64289   0.58029   0.00000  Uiso   1.00
C247   C     0.49818   0.65609   0.62510   0.00000  Uiso   1.00
C248   C     0.25676   0.77843   0.54749   0.00000  Uiso   1.00
C249   C     0.18085   0.74508   0.56286   0.00000  Uiso   1.00
C250   C     0.13024   0.80502   0.59970   0.00000  Uiso   1.00
C251   C     0.34512   0.78638   0.44491   0.00000  Uiso   1.00
C252   C     0.34348   0.75974   0.37404   0.00000  Uiso   1.00
C253   C     0.36724   0.82639   0.32451   0.00000  Uiso   1.00
H254   H     0.38579   0.96054   0.56193   0.00000  Uiso   1.00
H255   H     0.50214   0.89594   0.63842   0.00000  Uiso   1.00
H256   H     0.24970   0.99812   0.62098   0.00000  Uiso   1.00
H257   H     0.41231   0.01277   0.43219   0.00000  Uiso   1.00
H258   H     0.62033   0.78461   0.71411   0.00000  Uiso   1.00
H259   H     0.08804   0.00008   0.67733   0.00000  Uiso   1.00
H260   H     0.43093   0.03097   0.27923   0.00000  Uiso   1.00
H261   H     0.30257   0.65463   0.49165   0.00000  Uiso   1.00
H262   H     0.41436   0.57323   0.56428   0.00000  Uiso   1.00
H263   H     0.16192   0.67542   0.54684   0.00000  Uiso   1.00
H264   H     0.32453   0.69007   0.35806   0.00000  Uiso   1.00
H265   H     0.54908   0.52269   0.65394   0.00000  Uiso   1.00
H266   H     0.01678   0.73816   0.61715   0.00000  Uiso   1.00
H267   H     0.35968   0.76905   0.21906   0.00000  Uiso   1.00
O268   O     0.65973   0.60562   0.73309   0.00000  Uiso   1.00
O269   O     0.96138   0.88832   0.68482   0.00000  Uiso   1.00
O270   O     0.41125   0.92885   0.16252   0.00000  Uiso   1.00
N271   N     0.58823   0.73414   0.68997   0.00000  Uiso   1.00
N272   N     0.09057   0.93558   0.65559   0.00000  Uiso   1.00
N273   N     0.41112   0.96447   0.28340   0.00000  Uiso   1.00
N274   N     0.54989   0.59320   0.65760   0.00000  Uiso   1.00
N275   N     0.05223   0.79465   0.62321   0.00000  Uiso   1.00
N276   N     0.37279   0.82354   0.25102   0.00000  Uiso   1.00
C277   C     0.86673   0.60955   0.45417   0.00000  Uiso   1.00
C278   C     0.91841   0.68707   0.42237   0.00000  Uiso   1.00
C279   C     0.98321   0.67374   0.37758   0.00000  Uiso   1.00
C280   C     0.02271   0.75372   0.35418   0.00000  Uiso   1.00
C281   C     0.10667   0.86040   0.30162   0.00000  Uiso   1.00
C282   C     0.78125   0.63155   0.43183   0.00000  Uiso   1.00
C283   C     0.73074   0.57155   0.39501   0.00000  Uiso   1.00
C284   C     0.65477   0.60480   0.37959   0.00000  Uiso   1.00
C285   C     0.52577   0.62526   0.34177   0.00000  Uiso   1.00
C286   C     0.86961   0.62360   0.53440   0.00000  Uiso   1.00
C287   C     0.89337   0.55689   0.58383   0.00000  Uiso   1.00
C288   C     0.89177   0.58343   0.65477   0.00000  Uiso   1.00
C289   C     0.89996   0.59154   0.77621   0.00000  Uiso   1.00
C290   C     0.82164   0.77528   0.49225   0.00000  Uiso   1.00
C291   C     0.89391   0.77709   0.44305   0.00000  Uiso   1.00
C292   C     0.93333   0.85711   0.41971   0.00000  Uiso   1.00
C293   C     0.99818   0.84391   0.37490   0.00000  Uiso   1.00
C294   C     0.75676   0.72157   0.45251   0.00000  Uiso   1.00
C295   C     0.68085   0.75492   0.43714   0.00000  Uiso   1.00
C296   C     0.63024   0.69498   0.40030   0.00000  Uiso   1.00
C297   C     0.84512   0.71362   0.55509   0.00000  Uiso   1.00
C298   C     0.84348   0.74026   0.62596   0.00000  Uiso   1.00
C299   C     0.86724   0.67361   0.67549   0.00000  Uiso   1.00
H300   H     0.88579   0.53946   0.43807   0.00000  Uiso   1.00
H301   H     0.00214   0.60406   0.36158   0.00000  Uiso   1.00
H302   H     0.74970   0.50188   0.37902   0.00000  Uiso   1.00
H303   H     0.91231   0.48723   0.56781   0.00000  Uiso   1.00
H304   H     0.12033   0.71539   0.28589   0.00000  Uiso   1.00
H305   H     0.58804   0.49992   0.32267   0.00000  Uiso   1.00
H306   H     0.93093   0.46903   0.72077   0.00000  Uiso   1.00
H307   H     0.80257   0.84537   0.50835   0.00000  Uiso   1.00
H308   H     0.91436   0.92677   0.43572   0.00000  Uiso   1.00
H309   H     0.66192   0.82458   0.45316   0.00000  Uiso   1.00
H310   H     0.82453   0.80993   0.64194   0.00000  Uiso   1.00
H311   H     0.04908   0.97731   0.34606   0.00000  Uiso   1.00
H312   H     0.51678   0.76184   0.38285   0.00000  Uiso   1.00
H313   H     0.85968   0.73095   0.78094   0.00000  Uiso   1.00
O314   O     0.15973   0.89438   0.26691   0.00000  Uiso   1.00
O315   O     0.46138   0.61168   0.31518   0.00000  Uiso   1.00
O316   O     0.91125   0.57115   0.83748   0.00000  Uiso   1.00
N317   N     0.08823   0.76586   0.31003   0.00000  Uiso   1.00
N318   N     0.59057   0.56442   0.34441   0.00000  Uiso   1.00
N319   N     0.91112   0.53553   0.71660   0.00000  Uiso   1.00
N320   N     0.04989   0.90680   0.34240   0.00000  Uiso   1.00
N321   N     0.55223   0.70535   0.37679   0.00000  Uiso   1.00
N322   N     0.87279   0.67646   0.74898   0.00000  Uiso   1.00
C323   C     0.63327   0.89045   0.95417   0.00000  Uiso   1.00
C324   C     0.58159   0.81293   0.92237   0.00000  Uiso   1.00
C325   C     0.51679   0.82626   0.87758   0.00000  Uiso   1.00
C326   C     0.47729   0.74628   0.85418   0.00000  Uiso   1.00
C327   C     0.39333   0.63960   0.80162   0.00000  Uiso   1.00
C328   C     0.71875   0.86845   0.93183   0.00000  Uiso   1.00
C329   C     0.76926   0.92845   0.89501   0.00000  Uiso   1.00
C330   C     0.84523   0.89520   0.87959   0.00000  Uiso   1.00
C331   C     0.97423   0.87474   0.84177   0.00000  Uiso   1.00
C332   C     0.63039   0.87640   0.03440   0.00000  Uiso   1.00
C333   C     0.60663   0.94311   0.08383   0.00000  Uiso   1.00
C334   C     0.60823   0.91657   0.15477   0.00000  Uiso   1.00
C335   C     0.60004   0.90846   0.27621   0.00000  Uiso   1.00
C336   C     0.67836   0.72472   0.99225   0.00000  Uiso   1.00
C337   C     0.60609   0.72291   0.94305   0.00000  Uiso   1.00
C338   C     0.56667   0.64289   0.91971   0.00000  Uiso   1.00
C339   C     0.50182   0.65609   0.87490   0.00000  Uiso   1.00
C340   C     0.74324   0.77843   0.95251   0.00000  Uiso   1.00
C341   C     0.81915   0.74508   0.93714   0.00000  Uiso   1.00
C342   C     0.86976   0.80502   0.90030   0.00000  Uiso   1.00
C343   C     0.65488   0.78638   0.05509   0.00000  Uiso   1.00
C344   C     0.65652   0.75974   0.12596   0.00000  Uiso   1.00
C345   C     0.63276   0.82639   0.17549   0.00000  Uiso   1.00
H346   H     0.61421   0.96054   0.93807   0.00000  Uiso   1.00
H347   H     0.49786   0.89594   0.86158   0.00000  Uiso   1.00
H348   H     0.75030   0.99812   0.87902   0.00000  Uiso   1.00
H349   H     0.58769   0.01277   0.06781   0.00000  Uiso   1.00
H350   H     0.37967   0.78461   0.78589   0.00000  Uiso   1.00
H351   H     0.91196   0.00008   0.82267   0.00000  Uiso   1.00
H352   H     0.56907   0.03097   0.22077   0.00000  Uiso   1.00
H353   H     0.69743   0.65463   0.00835   0.00000  Uiso   1.00
H354   H     0.58564   0.57323   0.93572   0.00000  Uiso   1.00
H355   H     0.83808   0.67542   0.95316   0.00000  Uiso   1.00
H356   H     0.67547   0.69007   0.14194   0.00000  Uiso   1.00
H357   H     0.45092   0.52269   0.84606   0.00000  Uiso   1.00
H358   H     0.98322   0.73816   0.88285   0.00000  Uiso   1.00
H359   H     0.64032   0.76905   0.28094   0.00000  Uiso   1.00
O360   O     0.34027   0.60562   0.76691   0.00000  Uiso   1.00
O361   O     0.03862   0.88832   0.81518   0.00000  Uiso   1.00
O362   O     0.58875   0.92885   0.33748   0.00000  Uiso   1.00
N363   N     0.41177   0.73414   0.81003   0.00000  Uiso   1.00
N364   N     0.90943   0.93558   0.84441   0.00000  Uiso   1.00
N365   N     0.58888   0.96447   0.21660   0.00000  Uiso   1.00
N366   N     0.45011   0.59320   0.84240   0.00000  Uiso   1.00
N367   N     0.94777   0.79465   0.87679   0.00000  Uiso   1.00
N368   N     0.62721   0.82354   0.24898   0.00000  Uiso   1.00
