data_job_02832
_audit_creation_date              2018-12-19
_audit_creation_method            'Materials Studio'
_symmetry_space_group_name_H-M    'P1'
_symmetry_Int_Tables_number       1
_symmetry_cell_setting            triclinic
loop_
_symmetry_equiv_pos_as_xyz
  x,y,z
_cell_length_a                    12.4819
_cell_length_b                    22.2445
_cell_length_c                    29.3139
_cell_angle_alpha                 90.0000
_cell_angle_beta                  109.9882
_cell_angle_gamma                 90.0000
loop_
_atom_site_label
_atom_site_type_symbol
_atom_site_fract_x
_atom_site_fract_y
_atom_site_fract_z
_atom_site_U_iso_or_equiv
_atom_site_adp_type
_atom_site_occupancy
C1     C     0.69185   0.21210   0.81923   0.00000  Uiso   1.00
C2     C     0.64609   0.22315   0.86053   0.00000  Uiso   1.00
C3     C     0.55108   0.25742   0.85763   0.00000  Uiso   1.00
C4     C     0.52317   0.26205   0.89946   0.00000  Uiso   1.00
C5     C     0.44228   0.28358   0.95703   0.00000  Uiso   1.00
C6     C     0.81566   0.23300   0.83780   0.00000  Uiso   1.00
C7     C     0.86321   0.27554   0.81579   0.00000  Uiso   1.00
C8     C     0.97805   0.28845   0.83848   0.00000  Uiso   1.00
C9     C     0.16044   0.32524   0.86076   0.00000  Uiso   1.00
C10    C     0.69564   0.14404   0.81379   0.00000  Uiso   1.00
C11    C     0.64229   0.11177   0.77158   0.00000  Uiso   1.00
C12    C     0.65610   0.04978   0.77406   0.00000  Uiso   1.00
C13    C     0.65213   0.94845   0.75905   0.00000  Uiso   1.00
C14    C     0.81125   0.15938   0.89868   0.00000  Uiso   1.00
C15    C     0.71095   0.19452   0.90368   0.00000  Uiso   1.00
C16    C     0.68318   0.19909   0.94553   0.00000  Uiso   1.00
C17    C     0.58813   0.23336   0.94269   0.00000  Uiso   1.00
C18    C     0.88052   0.20436   0.88096   0.00000  Uiso   1.00
C19    C     0.99531   0.21721   0.90369   0.00000  Uiso   1.00
C20    C     0.04302   0.25976   0.88172   0.00000  Uiso   1.00
C21    C     0.76049   0.11540   0.85695   0.00000  Uiso   1.00
C22    C     0.77439   0.05345   0.85949   0.00000  Uiso   1.00
C23    C     0.72107   0.02110   0.81729   0.00000  Uiso   1.00
H24    H     0.64137   0.23440   0.78563   0.00000  Uiso   1.00
H25    H     0.50092   0.27957   0.82422   0.00000  Uiso   1.00
H26    H     0.81301   0.29768   0.78239   0.00000  Uiso   1.00
H27    H     0.59211   0.13395   0.73819   0.00000  Uiso   1.00
H28    H     0.37382   0.31705   0.88605   0.00000  Uiso   1.00
H29    H     0.03189   0.35523   0.79783   0.00000  Uiso   1.00
H30    H     0.56610   0.00995   0.70464   0.00000  Uiso   1.00
H31    H     0.86175   0.13709   0.93227   0.00000  Uiso   1.00
H32    H     0.73338   0.17693   0.97892   0.00000  Uiso   1.00
H33    H     0.04547   0.19504   0.93708   0.00000  Uiso   1.00
H34    H     0.82458   0.03130   0.89289   0.00000  Uiso   1.00
H35    H     0.56250   0.23375   0.01161   0.00000  Uiso   1.00
H36    H     0.22057   0.27192   0.92338   0.00000  Uiso   1.00
H37    H     0.75477   0.92665   0.83019   0.00000  Uiso   1.00
O38    O     0.37976   0.30338   0.97687   0.00000  Uiso   1.00
O39    O     0.24313   0.35345   0.86112   0.00000  Uiso   1.00
O40    O     0.63201   0.90046   0.73886   0.00000  Uiso   1.00
N41    N     0.43583   0.29197   0.90920   0.00000  Uiso   1.00
N42    N     0.05108   0.32767   0.82672   0.00000  Uiso   1.00
N43    N     0.61563   0.00487   0.73959   0.00000  Uiso   1.00
N44    N     0.53735   0.24714   0.97676   0.00000  Uiso   1.00
N45    N     0.15261   0.28284   0.89428   0.00000  Uiso   1.00
N46    N     0.71715   0.96004   0.80715   0.00000  Uiso   1.00
C47    C     0.19185   0.71210   0.81923   0.00000  Uiso   1.00
C48    C     0.14609   0.72315   0.86053   0.00000  Uiso   1.00
C49    C     0.05108   0.75742   0.85763   0.00000  Uiso   1.00
C50    C     0.02317   0.76205   0.89946   0.00000  Uiso   1.00
C51    C     0.94228   0.78358   0.95703   0.00000  Uiso   1.00
C52    C     0.31566   0.73300   0.83780   0.00000  Uiso   1.00
C53    C     0.36321   0.77554   0.81579   0.00000  Uiso   1.00
C54    C     0.47805   0.78845   0.83848   0.00000  Uiso   1.00
C55    C     0.66044   0.82524   0.86076   0.00000  Uiso   1.00
C56    C     0.19564   0.64404   0.81379   0.00000  Uiso   1.00
C57    C     0.14229   0.61177   0.77158   0.00000  Uiso   1.00
C58    C     0.15610   0.54978   0.77406   0.00000  Uiso   1.00
C59    C     0.15213   0.44845   0.75905   0.00000  Uiso   1.00
C60    C     0.31125   0.65938   0.89868   0.00000  Uiso   1.00
C61    C     0.21095   0.69452   0.90368   0.00000  Uiso   1.00
C62    C     0.18318   0.69909   0.94553   0.00000  Uiso   1.00
C63    C     0.08813   0.73336   0.94269   0.00000  Uiso   1.00
C64    C     0.38052   0.70436   0.88096   0.00000  Uiso   1.00
C65    C     0.49531   0.71721   0.90369   0.00000  Uiso   1.00
C66    C     0.54302   0.75976   0.88172   0.00000  Uiso   1.00
C67    C     0.26049   0.61540   0.85695   0.00000  Uiso   1.00
C68    C     0.27439   0.55345   0.85949   0.00000  Uiso   1.00
C69    C     0.22107   0.52110   0.81729   0.00000  Uiso   1.00
H70    H     0.14137   0.73440   0.78563   0.00000  Uiso   1.00
H71    H     0.00092   0.77957   0.82422   0.00000  Uiso   1.00
H72    H     0.31301   0.79768   0.78239   0.00000  Uiso   1.00
H73    H     0.09211   0.63395   0.73819   0.00000  Uiso   1.00
H74    H     0.87382   0.81705   0.88605   0.00000  Uiso   1.00
H75    H     0.53189   0.85523   0.79783   0.00000  Uiso   1.00
H76    H     0.06610   0.50995   0.70464   0.00000  Uiso   1.00
H77    H     0.36175   0.63709   0.93227   0.00000  Uiso   1.00
H78    H     0.23338   0.67693   0.97892   0.00000  Uiso   1.00
H79    H     0.54547   0.69504   0.93708   0.00000  Uiso   1.00
H80    H     0.32458   0.53130   0.89289   0.00000  Uiso   1.00
H81    H     0.06250   0.73375   0.01161   0.00000  Uiso   1.00
H82    H     0.72057   0.77192   0.92338   0.00000  Uiso   1.00
H83    H     0.25477   0.42665   0.83019   0.00000  Uiso   1.00
O84    O     0.87976   0.80338   0.97687   0.00000  Uiso   1.00
O85    O     0.74313   0.85345   0.86112   0.00000  Uiso   1.00
O86    O     0.13201   0.40046   0.73886   0.00000  Uiso   1.00
N87    N     0.93583   0.79197   0.90920   0.00000  Uiso   1.00
N88    N     0.55108   0.82767   0.82672   0.00000  Uiso   1.00
N89    N     0.11563   0.50487   0.73959   0.00000  Uiso   1.00
N90    N     0.03735   0.74714   0.97676   0.00000  Uiso   1.00
N91    N     0.65261   0.78284   0.89428   0.00000  Uiso   1.00
N92    N     0.21715   0.46004   0.80715   0.00000  Uiso   1.00
C93    C     0.30815   0.21210   0.68077   0.00000  Uiso   1.00
C94    C     0.35391   0.22315   0.63947   0.00000  Uiso   1.00
C95    C     0.44892   0.25742   0.64237   0.00000  Uiso   1.00
C96    C     0.47683   0.26205   0.60054   0.00000  Uiso   1.00
C97    C     0.55772   0.28358   0.54297   0.00000  Uiso   1.00
C98    C     0.18434   0.23300   0.66220   0.00000  Uiso   1.00
C99    C     0.13679   0.27554   0.68421   0.00000  Uiso   1.00
C100   C     0.02195   0.28845   0.66152   0.00000  Uiso   1.00
C101   C     0.83956   0.32524   0.63924   0.00000  Uiso   1.00
C102   C     0.30436   0.14404   0.68621   0.00000  Uiso   1.00
C103   C     0.35771   0.11177   0.72842   0.00000  Uiso   1.00
C104   C     0.34390   0.04978   0.72594   0.00000  Uiso   1.00
C105   C     0.34787   0.94845   0.74095   0.00000  Uiso   1.00
C106   C     0.18875   0.15938   0.60132   0.00000  Uiso   1.00
C107   C     0.28905   0.19452   0.59632   0.00000  Uiso   1.00
C108   C     0.31682   0.19909   0.55447   0.00000  Uiso   1.00
C109   C     0.41187   0.23336   0.55731   0.00000  Uiso   1.00
C110   C     0.11948   0.20436   0.61904   0.00000  Uiso   1.00
C111   C     0.00469   0.21721   0.59631   0.00000  Uiso   1.00
C112   C     0.95698   0.25976   0.61828   0.00000  Uiso   1.00
C113   C     0.23951   0.11540   0.64305   0.00000  Uiso   1.00
C114   C     0.22561   0.05345   0.64051   0.00000  Uiso   1.00
C115   C     0.27893   0.02110   0.68271   0.00000  Uiso   1.00
H116   H     0.35863   0.23440   0.71437   0.00000  Uiso   1.00
H117   H     0.49908   0.27957   0.67578   0.00000  Uiso   1.00
H118   H     0.18699   0.29768   0.71761   0.00000  Uiso   1.00
H119   H     0.40789   0.13395   0.76181   0.00000  Uiso   1.00
H120   H     0.62618   0.31705   0.61395   0.00000  Uiso   1.00
H121   H     0.96811   0.35523   0.70217   0.00000  Uiso   1.00
H122   H     0.43390   0.00995   0.79536   0.00000  Uiso   1.00
H123   H     0.13825   0.13709   0.56773   0.00000  Uiso   1.00
H124   H     0.26662   0.17693   0.52108   0.00000  Uiso   1.00
H125   H     0.95453   0.19504   0.56292   0.00000  Uiso   1.00
H126   H     0.17542   0.03130   0.60711   0.00000  Uiso   1.00
H127   H     0.43750   0.23375   0.48839   0.00000  Uiso   1.00
H128   H     0.77943   0.27192   0.57662   0.00000  Uiso   1.00
H129   H     0.24523   0.92665   0.66981   0.00000  Uiso   1.00
O130   O     0.62024   0.30338   0.52313   0.00000  Uiso   1.00
O131   O     0.75687   0.35345   0.63888   0.00000  Uiso   1.00
O132   O     0.36799   0.90046   0.76114   0.00000  Uiso   1.00
N133   N     0.56417   0.29197   0.59080   0.00000  Uiso   1.00
N134   N     0.94892   0.32767   0.67328   0.00000  Uiso   1.00
N135   N     0.38437   0.00487   0.76041   0.00000  Uiso   1.00
N136   N     0.46265   0.24714   0.52324   0.00000  Uiso   1.00
N137   N     0.84739   0.28284   0.60572   0.00000  Uiso   1.00
N138   N     0.28285   0.96004   0.69285   0.00000  Uiso   1.00
C139   C     0.80815   0.71210   0.68077   0.00000  Uiso   1.00
C140   C     0.85391   0.72315   0.63947   0.00000  Uiso   1.00
C141   C     0.94892   0.75742   0.64237   0.00000  Uiso   1.00
C142   C     0.97683   0.76205   0.60054   0.00000  Uiso   1.00
C143   C     0.05772   0.78358   0.54297   0.00000  Uiso   1.00
C144   C     0.68434   0.73300   0.66220   0.00000  Uiso   1.00
C145   C     0.63679   0.77554   0.68421   0.00000  Uiso   1.00
C146   C     0.52195   0.78845   0.66152   0.00000  Uiso   1.00
C147   C     0.33956   0.82524   0.63924   0.00000  Uiso   1.00
C148   C     0.80436   0.64404   0.68621   0.00000  Uiso   1.00
C149   C     0.85771   0.61177   0.72842   0.00000  Uiso   1.00
C150   C     0.84390   0.54978   0.72594   0.00000  Uiso   1.00
C151   C     0.84787   0.44845   0.74095   0.00000  Uiso   1.00
C152   C     0.68875   0.65938   0.60132   0.00000  Uiso   1.00
C153   C     0.78905   0.69452   0.59632   0.00000  Uiso   1.00
C154   C     0.81682   0.69909   0.55447   0.00000  Uiso   1.00
C155   C     0.91187   0.73336   0.55731   0.00000  Uiso   1.00
C156   C     0.61948   0.70436   0.61904   0.00000  Uiso   1.00
C157   C     0.50469   0.71721   0.59631   0.00000  Uiso   1.00
C158   C     0.45698   0.75976   0.61828   0.00000  Uiso   1.00
C159   C     0.73951   0.61540   0.64305   0.00000  Uiso   1.00
C160   C     0.72561   0.55345   0.64051   0.00000  Uiso   1.00
C161   C     0.77893   0.52110   0.68271   0.00000  Uiso   1.00
H162   H     0.85863   0.73440   0.71437   0.00000  Uiso   1.00
H163   H     0.99908   0.77957   0.67578   0.00000  Uiso   1.00
H164   H     0.68699   0.79768   0.71761   0.00000  Uiso   1.00
H165   H     0.90789   0.63395   0.76181   0.00000  Uiso   1.00
H166   H     0.12618   0.81705   0.61395   0.00000  Uiso   1.00
H167   H     0.46811   0.85523   0.70217   0.00000  Uiso   1.00
H168   H     0.93390   0.50995   0.79536   0.00000  Uiso   1.00
H169   H     0.63825   0.63709   0.56773   0.00000  Uiso   1.00
H170   H     0.76662   0.67693   0.52108   0.00000  Uiso   1.00
H171   H     0.45453   0.69504   0.56292   0.00000  Uiso   1.00
H172   H     0.67542   0.53130   0.60711   0.00000  Uiso   1.00
H173   H     0.93750   0.73375   0.48839   0.00000  Uiso   1.00
H174   H     0.27943   0.77192   0.57662   0.00000  Uiso   1.00
H175   H     0.74523   0.42665   0.66981   0.00000  Uiso   1.00
O176   O     0.12024   0.80338   0.52313   0.00000  Uiso   1.00
O177   O     0.25687   0.85345   0.63888   0.00000  Uiso   1.00
O178   O     0.86799   0.40046   0.76114   0.00000  Uiso   1.00
N179   N     0.06417   0.79197   0.59080   0.00000  Uiso   1.00
N180   N     0.44892   0.82767   0.67328   0.00000  Uiso   1.00
N181   N     0.88437   0.50487   0.76041   0.00000  Uiso   1.00
N182   N     0.96265   0.74714   0.52324   0.00000  Uiso   1.00
N183   N     0.34739   0.78284   0.60572   0.00000  Uiso   1.00
N184   N     0.78285   0.46004   0.69285   0.00000  Uiso   1.00
C185   C     0.30815   0.78790   0.18077   0.00000  Uiso   1.00
C186   C     0.35391   0.77685   0.13947   0.00000  Uiso   1.00
C187   C     0.44892   0.74258   0.14237   0.00000  Uiso   1.00
C188   C     0.47683   0.73795   0.10054   0.00000  Uiso   1.00
C189   C     0.55772   0.71642   0.04297   0.00000  Uiso   1.00
C190   C     0.18434   0.76700   0.16220   0.00000  Uiso   1.00
C191   C     0.13679   0.72446   0.18421   0.00000  Uiso   1.00
C192   C     0.02195   0.71155   0.16152   0.00000  Uiso   1.00
C193   C     0.83956   0.67476   0.13924   0.00000  Uiso   1.00
C194   C     0.30436   0.85596   0.18621   0.00000  Uiso   1.00
C195   C     0.35771   0.88823   0.22842   0.00000  Uiso   1.00
C196   C     0.34390   0.95022   0.22594   0.00000  Uiso   1.00
C197   C     0.34787   0.05155   0.24095   0.00000  Uiso   1.00
C198   C     0.18875   0.84062   0.10132   0.00000  Uiso   1.00
C199   C     0.28905   0.80548   0.09632   0.00000  Uiso   1.00
C200   C     0.31682   0.80091   0.05447   0.00000  Uiso   1.00
C201   C     0.41187   0.76664   0.05731   0.00000  Uiso   1.00
C202   C     0.11948   0.79564   0.11904   0.00000  Uiso   1.00
C203   C     0.00469   0.78279   0.09631   0.00000  Uiso   1.00
C204   C     0.95698   0.74024   0.11828   0.00000  Uiso   1.00
C205   C     0.23951   0.88460   0.14305   0.00000  Uiso   1.00
C206   C     0.22561   0.94655   0.14051   0.00000  Uiso   1.00
C207   C     0.27893   0.97890   0.18271   0.00000  Uiso   1.00
H208   H     0.35863   0.76560   0.21437   0.00000  Uiso   1.00
H209   H     0.49908   0.72043   0.17578   0.00000  Uiso   1.00
H210   H     0.18699   0.70232   0.21761   0.00000  Uiso   1.00
H211   H     0.40789   0.86605   0.26181   0.00000  Uiso   1.00
H212   H     0.62618   0.68295   0.11395   0.00000  Uiso   1.00
H213   H     0.96811   0.64477   0.20217   0.00000  Uiso   1.00
H214   H     0.43390   0.99005   0.29536   0.00000  Uiso   1.00
H215   H     0.13825   0.86291   0.06773   0.00000  Uiso   1.00
H216   H     0.26662   0.82307   0.02108   0.00000  Uiso   1.00
H217   H     0.95453   0.80496   0.06292   0.00000  Uiso   1.00
H218   H     0.17542   0.96870   0.10711   0.00000  Uiso   1.00
H219   H     0.43750   0.76625   0.98839   0.00000  Uiso   1.00
H220   H     0.77943   0.72808   0.07662   0.00000  Uiso   1.00
H221   H     0.24523   0.07335   0.16981   0.00000  Uiso   1.00
O222   O     0.62024   0.69662   0.02313   0.00000  Uiso   1.00
O223   O     0.75687   0.64655   0.13888   0.00000  Uiso   1.00
O224   O     0.36799   0.09954   0.26114   0.00000  Uiso   1.00
N225   N     0.56417   0.70803   0.09080   0.00000  Uiso   1.00
N226   N     0.94892   0.67233   0.17328   0.00000  Uiso   1.00
N227   N     0.38437   0.99513   0.26041   0.00000  Uiso   1.00
N228   N     0.46265   0.75286   0.02324   0.00000  Uiso   1.00
N229   N     0.84739   0.71716   0.10572   0.00000  Uiso   1.00
N230   N     0.28285   0.03996   0.19285   0.00000  Uiso   1.00
C231   C     0.80815   0.28790   0.18077   0.00000  Uiso   1.00
C232   C     0.85391   0.27685   0.13947   0.00000  Uiso   1.00
C233   C     0.94892   0.24258   0.14237   0.00000  Uiso   1.00
C234   C     0.97683   0.23795   0.10054   0.00000  Uiso   1.00
C235   C     0.05772   0.21642   0.04297   0.00000  Uiso   1.00
C236   C     0.68434   0.26700   0.16220   0.00000  Uiso   1.00
C237   C     0.63679   0.22446   0.18421   0.00000  Uiso   1.00
C238   C     0.52195   0.21155   0.16152   0.00000  Uiso   1.00
C239   C     0.33956   0.17476   0.13924   0.00000  Uiso   1.00
C240   C     0.80436   0.35596   0.18621   0.00000  Uiso   1.00
C241   C     0.85771   0.38823   0.22842   0.00000  Uiso   1.00
C242   C     0.84390   0.45022   0.22594   0.00000  Uiso   1.00
C243   C     0.84787   0.55155   0.24095   0.00000  Uiso   1.00
C244   C     0.68875   0.34062   0.10132   0.00000  Uiso   1.00
C245   C     0.78905   0.30548   0.09632   0.00000  Uiso   1.00
C246   C     0.81682   0.30091   0.05447   0.00000  Uiso   1.00
C247   C     0.91187   0.26664   0.05731   0.00000  Uiso   1.00
C248   C     0.61948   0.29564   0.11904   0.00000  Uiso   1.00
C249   C     0.50469   0.28279   0.09631   0.00000  Uiso   1.00
C250   C     0.45698   0.24024   0.11828   0.00000  Uiso   1.00
C251   C     0.73951   0.38460   0.14305   0.00000  Uiso   1.00
C252   C     0.72561   0.44655   0.14051   0.00000  Uiso   1.00
C253   C     0.77893   0.47890   0.18271   0.00000  Uiso   1.00
H254   H     0.85863   0.26560   0.21437   0.00000  Uiso   1.00
H255   H     0.99908   0.22043   0.17578   0.00000  Uiso   1.00
H256   H     0.68699   0.20232   0.21761   0.00000  Uiso   1.00
H257   H     0.90789   0.36605   0.26181   0.00000  Uiso   1.00
H258   H     0.12618   0.18295   0.11395   0.00000  Uiso   1.00
H259   H     0.46811   0.14477   0.20217   0.00000  Uiso   1.00
H260   H     0.93390   0.49005   0.29536   0.00000  Uiso   1.00
H261   H     0.63825   0.36291   0.06773   0.00000  Uiso   1.00
H262   H     0.76662   0.32307   0.02108   0.00000  Uiso   1.00
H263   H     0.45453   0.30496   0.06292   0.00000  Uiso   1.00
H264   H     0.67542   0.46870   0.10711   0.00000  Uiso   1.00
H265   H     0.93750   0.26625   0.98839   0.00000  Uiso   1.00
H266   H     0.27943   0.22808   0.07662   0.00000  Uiso   1.00
H267   H     0.74523   0.57335   0.16981   0.00000  Uiso   1.00
O268   O     0.12024   0.19662   0.02313   0.00000  Uiso   1.00
O269   O     0.25687   0.14655   0.13888   0.00000  Uiso   1.00
O270   O     0.86799   0.59954   0.26114   0.00000  Uiso   1.00
N271   N     0.06417   0.20803   0.09080   0.00000  Uiso   1.00
N272   N     0.44892   0.17233   0.17328   0.00000  Uiso   1.00
N273   N     0.88437   0.49513   0.26041   0.00000  Uiso   1.00
N274   N     0.96265   0.25286   0.02324   0.00000  Uiso   1.00
N275   N     0.34739   0.21716   0.10572   0.00000  Uiso   1.00
N276   N     0.78285   0.53996   0.19285   0.00000  Uiso   1.00
C277   C     0.69185   0.78790   0.31923   0.00000  Uiso   1.00
C278   C     0.64609   0.77685   0.36053   0.00000  Uiso   1.00
C279   C     0.55108   0.74258   0.35763   0.00000  Uiso   1.00
C280   C     0.52317   0.73795   0.39946   0.00000  Uiso   1.00
C281   C     0.44228   0.71642   0.45703   0.00000  Uiso   1.00
C282   C     0.81566   0.76700   0.33780   0.00000  Uiso   1.00
C283   C     0.86321   0.72446   0.31579   0.00000  Uiso   1.00
C284   C     0.97805   0.71155   0.33848   0.00000  Uiso   1.00
C285   C     0.16044   0.67476   0.36076   0.00000  Uiso   1.00
C286   C     0.69564   0.85596   0.31379   0.00000  Uiso   1.00
C287   C     0.64229   0.88823   0.27158   0.00000  Uiso   1.00
C288   C     0.65610   0.95022   0.27406   0.00000  Uiso   1.00
C289   C     0.65213   0.05155   0.25905   0.00000  Uiso   1.00
C290   C     0.81125   0.84062   0.39868   0.00000  Uiso   1.00
C291   C     0.71095   0.80548   0.40368   0.00000  Uiso   1.00
C292   C     0.68318   0.80091   0.44553   0.00000  Uiso   1.00
C293   C     0.58813   0.76664   0.44269   0.00000  Uiso   1.00
C294   C     0.88052   0.79564   0.38096   0.00000  Uiso   1.00
C295   C     0.99531   0.78279   0.40369   0.00000  Uiso   1.00
C296   C     0.04302   0.74024   0.38172   0.00000  Uiso   1.00
C297   C     0.76049   0.88460   0.35695   0.00000  Uiso   1.00
C298   C     0.77439   0.94655   0.35949   0.00000  Uiso   1.00
C299   C     0.72107   0.97890   0.31729   0.00000  Uiso   1.00
H300   H     0.64137   0.76560   0.28563   0.00000  Uiso   1.00
H301   H     0.50092   0.72043   0.32422   0.00000  Uiso   1.00
H302   H     0.81301   0.70232   0.28239   0.00000  Uiso   1.00
H303   H     0.59211   0.86605   0.23819   0.00000  Uiso   1.00
H304   H     0.37382   0.68295   0.38605   0.00000  Uiso   1.00
H305   H     0.03189   0.64477   0.29783   0.00000  Uiso   1.00
H306   H     0.56610   0.99005   0.20464   0.00000  Uiso   1.00
H307   H     0.86175   0.86291   0.43227   0.00000  Uiso   1.00
H308   H     0.73338   0.82307   0.47892   0.00000  Uiso   1.00
H309   H     0.04547   0.80496   0.43708   0.00000  Uiso   1.00
H310   H     0.82458   0.96870   0.39289   0.00000  Uiso   1.00
H311   H     0.56250   0.76625   0.51161   0.00000  Uiso   1.00
H312   H     0.22057   0.72808   0.42338   0.00000  Uiso   1.00
H313   H     0.75477   0.07335   0.33019   0.00000  Uiso   1.00
O314   O     0.37976   0.69662   0.47687   0.00000  Uiso   1.00
O315   O     0.24313   0.64655   0.36112   0.00000  Uiso   1.00
O316   O     0.63201   0.09954   0.23886   0.00000  Uiso   1.00
N317   N     0.43583   0.70803   0.40920   0.00000  Uiso   1.00
N318   N     0.05108   0.67233   0.32672   0.00000  Uiso   1.00
N319   N     0.61563   0.99513   0.23959   0.00000  Uiso   1.00
N320   N     0.53735   0.75286   0.47676   0.00000  Uiso   1.00
N321   N     0.15261   0.71716   0.39428   0.00000  Uiso   1.00
N322   N     0.71715   0.03996   0.30715   0.00000  Uiso   1.00
C323   C     0.19185   0.28790   0.31923   0.00000  Uiso   1.00
C324   C     0.14609   0.27685   0.36053   0.00000  Uiso   1.00
C325   C     0.05108   0.24258   0.35763   0.00000  Uiso   1.00
C326   C     0.02317   0.23795   0.39946   0.00000  Uiso   1.00
C327   C     0.94228   0.21642   0.45703   0.00000  Uiso   1.00
C328   C     0.31566   0.26700   0.33780   0.00000  Uiso   1.00
C329   C     0.36321   0.22446   0.31579   0.00000  Uiso   1.00
C330   C     0.47805   0.21155   0.33848   0.00000  Uiso   1.00
C331   C     0.66044   0.17476   0.36076   0.00000  Uiso   1.00
C332   C     0.19564   0.35596   0.31379   0.00000  Uiso   1.00
C333   C     0.14229   0.38823   0.27158   0.00000  Uiso   1.00
C334   C     0.15610   0.45022   0.27406   0.00000  Uiso   1.00
C335   C     0.15213   0.55155   0.25905   0.00000  Uiso   1.00
C336   C     0.31125   0.34062   0.39868   0.00000  Uiso   1.00
C337   C     0.21095   0.30548   0.40368   0.00000  Uiso   1.00
C338   C     0.18318   0.30091   0.44553   0.00000  Uiso   1.00
C339   C     0.08813   0.26664   0.44269   0.00000  Uiso   1.00
C340   C     0.38052   0.29564   0.38096   0.00000  Uiso   1.00
C341   C     0.49531   0.28279   0.40369   0.00000  Uiso   1.00
C342   C     0.54302   0.24024   0.38172   0.00000  Uiso   1.00
C343   C     0.26049   0.38460   0.35695   0.00000  Uiso   1.00
C344   C     0.27439   0.44655   0.35949   0.00000  Uiso   1.00
C345   C     0.22107   0.47890   0.31729   0.00000  Uiso   1.00
H346   H     0.14137   0.26560   0.28563   0.00000  Uiso   1.00
H347   H     0.00092   0.22043   0.32422   0.00000  Uiso   1.00
H348   H     0.31301   0.20232   0.28239   0.00000  Uiso   1.00
H349   H     0.09211   0.36605   0.23819   0.00000  Uiso   1.00
H350   H     0.87382   0.18295   0.38605   0.00000  Uiso   1.00
H351   H     0.53189   0.14477   0.29783   0.00000  Uiso   1.00
H352   H     0.06610   0.49005   0.20464   0.00000  Uiso   1.00
H353   H     0.36175   0.36291   0.43227   0.00000  Uiso   1.00
H354   H     0.23338   0.32307   0.47892   0.00000  Uiso   1.00
H355   H     0.54547   0.30496   0.43708   0.00000  Uiso   1.00
H356   H     0.32458   0.46870   0.39289   0.00000  Uiso   1.00
H357   H     0.06250   0.26625   0.51161   0.00000  Uiso   1.00
H358   H     0.72057   0.22808   0.42338   0.00000  Uiso   1.00
H359   H     0.25477   0.57335   0.33019   0.00000  Uiso   1.00
O360   O     0.87976   0.19662   0.47687   0.00000  Uiso   1.00
O361   O     0.74313   0.14655   0.36112   0.00000  Uiso   1.00
O362   O     0.13201   0.59954   0.23886   0.00000  Uiso   1.00
N363   N     0.93583   0.20803   0.40920   0.00000  Uiso   1.00
N364   N     0.55108   0.17233   0.32672   0.00000  Uiso   1.00
N365   N     0.11563   0.49513   0.23959   0.00000  Uiso   1.00
N366   N     0.03735   0.25286   0.47676   0.00000  Uiso   1.00
N367   N     0.65261   0.21716   0.39428   0.00000  Uiso   1.00
N368   N     0.21715   0.53996   0.30715   0.00000  Uiso   1.00
