data_job_01995
_audit_creation_date              2018-12-19
_audit_creation_method            'Materials Studio'
_symmetry_space_group_name_H-M    'P1'
_symmetry_Int_Tables_number       1
_symmetry_cell_setting            triclinic
loop_
_symmetry_equiv_pos_as_xyz
  x,y,z
_cell_length_a                    24.1654
_cell_length_b                    21.2592
_cell_length_c                    14.3877
_cell_angle_alpha                 90.0000
_cell_angle_beta                  90.0000
_cell_angle_gamma                 90.0000
loop_
_atom_site_label
_atom_site_type_symbol
_atom_site_fract_x
_atom_site_fract_y
_atom_site_fract_z
_atom_site_U_iso_or_equiv
_atom_site_adp_type
_atom_site_occupancy
C1     C     0.23364   0.15710   0.21279   0.00000  Uiso   1.00
C2     C     0.17411   0.13562   0.19766   0.00000  Uiso   1.00
C3     C     0.13791   0.11573   0.26652   0.00000  Uiso   1.00
C4     C     0.08519   0.09798   0.23849   0.00000  Uiso   1.00
C5     C     0.99518   0.06428   0.22922   0.00000  Uiso   1.00
C6     C     0.26936   0.11526   0.15104   0.00000  Uiso   1.00
C7     C     0.31325   0.07826   0.18071   0.00000  Uiso   1.00
C8     C     0.34072   0.04338   0.11343   0.00000  Uiso   1.00
C9     C     0.39862   0.97811   0.03178   0.00000  Uiso   1.00
C10    C     0.23741   0.22306   0.17162   0.00000  Uiso   1.00
C11    C     0.25446   0.27668   0.21859   0.00000  Uiso   1.00
C12    C     0.25505   0.33256   0.16863   0.00000  Uiso   1.00
C13    C     0.26334   0.43465   0.11895   0.00000  Uiso   1.00
C14    C     0.20440   0.16097   0.04054   0.00000  Uiso   1.00
C15    C     0.15823   0.13772   0.10410   0.00000  Uiso   1.00
C16    C     0.10556   0.12000   0.07595   0.00000  Uiso   1.00
C17    C     0.06928   0.10008   0.14476   0.00000  Uiso   1.00
C18    C     0.25348   0.11736   0.05748   0.00000  Uiso   1.00
C19    C     0.28090   0.08254   0.99014   0.00000  Uiso   1.00
C20    C     0.32481   0.04548   0.01970   0.00000  Uiso   1.00
C21    C     0.22153   0.22516   0.07807   0.00000  Uiso   1.00
C22    C     0.22210   0.28096   0.02802   0.00000  Uiso   1.00
C23    C     0.23914   0.33466   0.07491   0.00000  Uiso   1.00
H24    H     0.24600   0.15546   0.28562   0.00000  Uiso   1.00
H25    H     0.15021   0.11410   0.33892   0.00000  Uiso   1.00
H26    H     0.32553   0.07665   0.25311   0.00000  Uiso   1.00
H27    H     0.26674   0.27504   0.29099   0.00000  Uiso   1.00
H28    H     0.03701   0.06915   0.35674   0.00000  Uiso   1.00
H29    H     0.40669   0.99019   0.17582   0.00000  Uiso   1.00
H30    H     0.28273   0.40854   0.25569   0.00000  Uiso   1.00
H31    H     0.19203   0.16260   0.96770   0.00000  Uiso   1.00
H32    H     0.09328   0.12163   0.00354   0.00000  Uiso   1.00
H33    H     0.26860   0.08417   0.91775   0.00000  Uiso   1.00
H34    H     0.20981   0.28257   0.95562   0.00000  Uiso   1.00
H35    H     0.99080   0.07526   0.08454   0.00000  Uiso   1.00
H36    H     0.36049   0.99630   0.90362   0.00000  Uiso   1.00
H37    H     0.23652   0.41465   0.98349   0.00000  Uiso   1.00
O38    O     0.94992   0.04510   0.24995   0.00000  Uiso   1.00
O39    O     0.43493   0.94152   0.01259   0.00000  Uiso   1.00
O40    O     0.27230   0.49039   0.11739   0.00000  Uiso   1.00
N41    N     0.03969   0.07622   0.28776   0.00000  Uiso   1.00
N42    N     0.38531   0.00239   0.11861   0.00000  Uiso   1.00
N43    N     0.26943   0.39351   0.19328   0.00000  Uiso   1.00
N44    N     0.01482   0.07951   0.14129   0.00000  Uiso   1.00
N45    N     0.36044   0.00568   0.97214   0.00000  Uiso   1.00
N46    N     0.24457   0.39680   0.04681   0.00000  Uiso   1.00
C47    C     0.76961   0.21535   0.78317   0.00000  Uiso   1.00
C48    C     0.82923   0.19363   0.79650   0.00000  Uiso   1.00
C49    C     0.86444   0.17296   0.72668   0.00000  Uiso   1.00
C50    C     0.91742   0.15512   0.75309   0.00000  Uiso   1.00
C51    C     0.00738   0.12094   0.75966   0.00000  Uiso   1.00
C52    C     0.73451   0.17422   0.84693   0.00000  Uiso   1.00
C53    C     0.69008   0.13725   0.81951   0.00000  Uiso   1.00
C54    C     0.66333   0.10307   0.88838   0.00000  Uiso   1.00
C55    C     0.60621   0.03880   0.97325   0.00000  Uiso   1.00
C56    C     0.76667   0.28165   0.82331   0.00000  Uiso   1.00
C57    C     0.74926   0.33500   0.77605   0.00000  Uiso   1.00
C58    C     0.74957   0.39127   0.82505   0.00000  Uiso   1.00
C59    C     0.74239   0.49380   0.87325   0.00000  Uiso   1.00
C60    C     0.80110   0.22039   0.95423   0.00000  Uiso   1.00
C61    C     0.84633   0.19636   0.88942   0.00000  Uiso   1.00
C62    C     0.89927   0.17854   0.91594   0.00000  Uiso   1.00
C63    C     0.93455   0.15786   0.84617   0.00000  Uiso   1.00
C64    C     0.75161   0.17696   0.93984   0.00000  Uiso   1.00
C65    C     0.72492   0.14283   0.00877   0.00000  Uiso   1.00
C66    C     0.68046   0.10582   0.98146   0.00000  Uiso   1.00
C67    C     0.78377   0.28439   0.91623   0.00000  Uiso   1.00
C68    C     0.78410   0.34058   0.96531   0.00000  Uiso   1.00
C69    C     0.76670   0.39401   0.91813   0.00000  Uiso   1.00
H70    H     0.75630   0.21321   0.71084   0.00000  Uiso   1.00
H71    H     0.85119   0.17085   0.65479   0.00000  Uiso   1.00
H72    H     0.67686   0.13514   0.74761   0.00000  Uiso   1.00
H73    H     0.73603   0.33286   0.70415   0.00000  Uiso   1.00
H74    H     0.96392   0.12506   0.63362   0.00000  Uiso   1.00
H75    H     0.59633   0.04980   0.82934   0.00000  Uiso   1.00
H76    H     0.72111   0.46673   0.73771   0.00000  Uiso   1.00
H77    H     0.81441   0.22252   0.02657   0.00000  Uiso   1.00
H78    H     0.91249   0.18067   0.98785   0.00000  Uiso   1.00
H79    H     0.73816   0.14496   0.08066   0.00000  Uiso   1.00
H80    H     0.79734   0.34268   0.03721   0.00000  Uiso   1.00
H81    H     0.01368   0.13303   0.90395   0.00000  Uiso   1.00
H82    H     0.64608   0.05777   0.09966   0.00000  Uiso   1.00
H83    H     0.77087   0.47470   0.00803   0.00000  Uiso   1.00
O84    O     0.05227   0.10132   0.73762   0.00000  Uiso   1.00
O85    O     0.56999   0.00259   0.99439   0.00000  Uiso   1.00
O86    O     0.73371   0.54960   0.87417   0.00000  Uiso   1.00
N87    N     0.96218   0.13269   0.70256   0.00000  Uiso   1.00
N88    N     0.61850   0.06232   0.88554   0.00000  Uiso   1.00
N89    N     0.73515   0.45211   0.79987   0.00000  Uiso   1.00
N90    N     0.98895   0.13698   0.84802   0.00000  Uiso   1.00
N91    N     0.64528   0.06661   0.03100   0.00000  Uiso   1.00
N92    N     0.76192   0.45640   0.94533   0.00000  Uiso   1.00
C93    C     0.76636   0.84290   0.71279   0.00000  Uiso   1.00
C94    C     0.82589   0.86438   0.69766   0.00000  Uiso   1.00
C95    C     0.86209   0.88427   0.76652   0.00000  Uiso   1.00
C96    C     0.91481   0.90202   0.73849   0.00000  Uiso   1.00
C97    C     0.00482   0.93572   0.72922   0.00000  Uiso   1.00
C98    C     0.73064   0.88474   0.65104   0.00000  Uiso   1.00
C99    C     0.68675   0.92174   0.68071   0.00000  Uiso   1.00
C100   C     0.65928   0.95662   0.61343   0.00000  Uiso   1.00
C101   C     0.60138   0.02189   0.53178   0.00000  Uiso   1.00
C102   C     0.76259   0.77694   0.67162   0.00000  Uiso   1.00
C103   C     0.74554   0.72332   0.71859   0.00000  Uiso   1.00
C104   C     0.74495   0.66744   0.66863   0.00000  Uiso   1.00
C105   C     0.73666   0.56535   0.61895   0.00000  Uiso   1.00
C106   C     0.79560   0.83903   0.54054   0.00000  Uiso   1.00
C107   C     0.84177   0.86228   0.60410   0.00000  Uiso   1.00
C108   C     0.89444   0.88000   0.57595   0.00000  Uiso   1.00
C109   C     0.93072   0.89992   0.64476   0.00000  Uiso   1.00
C110   C     0.74652   0.88264   0.55748   0.00000  Uiso   1.00
C111   C     0.71910   0.91746   0.49014   0.00000  Uiso   1.00
C112   C     0.67519   0.95452   0.51970   0.00000  Uiso   1.00
C113   C     0.77847   0.77484   0.57807   0.00000  Uiso   1.00
C114   C     0.77790   0.71904   0.52802   0.00000  Uiso   1.00
C115   C     0.76086   0.66534   0.57491   0.00000  Uiso   1.00
H116   H     0.75400   0.84454   0.78562   0.00000  Uiso   1.00
H117   H     0.84979   0.88590   0.83892   0.00000  Uiso   1.00
H118   H     0.67447   0.92335   0.75311   0.00000  Uiso   1.00
H119   H     0.73326   0.72496   0.79099   0.00000  Uiso   1.00
H120   H     0.96299   0.93085   0.85674   0.00000  Uiso   1.00
H121   H     0.59331   0.00981   0.67582   0.00000  Uiso   1.00
H122   H     0.71727   0.59146   0.75569   0.00000  Uiso   1.00
H123   H     0.80797   0.83740   0.46770   0.00000  Uiso   1.00
H124   H     0.90672   0.87837   0.50354   0.00000  Uiso   1.00
H125   H     0.73140   0.91583   0.41775   0.00000  Uiso   1.00
H126   H     0.79019   0.71743   0.45562   0.00000  Uiso   1.00
H127   H     0.00920   0.92474   0.58454   0.00000  Uiso   1.00
H128   H     0.63951   0.00370   0.40362   0.00000  Uiso   1.00
H129   H     0.76348   0.58535   0.48349   0.00000  Uiso   1.00
O130   O     0.05008   0.95490   0.74995   0.00000  Uiso   1.00
O131   O     0.56507   0.05848   0.51259   0.00000  Uiso   1.00
O132   O     0.72770   0.50961   0.61739   0.00000  Uiso   1.00
N133   N     0.96031   0.92378   0.78776   0.00000  Uiso   1.00
N134   N     0.61469   0.99761   0.61861   0.00000  Uiso   1.00
N135   N     0.73057   0.60649   0.69328   0.00000  Uiso   1.00
N136   N     0.98518   0.92049   0.64129   0.00000  Uiso   1.00
N137   N     0.63956   0.99432   0.47214   0.00000  Uiso   1.00
N138   N     0.75543   0.60320   0.54681   0.00000  Uiso   1.00
C139   C     0.23039   0.78465   0.28317   0.00000  Uiso   1.00
C140   C     0.17077   0.80637   0.29650   0.00000  Uiso   1.00
C141   C     0.13556   0.82704   0.22668   0.00000  Uiso   1.00
C142   C     0.08258   0.84488   0.25309   0.00000  Uiso   1.00
C143   C     0.99262   0.87906   0.25966   0.00000  Uiso   1.00
C144   C     0.26549   0.82578   0.34693   0.00000  Uiso   1.00
C145   C     0.30992   0.86275   0.31951   0.00000  Uiso   1.00
C146   C     0.33667   0.89693   0.38838   0.00000  Uiso   1.00
C147   C     0.39379   0.96120   0.47325   0.00000  Uiso   1.00
C148   C     0.23333   0.71835   0.32331   0.00000  Uiso   1.00
C149   C     0.25074   0.66500   0.27605   0.00000  Uiso   1.00
C150   C     0.25043   0.60873   0.32505   0.00000  Uiso   1.00
C151   C     0.25761   0.50620   0.37325   0.00000  Uiso   1.00
C152   C     0.19890   0.77961   0.45423   0.00000  Uiso   1.00
C153   C     0.15367   0.80364   0.38942   0.00000  Uiso   1.00
C154   C     0.10073   0.82146   0.41594   0.00000  Uiso   1.00
C155   C     0.06545   0.84214   0.34617   0.00000  Uiso   1.00
C156   C     0.24839   0.82304   0.43984   0.00000  Uiso   1.00
C157   C     0.27508   0.85717   0.50877   0.00000  Uiso   1.00
C158   C     0.31954   0.89418   0.48146   0.00000  Uiso   1.00
C159   C     0.21623   0.71561   0.41623   0.00000  Uiso   1.00
C160   C     0.21590   0.65942   0.46531   0.00000  Uiso   1.00
C161   C     0.23330   0.60599   0.41813   0.00000  Uiso   1.00
H162   H     0.24370   0.78679   0.21084   0.00000  Uiso   1.00
H163   H     0.14881   0.82915   0.15479   0.00000  Uiso   1.00
H164   H     0.32314   0.86486   0.24761   0.00000  Uiso   1.00
H165   H     0.26397   0.66714   0.20415   0.00000  Uiso   1.00
H166   H     0.03608   0.87494   0.13362   0.00000  Uiso   1.00
H167   H     0.40367   0.95020   0.32934   0.00000  Uiso   1.00
H168   H     0.27889   0.53327   0.23771   0.00000  Uiso   1.00
H169   H     0.18559   0.77748   0.52657   0.00000  Uiso   1.00
H170   H     0.08751   0.81933   0.48785   0.00000  Uiso   1.00
H171   H     0.26184   0.85504   0.58066   0.00000  Uiso   1.00
H172   H     0.20266   0.65732   0.53721   0.00000  Uiso   1.00
H173   H     0.98632   0.86697   0.40395   0.00000  Uiso   1.00
H174   H     0.35392   0.94223   0.59966   0.00000  Uiso   1.00
H175   H     0.22913   0.52530   0.50803   0.00000  Uiso   1.00
O176   O     0.94773   0.89868   0.23762   0.00000  Uiso   1.00
O177   O     0.43001   0.99741   0.49439   0.00000  Uiso   1.00
O178   O     0.26629   0.45040   0.37417   0.00000  Uiso   1.00
N179   N     0.03782   0.86731   0.20256   0.00000  Uiso   1.00
N180   N     0.38150   0.93768   0.38554   0.00000  Uiso   1.00
N181   N     0.26485   0.54789   0.29987   0.00000  Uiso   1.00
N182   N     0.01105   0.86302   0.34802   0.00000  Uiso   1.00
N183   N     0.35472   0.93339   0.53100   0.00000  Uiso   1.00
N184   N     0.23808   0.54360   0.44533   0.00000  Uiso   1.00
C185   C     0.73364   0.84290   0.21279   0.00000  Uiso   1.00
C186   C     0.67411   0.86438   0.19766   0.00000  Uiso   1.00
C187   C     0.63791   0.88427   0.26652   0.00000  Uiso   1.00
C188   C     0.58519   0.90202   0.23849   0.00000  Uiso   1.00
C189   C     0.49518   0.93572   0.22922   0.00000  Uiso   1.00
C190   C     0.76936   0.88474   0.15104   0.00000  Uiso   1.00
C191   C     0.81325   0.92174   0.18071   0.00000  Uiso   1.00
C192   C     0.84072   0.95662   0.11343   0.00000  Uiso   1.00
C193   C     0.89862   0.02189   0.03178   0.00000  Uiso   1.00
C194   C     0.73741   0.77694   0.17162   0.00000  Uiso   1.00
C195   C     0.75446   0.72332   0.21859   0.00000  Uiso   1.00
C196   C     0.75505   0.66744   0.16863   0.00000  Uiso   1.00
C197   C     0.76334   0.56535   0.11895   0.00000  Uiso   1.00
C198   C     0.70440   0.83903   0.04054   0.00000  Uiso   1.00
C199   C     0.65823   0.86228   0.10410   0.00000  Uiso   1.00
C200   C     0.60556   0.88000   0.07595   0.00000  Uiso   1.00
C201   C     0.56928   0.89992   0.14476   0.00000  Uiso   1.00
C202   C     0.75348   0.88264   0.05748   0.00000  Uiso   1.00
C203   C     0.78090   0.91746   0.99014   0.00000  Uiso   1.00
C204   C     0.82481   0.95452   0.01970   0.00000  Uiso   1.00
C205   C     0.72153   0.77484   0.07807   0.00000  Uiso   1.00
C206   C     0.72210   0.71904   0.02802   0.00000  Uiso   1.00
C207   C     0.73914   0.66534   0.07491   0.00000  Uiso   1.00
H208   H     0.74600   0.84454   0.28562   0.00000  Uiso   1.00
H209   H     0.65021   0.88590   0.33892   0.00000  Uiso   1.00
H210   H     0.82553   0.92335   0.25311   0.00000  Uiso   1.00
H211   H     0.76674   0.72496   0.29099   0.00000  Uiso   1.00
H212   H     0.53701   0.93085   0.35674   0.00000  Uiso   1.00
H213   H     0.90669   0.00981   0.17582   0.00000  Uiso   1.00
H214   H     0.78273   0.59146   0.25569   0.00000  Uiso   1.00
H215   H     0.69203   0.83740   0.96770   0.00000  Uiso   1.00
H216   H     0.59328   0.87837   0.00354   0.00000  Uiso   1.00
H217   H     0.76860   0.91583   0.91775   0.00000  Uiso   1.00
H218   H     0.70981   0.71743   0.95562   0.00000  Uiso   1.00
H219   H     0.49080   0.92474   0.08454   0.00000  Uiso   1.00
H220   H     0.86049   0.00370   0.90362   0.00000  Uiso   1.00
H221   H     0.73652   0.58535   0.98349   0.00000  Uiso   1.00
O222   O     0.44992   0.95490   0.24995   0.00000  Uiso   1.00
O223   O     0.93493   0.05848   0.01259   0.00000  Uiso   1.00
O224   O     0.77230   0.50961   0.11739   0.00000  Uiso   1.00
N225   N     0.53969   0.92378   0.28776   0.00000  Uiso   1.00
N226   N     0.88531   0.99761   0.11861   0.00000  Uiso   1.00
N227   N     0.76943   0.60649   0.19328   0.00000  Uiso   1.00
N228   N     0.51482   0.92049   0.14129   0.00000  Uiso   1.00
N229   N     0.86044   0.99432   0.97214   0.00000  Uiso   1.00
N230   N     0.74457   0.60320   0.04681   0.00000  Uiso   1.00
C231   C     0.26961   0.78465   0.78317   0.00000  Uiso   1.00
C232   C     0.32923   0.80637   0.79650   0.00000  Uiso   1.00
C233   C     0.36444   0.82704   0.72668   0.00000  Uiso   1.00
C234   C     0.41742   0.84488   0.75309   0.00000  Uiso   1.00
C235   C     0.50738   0.87906   0.75966   0.00000  Uiso   1.00
C236   C     0.23451   0.82578   0.84693   0.00000  Uiso   1.00
C237   C     0.19008   0.86275   0.81951   0.00000  Uiso   1.00
C238   C     0.16333   0.89693   0.88838   0.00000  Uiso   1.00
C239   C     0.10621   0.96120   0.97325   0.00000  Uiso   1.00
C240   C     0.26667   0.71835   0.82331   0.00000  Uiso   1.00
C241   C     0.24926   0.66500   0.77605   0.00000  Uiso   1.00
C242   C     0.24957   0.60873   0.82505   0.00000  Uiso   1.00
C243   C     0.24239   0.50620   0.87325   0.00000  Uiso   1.00
C244   C     0.30110   0.77961   0.95423   0.00000  Uiso   1.00
C245   C     0.34633   0.80364   0.88942   0.00000  Uiso   1.00
C246   C     0.39927   0.82146   0.91594   0.00000  Uiso   1.00
C247   C     0.43455   0.84214   0.84617   0.00000  Uiso   1.00
C248   C     0.25161   0.82304   0.93984   0.00000  Uiso   1.00
C249   C     0.22492   0.85717   0.00877   0.00000  Uiso   1.00
C250   C     0.18046   0.89418   0.98146   0.00000  Uiso   1.00
C251   C     0.28377   0.71561   0.91623   0.00000  Uiso   1.00
C252   C     0.28410   0.65942   0.96531   0.00000  Uiso   1.00
C253   C     0.26670   0.60599   0.91813   0.00000  Uiso   1.00
H254   H     0.25630   0.78679   0.71084   0.00000  Uiso   1.00
H255   H     0.35119   0.82915   0.65479   0.00000  Uiso   1.00
H256   H     0.17686   0.86486   0.74761   0.00000  Uiso   1.00
H257   H     0.23603   0.66714   0.70415   0.00000  Uiso   1.00
H258   H     0.46392   0.87494   0.63362   0.00000  Uiso   1.00
H259   H     0.09633   0.95020   0.82934   0.00000  Uiso   1.00
H260   H     0.22111   0.53327   0.73771   0.00000  Uiso   1.00
H261   H     0.31441   0.77748   0.02657   0.00000  Uiso   1.00
H262   H     0.41249   0.81933   0.98785   0.00000  Uiso   1.00
H263   H     0.23816   0.85504   0.08066   0.00000  Uiso   1.00
H264   H     0.29734   0.65732   0.03721   0.00000  Uiso   1.00
H265   H     0.51368   0.86697   0.90395   0.00000  Uiso   1.00
H266   H     0.14608   0.94223   0.09966   0.00000  Uiso   1.00
H267   H     0.27087   0.52530   0.00803   0.00000  Uiso   1.00
O268   O     0.55227   0.89868   0.73762   0.00000  Uiso   1.00
O269   O     0.06999   0.99741   0.99439   0.00000  Uiso   1.00
O270   O     0.23371   0.45040   0.87417   0.00000  Uiso   1.00
N271   N     0.46218   0.86731   0.70256   0.00000  Uiso   1.00
N272   N     0.11850   0.93768   0.88554   0.00000  Uiso   1.00
N273   N     0.23515   0.54789   0.79987   0.00000  Uiso   1.00
N274   N     0.48895   0.86302   0.84802   0.00000  Uiso   1.00
N275   N     0.14528   0.93339   0.03100   0.00000  Uiso   1.00
N276   N     0.26192   0.54360   0.94533   0.00000  Uiso   1.00
C277   C     0.26636   0.15710   0.71279   0.00000  Uiso   1.00
C278   C     0.32589   0.13562   0.69766   0.00000  Uiso   1.00
C279   C     0.36209   0.11573   0.76652   0.00000  Uiso   1.00
C280   C     0.41481   0.09798   0.73849   0.00000  Uiso   1.00
C281   C     0.50482   0.06428   0.72922   0.00000  Uiso   1.00
C282   C     0.23064   0.11526   0.65104   0.00000  Uiso   1.00
C283   C     0.18675   0.07826   0.68071   0.00000  Uiso   1.00
C284   C     0.15928   0.04338   0.61343   0.00000  Uiso   1.00
C285   C     0.10138   0.97811   0.53178   0.00000  Uiso   1.00
C286   C     0.26259   0.22306   0.67162   0.00000  Uiso   1.00
C287   C     0.24554   0.27668   0.71859   0.00000  Uiso   1.00
C288   C     0.24495   0.33256   0.66863   0.00000  Uiso   1.00
C289   C     0.23666   0.43465   0.61895   0.00000  Uiso   1.00
C290   C     0.29560   0.16097   0.54054   0.00000  Uiso   1.00
C291   C     0.34177   0.13772   0.60410   0.00000  Uiso   1.00
C292   C     0.39444   0.12000   0.57595   0.00000  Uiso   1.00
C293   C     0.43072   0.10008   0.64476   0.00000  Uiso   1.00
C294   C     0.24652   0.11736   0.55748   0.00000  Uiso   1.00
C295   C     0.21910   0.08254   0.49014   0.00000  Uiso   1.00
C296   C     0.17519   0.04548   0.51970   0.00000  Uiso   1.00
C297   C     0.27847   0.22516   0.57807   0.00000  Uiso   1.00
C298   C     0.27790   0.28096   0.52802   0.00000  Uiso   1.00
C299   C     0.26086   0.33466   0.57491   0.00000  Uiso   1.00
H300   H     0.25400   0.15546   0.78562   0.00000  Uiso   1.00
H301   H     0.34979   0.11410   0.83892   0.00000  Uiso   1.00
H302   H     0.17447   0.07665   0.75311   0.00000  Uiso   1.00
H303   H     0.23326   0.27504   0.79099   0.00000  Uiso   1.00
H304   H     0.46299   0.06915   0.85674   0.00000  Uiso   1.00
H305   H     0.09331   0.99019   0.67582   0.00000  Uiso   1.00
H306   H     0.21727   0.40854   0.75569   0.00000  Uiso   1.00
H307   H     0.30797   0.16260   0.46770   0.00000  Uiso   1.00
H308   H     0.40672   0.12163   0.50354   0.00000  Uiso   1.00
H309   H     0.23140   0.08417   0.41775   0.00000  Uiso   1.00
H310   H     0.29019   0.28257   0.45562   0.00000  Uiso   1.00
H311   H     0.50920   0.07526   0.58454   0.00000  Uiso   1.00
H312   H     0.13951   0.99630   0.40362   0.00000  Uiso   1.00
H313   H     0.26348   0.41465   0.48349   0.00000  Uiso   1.00
O314   O     0.55008   0.04510   0.74995   0.00000  Uiso   1.00
O315   O     0.06507   0.94152   0.51259   0.00000  Uiso   1.00
O316   O     0.22770   0.49039   0.61739   0.00000  Uiso   1.00
N317   N     0.46031   0.07622   0.78776   0.00000  Uiso   1.00
N318   N     0.11469   0.00239   0.61861   0.00000  Uiso   1.00
N319   N     0.23057   0.39351   0.69328   0.00000  Uiso   1.00
N320   N     0.48518   0.07951   0.64129   0.00000  Uiso   1.00
N321   N     0.13956   0.00568   0.47214   0.00000  Uiso   1.00
N322   N     0.25543   0.39680   0.54681   0.00000  Uiso   1.00
C323   C     0.73039   0.21535   0.28317   0.00000  Uiso   1.00
C324   C     0.67077   0.19363   0.29650   0.00000  Uiso   1.00
C325   C     0.63556   0.17296   0.22668   0.00000  Uiso   1.00
C326   C     0.58258   0.15512   0.25309   0.00000  Uiso   1.00
C327   C     0.49262   0.12094   0.25966   0.00000  Uiso   1.00
C328   C     0.76549   0.17422   0.34693   0.00000  Uiso   1.00
C329   C     0.80992   0.13725   0.31951   0.00000  Uiso   1.00
C330   C     0.83667   0.10307   0.38838   0.00000  Uiso   1.00
C331   C     0.89379   0.03880   0.47325   0.00000  Uiso   1.00
C332   C     0.73333   0.28165   0.32331   0.00000  Uiso   1.00
C333   C     0.75074   0.33500   0.27605   0.00000  Uiso   1.00
C334   C     0.75043   0.39127   0.32505   0.00000  Uiso   1.00
C335   C     0.75761   0.49380   0.37325   0.00000  Uiso   1.00
C336   C     0.69890   0.22039   0.45423   0.00000  Uiso   1.00
C337   C     0.65367   0.19636   0.38942   0.00000  Uiso   1.00
C338   C     0.60073   0.17854   0.41594   0.00000  Uiso   1.00
C339   C     0.56545   0.15786   0.34617   0.00000  Uiso   1.00
C340   C     0.74839   0.17696   0.43984   0.00000  Uiso   1.00
C341   C     0.77508   0.14283   0.50877   0.00000  Uiso   1.00
C342   C     0.81954   0.10582   0.48146   0.00000  Uiso   1.00
C343   C     0.71623   0.28439   0.41623   0.00000  Uiso   1.00
C344   C     0.71590   0.34058   0.46531   0.00000  Uiso   1.00
C345   C     0.73330   0.39401   0.41813   0.00000  Uiso   1.00
H346   H     0.74370   0.21321   0.21084   0.00000  Uiso   1.00
H347   H     0.64881   0.17085   0.15479   0.00000  Uiso   1.00
H348   H     0.82314   0.13514   0.24761   0.00000  Uiso   1.00
H349   H     0.76397   0.33286   0.20415   0.00000  Uiso   1.00
H350   H     0.53608   0.12506   0.13362   0.00000  Uiso   1.00
H351   H     0.90367   0.04980   0.32934   0.00000  Uiso   1.00
H352   H     0.77889   0.46673   0.23771   0.00000  Uiso   1.00
H353   H     0.68559   0.22252   0.52657   0.00000  Uiso   1.00
H354   H     0.58751   0.18067   0.48785   0.00000  Uiso   1.00
H355   H     0.76184   0.14496   0.58066   0.00000  Uiso   1.00
H356   H     0.70266   0.34268   0.53721   0.00000  Uiso   1.00
H357   H     0.48632   0.13303   0.40395   0.00000  Uiso   1.00
H358   H     0.85392   0.05777   0.59966   0.00000  Uiso   1.00
H359   H     0.72913   0.47470   0.50803   0.00000  Uiso   1.00
O360   O     0.44773   0.10132   0.23762   0.00000  Uiso   1.00
O361   O     0.93001   0.00259   0.49439   0.00000  Uiso   1.00
O362   O     0.76629   0.54960   0.37417   0.00000  Uiso   1.00
N363   N     0.53782   0.13269   0.20256   0.00000  Uiso   1.00
N364   N     0.88150   0.06232   0.38554   0.00000  Uiso   1.00
N365   N     0.76485   0.45211   0.29987   0.00000  Uiso   1.00
N366   N     0.51105   0.13698   0.34802   0.00000  Uiso   1.00
N367   N     0.85472   0.06661   0.53100   0.00000  Uiso   1.00
N368   N     0.73808   0.45640   0.44533   0.00000  Uiso   1.00
