data_job_05218
_audit_creation_date              2018-12-19
_audit_creation_method            'Materials Studio'
_symmetry_space_group_name_H-M    'P1'
_symmetry_Int_Tables_number       1
_symmetry_cell_setting            triclinic
loop_
_symmetry_equiv_pos_as_xyz
  x,y,z
_cell_length_a                    12.2039
_cell_length_b                    41.3186
_cell_length_c                    16.0777
_cell_angle_alpha                 90.0000
_cell_angle_beta                  90.0000
_cell_angle_gamma                 90.0000
loop_
_atom_site_label
_atom_site_type_symbol
_atom_site_fract_x
_atom_site_fract_y
_atom_site_fract_z
_atom_site_U_iso_or_equiv
_atom_site_adp_type
_atom_site_occupancy
C1     C     0.94018   0.66587   0.85693   0.00000  Uiso   1.00
C2     C     0.05626   0.67814   0.84156   0.00000  Uiso   1.00
C3     C     0.12265   0.69337   0.89970   0.00000  Uiso   1.00
C4     C     0.22624   0.70278   0.87344   0.00000  Uiso   1.00
C5     C     0.40106   0.72269   0.86198   0.00000  Uiso   1.00
C6     C     0.94131   0.63002   0.83440   0.00000  Uiso   1.00
C7     C     0.91104   0.60478   0.88651   0.00000  Uiso   1.00
C8     C     0.91786   0.57368   0.85421   0.00000  Uiso   1.00
C9     C     0.91415   0.51887   0.83161   0.00000  Uiso   1.00
C10    C     0.86812   0.68234   0.79203   0.00000  Uiso   1.00
C11    C     0.77629   0.70108   0.80852   0.00000  Uiso   1.00
C12    C     0.72146   0.71403   0.74055   0.00000  Uiso   1.00
C13    C     0.60411   0.74045   0.65217   0.00000  Uiso   1.00
C14    C     0.00608   0.65551   0.70691   0.00000  Uiso   1.00
C15    C     0.09205   0.67252   0.76007   0.00000  Uiso   1.00
C16    C     0.19556   0.68192   0.73372   0.00000  Uiso   1.00
C17    C     0.26210   0.69715   0.79181   0.00000  Uiso   1.00
C18    C     0.97711   0.62439   0.75291   0.00000  Uiso   1.00
C19    C     0.98396   0.59332   0.72053   0.00000  Uiso   1.00
C20    C     0.95372   0.56804   0.77258   0.00000  Uiso   1.00
C21    C     0.90392   0.67672   0.71054   0.00000  Uiso   1.00
C22    C     0.84921   0.68963   0.64254   0.00000  Uiso   1.00
C23    C     0.75732   0.70839   0.65892   0.00000  Uiso   1.00
H24    H     0.91231   0.67024   0.92037   0.00000  Uiso   1.00
H25    H     0.09492   0.69771   0.96276   0.00000  Uiso   1.00
H26    H     0.88334   0.60914   0.94956   0.00000  Uiso   1.00
H27    H     0.74862   0.70543   0.87159   0.00000  Uiso   1.00
H28    H     0.31319   0.72568   0.97382   0.00000  Uiso   1.00
H29    H     0.86702   0.53891   0.94600   0.00000  Uiso   1.00
H30    H     0.58292   0.74196   0.78157   0.00000  Uiso   1.00
H31    H     0.03395   0.65113   0.64346   0.00000  Uiso   1.00
H32    H     0.22324   0.67756   0.67065   0.00000  Uiso   1.00
H33    H     0.01166   0.58898   0.65747   0.00000  Uiso   1.00
H34    H     0.87693   0.68527   0.57949   0.00000  Uiso   1.00
H35    H     0.41734   0.70932   0.73674   0.00000  Uiso   1.00
H36    H     0.97116   0.52255   0.70892   0.00000  Uiso   1.00
H37    H     0.68707   0.72560   0.54449   0.00000  Uiso   1.00
O38    O     0.48761   0.73522   0.87817   0.00000  Uiso   1.00
O39    O     0.90222   0.49019   0.84166   0.00000  Uiso   1.00
O40    O     0.52950   0.75658   0.62594   0.00000  Uiso   1.00
N41    N     0.31171   0.71821   0.91429   0.00000  Uiso   1.00
N42    N     0.89459   0.54359   0.88828   0.00000  Uiso   1.00
N43    N     0.62896   0.73342   0.73455   0.00000  Uiso   1.00
N44    N     0.36775   0.70941   0.78672   0.00000  Uiso   1.00
N45    N     0.95063   0.53479   0.76071   0.00000  Uiso   1.00
N46    N     0.68500   0.72462   0.60698   0.00000  Uiso   1.00
C47    C     0.10589   0.32162   0.64957   0.00000  Uiso   1.00
C48    C     0.22851   0.31459   0.65234   0.00000  Uiso   1.00
C49    C     0.28886   0.29971   0.58998   0.00000  Uiso   1.00
C50    C     0.40010   0.29548   0.60443   0.00000  Uiso   1.00
C51    C     0.58305   0.28302   0.59743   0.00000  Uiso   1.00
C52    C     0.09401   0.35793   0.66381   0.00000  Uiso   1.00
C53    C     0.04126   0.37949   0.61109   0.00000  Uiso   1.00
C54    C     0.03928   0.41175   0.63520   0.00000  Uiso   1.00
C55    C     0.01335   0.46658   0.64604   0.00000  Uiso   1.00
C56    C     0.05700   0.30532   0.72614   0.00000  Uiso   1.00
C57    C     0.97311   0.28264   0.72585   0.00000  Uiso   1.00
C58    C     0.93995   0.27061   0.80245   0.00000  Uiso   1.00
C59    C     0.85655   0.24374   0.91007   0.00000  Uiso   1.00
C60    C     0.19613   0.34058   0.78613   0.00000  Uiso   1.00
C61    C     0.27752   0.32489   0.72651   0.00000  Uiso   1.00
C62    C     0.38870   0.32069   0.74107   0.00000  Uiso   1.00
C63    C     0.44921   0.30580   0.67874   0.00000  Uiso   1.00
C64    C     0.14302   0.36823   0.73798   0.00000  Uiso   1.00
C65    C     0.14111   0.40047   0.76218   0.00000  Uiso   1.00
C66    C     0.08838   0.42207   0.70951   0.00000  Uiso   1.00
C67    C     0.10602   0.31562   0.80032   0.00000  Uiso   1.00
C68    C     0.07296   0.30362   0.87694   0.00000  Uiso   1.00
C69    C     0.98905   0.28092   0.87676   0.00000  Uiso   1.00
H70    H     0.06773   0.31360   0.59182   0.00000  Uiso   1.00
H71    H     0.25089   0.29174   0.53258   0.00000  Uiso   1.00
H72    H     0.00333   0.37152   0.55369   0.00000  Uiso   1.00
H73    H     0.93520   0.27468   0.66843   0.00000  Uiso   1.00
H74    H     0.47560   0.27207   0.49960   0.00000  Uiso   1.00
H75    H     0.95356   0.44027   0.54414   0.00000  Uiso   1.00
H76    H     0.80988   0.23606   0.78608   0.00000  Uiso   1.00
H77    H     0.23430   0.34860   0.84388   0.00000  Uiso   1.00
H78    H     0.42661   0.32866   0.79848   0.00000  Uiso   1.00
H79    H     0.17905   0.40843   0.81959   0.00000  Uiso   1.00
H80    H     0.11091   0.31159   0.93433   0.00000  Uiso   1.00
H81    H     0.61822   0.30203   0.71541   0.00000  Uiso   1.00
H82    H     0.09618   0.47023   0.75995   0.00000  Uiso   1.00
H83    H     0.95250   0.26603   0.00189   0.00000  Uiso   1.00
O84    O     0.67042   0.27331   0.57307   0.00000  Uiso   1.00
O85    O     0.98551   0.49398   0.63151   0.00000  Uiso   1.00
O86    O     0.79702   0.22607   0.94894   0.00000  Uiso   1.00
N87    N     0.48277   0.28185   0.55663   0.00000  Uiso   1.00
N88    N     0.99471   0.43911   0.59826   0.00000  Uiso   1.00
N89    N     0.86036   0.24820   0.82446   0.00000  Uiso   1.00
N90    N     0.55951   0.29797   0.67275   0.00000  Uiso   1.00
N91    N     0.07145   0.45523   0.71439   0.00000  Uiso   1.00
N92    N     0.93711   0.26432   0.94059   0.00000  Uiso   1.00
C93    C     0.05982   0.33413   0.35693   0.00000  Uiso   1.00
C94    C     0.94374   0.32186   0.34156   0.00000  Uiso   1.00
C95    C     0.87735   0.30663   0.39970   0.00000  Uiso   1.00
C96    C     0.77376   0.29722   0.37344   0.00000  Uiso   1.00
C97    C     0.59894   0.27731   0.36198   0.00000  Uiso   1.00
C98    C     0.05869   0.36998   0.33440   0.00000  Uiso   1.00
C99    C     0.08896   0.39522   0.38651   0.00000  Uiso   1.00
C100   C     0.08214   0.42632   0.35421   0.00000  Uiso   1.00
C101   C     0.08585   0.48113   0.33161   0.00000  Uiso   1.00
C102   C     0.13188   0.31766   0.29203   0.00000  Uiso   1.00
C103   C     0.22371   0.29892   0.30852   0.00000  Uiso   1.00
C104   C     0.27854   0.28597   0.24055   0.00000  Uiso   1.00
C105   C     0.39589   0.25955   0.15217   0.00000  Uiso   1.00
C106   C     0.99392   0.34449   0.20691   0.00000  Uiso   1.00
C107   C     0.90795   0.32748   0.26007   0.00000  Uiso   1.00
C108   C     0.80444   0.31808   0.23372   0.00000  Uiso   1.00
C109   C     0.73790   0.30285   0.29181   0.00000  Uiso   1.00
C110   C     0.02289   0.37561   0.25291   0.00000  Uiso   1.00
C111   C     0.01604   0.40668   0.22053   0.00000  Uiso   1.00
C112   C     0.04628   0.43196   0.27258   0.00000  Uiso   1.00
C113   C     0.09608   0.32328   0.21054   0.00000  Uiso   1.00
C114   C     0.15079   0.31037   0.14254   0.00000  Uiso   1.00
C115   C     0.24268   0.29161   0.15892   0.00000  Uiso   1.00
H116   H     0.08769   0.32976   0.42037   0.00000  Uiso   1.00
H117   H     0.90508   0.30229   0.46276   0.00000  Uiso   1.00
H118   H     0.11666   0.39086   0.44956   0.00000  Uiso   1.00
H119   H     0.25138   0.29457   0.37159   0.00000  Uiso   1.00
H120   H     0.68681   0.27432   0.47382   0.00000  Uiso   1.00
H121   H     0.13298   0.46109   0.44600   0.00000  Uiso   1.00
H122   H     0.41708   0.25804   0.28157   0.00000  Uiso   1.00
H123   H     0.96605   0.34887   0.14346   0.00000  Uiso   1.00
H124   H     0.77676   0.32244   0.17065   0.00000  Uiso   1.00
H125   H     0.98834   0.41102   0.15747   0.00000  Uiso   1.00
H126   H     0.12307   0.31473   0.07949   0.00000  Uiso   1.00
H127   H     0.58266   0.29068   0.23674   0.00000  Uiso   1.00
H128   H     0.02884   0.47745   0.20892   0.00000  Uiso   1.00
H129   H     0.31293   0.27440   0.04449   0.00000  Uiso   1.00
O130   O     0.51239   0.26478   0.37817   0.00000  Uiso   1.00
O131   O     0.09778   0.50981   0.34166   0.00000  Uiso   1.00
O132   O     0.47050   0.24342   0.12594   0.00000  Uiso   1.00
N133   N     0.68829   0.28179   0.41429   0.00000  Uiso   1.00
N134   N     0.10541   0.45641   0.38828   0.00000  Uiso   1.00
N135   N     0.37104   0.26658   0.23455   0.00000  Uiso   1.00
N136   N     0.63225   0.29059   0.28672   0.00000  Uiso   1.00
N137   N     0.04937   0.46521   0.26071   0.00000  Uiso   1.00
N138   N     0.31500   0.27538   0.10698   0.00000  Uiso   1.00
C139   C     0.89411   0.67838   0.14957   0.00000  Uiso   1.00
C140   C     0.77149   0.68541   0.15234   0.00000  Uiso   1.00
C141   C     0.71114   0.70029   0.08998   0.00000  Uiso   1.00
C142   C     0.59990   0.70452   0.10443   0.00000  Uiso   1.00
C143   C     0.41695   0.71698   0.09743   0.00000  Uiso   1.00
C144   C     0.90599   0.64207   0.16381   0.00000  Uiso   1.00
C145   C     0.95874   0.62051   0.11109   0.00000  Uiso   1.00
C146   C     0.96072   0.58825   0.13520   0.00000  Uiso   1.00
C147   C     0.98665   0.53342   0.14604   0.00000  Uiso   1.00
C148   C     0.94300   0.69468   0.22614   0.00000  Uiso   1.00
C149   C     0.02689   0.71736   0.22585   0.00000  Uiso   1.00
C150   C     0.06005   0.72939   0.30245   0.00000  Uiso   1.00
C151   C     0.14345   0.75626   0.41007   0.00000  Uiso   1.00
C152   C     0.80387   0.65942   0.28613   0.00000  Uiso   1.00
C153   C     0.72248   0.67511   0.22651   0.00000  Uiso   1.00
C154   C     0.61130   0.67931   0.24107   0.00000  Uiso   1.00
C155   C     0.55079   0.69420   0.17874   0.00000  Uiso   1.00
C156   C     0.85698   0.63177   0.23798   0.00000  Uiso   1.00
C157   C     0.85889   0.59953   0.26218   0.00000  Uiso   1.00
C158   C     0.91162   0.57793   0.20951   0.00000  Uiso   1.00
C159   C     0.89398   0.68438   0.30032   0.00000  Uiso   1.00
C160   C     0.92704   0.69638   0.37694   0.00000  Uiso   1.00
C161   C     0.01095   0.71908   0.37676   0.00000  Uiso   1.00
H162   H     0.93227   0.68640   0.09182   0.00000  Uiso   1.00
H163   H     0.74911   0.70826   0.03258   0.00000  Uiso   1.00
H164   H     0.99667   0.62848   0.05369   0.00000  Uiso   1.00
H165   H     0.06480   0.72532   0.16843   0.00000  Uiso   1.00
H166   H     0.52440   0.72793   0.99960   0.00000  Uiso   1.00
H167   H     0.04644   0.55973   0.04414   0.00000  Uiso   1.00
H168   H     0.19012   0.76394   0.28608   0.00000  Uiso   1.00
H169   H     0.76570   0.65140   0.34388   0.00000  Uiso   1.00
H170   H     0.57339   0.67134   0.29848   0.00000  Uiso   1.00
H171   H     0.82095   0.59157   0.31959   0.00000  Uiso   1.00
H172   H     0.88909   0.68841   0.43433   0.00000  Uiso   1.00
H173   H     0.38178   0.69797   0.21541   0.00000  Uiso   1.00
H174   H     0.90382   0.52977   0.25995   0.00000  Uiso   1.00
H175   H     0.04750   0.73397   0.50189   0.00000  Uiso   1.00
O176   O     0.32958   0.72669   0.07307   0.00000  Uiso   1.00
O177   O     0.01449   0.50602   0.13151   0.00000  Uiso   1.00
O178   O     0.20298   0.77393   0.44894   0.00000  Uiso   1.00
N179   N     0.51723   0.71815   0.05663   0.00000  Uiso   1.00
N180   N     0.00529   0.56089   0.09826   0.00000  Uiso   1.00
N181   N     0.13964   0.75180   0.32446   0.00000  Uiso   1.00
N182   N     0.44049   0.70203   0.17275   0.00000  Uiso   1.00
N183   N     0.92855   0.54477   0.21439   0.00000  Uiso   1.00
N184   N     0.06289   0.73568   0.44059   0.00000  Uiso   1.00
C185   C     0.44018   0.83413   0.85693   0.00000  Uiso   1.00
C186   C     0.55626   0.82186   0.84156   0.00000  Uiso   1.00
C187   C     0.62265   0.80663   0.89970   0.00000  Uiso   1.00
C188   C     0.72624   0.79722   0.87344   0.00000  Uiso   1.00
C189   C     0.90106   0.77731   0.86198   0.00000  Uiso   1.00
C190   C     0.44131   0.86998   0.83440   0.00000  Uiso   1.00
C191   C     0.41104   0.89522   0.88651   0.00000  Uiso   1.00
C192   C     0.41786   0.92632   0.85421   0.00000  Uiso   1.00
C193   C     0.41415   0.98113   0.83161   0.00000  Uiso   1.00
C194   C     0.36812   0.81766   0.79203   0.00000  Uiso   1.00
C195   C     0.27629   0.79892   0.80852   0.00000  Uiso   1.00
C196   C     0.22146   0.78597   0.74055   0.00000  Uiso   1.00
C197   C     0.10411   0.75955   0.65217   0.00000  Uiso   1.00
C198   C     0.50608   0.84449   0.70691   0.00000  Uiso   1.00
C199   C     0.59205   0.82748   0.76007   0.00000  Uiso   1.00
C200   C     0.69556   0.81808   0.73372   0.00000  Uiso   1.00
C201   C     0.76210   0.80285   0.79181   0.00000  Uiso   1.00
C202   C     0.47711   0.87561   0.75291   0.00000  Uiso   1.00
C203   C     0.48396   0.90668   0.72053   0.00000  Uiso   1.00
C204   C     0.45372   0.93196   0.77258   0.00000  Uiso   1.00
C205   C     0.40392   0.82328   0.71054   0.00000  Uiso   1.00
C206   C     0.34921   0.81037   0.64254   0.00000  Uiso   1.00
C207   C     0.25732   0.79161   0.65892   0.00000  Uiso   1.00
H208   H     0.41231   0.82976   0.92037   0.00000  Uiso   1.00
H209   H     0.59492   0.80229   0.96276   0.00000  Uiso   1.00
H210   H     0.38334   0.89086   0.94956   0.00000  Uiso   1.00
H211   H     0.24862   0.79457   0.87159   0.00000  Uiso   1.00
H212   H     0.81319   0.77432   0.97382   0.00000  Uiso   1.00
H213   H     0.36702   0.96109   0.94600   0.00000  Uiso   1.00
H214   H     0.08292   0.75804   0.78157   0.00000  Uiso   1.00
H215   H     0.53395   0.84887   0.64346   0.00000  Uiso   1.00
H216   H     0.72324   0.82244   0.67065   0.00000  Uiso   1.00
H217   H     0.51166   0.91102   0.65747   0.00000  Uiso   1.00
H218   H     0.37693   0.81473   0.57949   0.00000  Uiso   1.00
H219   H     0.91734   0.79068   0.73674   0.00000  Uiso   1.00
H220   H     0.47116   0.97745   0.70892   0.00000  Uiso   1.00
H221   H     0.18707   0.77440   0.54449   0.00000  Uiso   1.00
O222   O     0.98761   0.76478   0.87817   0.00000  Uiso   1.00
O223   O     0.40222   0.00981   0.84166   0.00000  Uiso   1.00
O224   O     0.02950   0.74342   0.62594   0.00000  Uiso   1.00
N225   N     0.81171   0.78179   0.91429   0.00000  Uiso   1.00
N226   N     0.39459   0.95641   0.88828   0.00000  Uiso   1.00
N227   N     0.12896   0.76658   0.73455   0.00000  Uiso   1.00
N228   N     0.86775   0.79059   0.78672   0.00000  Uiso   1.00
N229   N     0.45063   0.96521   0.76071   0.00000  Uiso   1.00
N230   N     0.18500   0.77538   0.60698   0.00000  Uiso   1.00
C231   C     0.60589   0.17838   0.64957   0.00000  Uiso   1.00
C232   C     0.72851   0.18541   0.65234   0.00000  Uiso   1.00
C233   C     0.78886   0.20029   0.58998   0.00000  Uiso   1.00
C234   C     0.90010   0.20452   0.60443   0.00000  Uiso   1.00
C235   C     0.08305   0.21698   0.59743   0.00000  Uiso   1.00
C236   C     0.59401   0.14207   0.66381   0.00000  Uiso   1.00
C237   C     0.54126   0.12051   0.61109   0.00000  Uiso   1.00
C238   C     0.53928   0.08825   0.63520   0.00000  Uiso   1.00
C239   C     0.51335   0.03342   0.64604   0.00000  Uiso   1.00
C240   C     0.55700   0.19468   0.72614   0.00000  Uiso   1.00
C241   C     0.47311   0.21736   0.72585   0.00000  Uiso   1.00
C242   C     0.43995   0.22939   0.80245   0.00000  Uiso   1.00
C243   C     0.35655   0.25626   0.91007   0.00000  Uiso   1.00
C244   C     0.69613   0.15942   0.78613   0.00000  Uiso   1.00
C245   C     0.77752   0.17511   0.72651   0.00000  Uiso   1.00
C246   C     0.88870   0.17931   0.74107   0.00000  Uiso   1.00
C247   C     0.94921   0.19420   0.67874   0.00000  Uiso   1.00
C248   C     0.64302   0.13177   0.73798   0.00000  Uiso   1.00
C249   C     0.64111   0.09953   0.76218   0.00000  Uiso   1.00
C250   C     0.58838   0.07793   0.70951   0.00000  Uiso   1.00
C251   C     0.60602   0.18438   0.80032   0.00000  Uiso   1.00
C252   C     0.57296   0.19638   0.87694   0.00000  Uiso   1.00
C253   C     0.48905   0.21908   0.87676   0.00000  Uiso   1.00
H254   H     0.56773   0.18640   0.59182   0.00000  Uiso   1.00
H255   H     0.75089   0.20826   0.53258   0.00000  Uiso   1.00
H256   H     0.50333   0.12848   0.55369   0.00000  Uiso   1.00
H257   H     0.43520   0.22532   0.66843   0.00000  Uiso   1.00
H258   H     0.97560   0.22793   0.49960   0.00000  Uiso   1.00
H259   H     0.45356   0.05973   0.54414   0.00000  Uiso   1.00
H260   H     0.30988   0.26394   0.78608   0.00000  Uiso   1.00
H261   H     0.73430   0.15140   0.84388   0.00000  Uiso   1.00
H262   H     0.92661   0.17134   0.79848   0.00000  Uiso   1.00
H263   H     0.67905   0.09157   0.81959   0.00000  Uiso   1.00
H264   H     0.61091   0.18841   0.93433   0.00000  Uiso   1.00
H265   H     0.11822   0.19797   0.71541   0.00000  Uiso   1.00
H266   H     0.59618   0.02977   0.75995   0.00000  Uiso   1.00
H267   H     0.45250   0.23397   0.00189   0.00000  Uiso   1.00
O268   O     0.17042   0.22669   0.57307   0.00000  Uiso   1.00
O269   O     0.48551   0.00602   0.63151   0.00000  Uiso   1.00
O270   O     0.29702   0.27393   0.94894   0.00000  Uiso   1.00
N271   N     0.98277   0.21815   0.55663   0.00000  Uiso   1.00
N272   N     0.49471   0.06089   0.59826   0.00000  Uiso   1.00
N273   N     0.36036   0.25180   0.82446   0.00000  Uiso   1.00
N274   N     0.05951   0.20203   0.67275   0.00000  Uiso   1.00
N275   N     0.57145   0.04477   0.71439   0.00000  Uiso   1.00
N276   N     0.43711   0.23568   0.94059   0.00000  Uiso   1.00
C277   C     0.55982   0.16587   0.35693   0.00000  Uiso   1.00
C278   C     0.44374   0.17814   0.34156   0.00000  Uiso   1.00
C279   C     0.37735   0.19337   0.39970   0.00000  Uiso   1.00
C280   C     0.27376   0.20278   0.37344   0.00000  Uiso   1.00
C281   C     0.09894   0.22269   0.36198   0.00000  Uiso   1.00
C282   C     0.55869   0.13002   0.33440   0.00000  Uiso   1.00
C283   C     0.58896   0.10478   0.38651   0.00000  Uiso   1.00
C284   C     0.58214   0.07368   0.35421   0.00000  Uiso   1.00
C285   C     0.58585   0.01887   0.33161   0.00000  Uiso   1.00
C286   C     0.63188   0.18234   0.29203   0.00000  Uiso   1.00
C287   C     0.72371   0.20108   0.30852   0.00000  Uiso   1.00
C288   C     0.77854   0.21403   0.24055   0.00000  Uiso   1.00
C289   C     0.89589   0.24045   0.15217   0.00000  Uiso   1.00
C290   C     0.49392   0.15551   0.20691   0.00000  Uiso   1.00
C291   C     0.40795   0.17252   0.26007   0.00000  Uiso   1.00
C292   C     0.30444   0.18192   0.23372   0.00000  Uiso   1.00
C293   C     0.23790   0.19715   0.29181   0.00000  Uiso   1.00
C294   C     0.52289   0.12439   0.25291   0.00000  Uiso   1.00
C295   C     0.51604   0.09332   0.22053   0.00000  Uiso   1.00
C296   C     0.54628   0.06804   0.27258   0.00000  Uiso   1.00
C297   C     0.59608   0.17672   0.21054   0.00000  Uiso   1.00
C298   C     0.65079   0.18963   0.14254   0.00000  Uiso   1.00
C299   C     0.74268   0.20839   0.15892   0.00000  Uiso   1.00
H300   H     0.58769   0.17024   0.42037   0.00000  Uiso   1.00
H301   H     0.40508   0.19771   0.46276   0.00000  Uiso   1.00
H302   H     0.61666   0.10914   0.44956   0.00000  Uiso   1.00
H303   H     0.75138   0.20543   0.37159   0.00000  Uiso   1.00
H304   H     0.18681   0.22568   0.47382   0.00000  Uiso   1.00
H305   H     0.63298   0.03891   0.44600   0.00000  Uiso   1.00
H306   H     0.91708   0.24196   0.28157   0.00000  Uiso   1.00
H307   H     0.46605   0.15113   0.14346   0.00000  Uiso   1.00
H308   H     0.27676   0.17756   0.17065   0.00000  Uiso   1.00
H309   H     0.48834   0.08898   0.15747   0.00000  Uiso   1.00
H310   H     0.62307   0.18527   0.07949   0.00000  Uiso   1.00
H311   H     0.08266   0.20932   0.23674   0.00000  Uiso   1.00
H312   H     0.52884   0.02255   0.20892   0.00000  Uiso   1.00
H313   H     0.81293   0.22560   0.04449   0.00000  Uiso   1.00
O314   O     0.01239   0.23522   0.37817   0.00000  Uiso   1.00
O315   O     0.59778   0.99019   0.34166   0.00000  Uiso   1.00
O316   O     0.97050   0.25658   0.12594   0.00000  Uiso   1.00
N317   N     0.18829   0.21821   0.41429   0.00000  Uiso   1.00
N318   N     0.60541   0.04359   0.38828   0.00000  Uiso   1.00
N319   N     0.87104   0.23342   0.23455   0.00000  Uiso   1.00
N320   N     0.13225   0.20941   0.28672   0.00000  Uiso   1.00
N321   N     0.54937   0.03479   0.26071   0.00000  Uiso   1.00
N322   N     0.81500   0.22462   0.10698   0.00000  Uiso   1.00
C323   C     0.39411   0.82162   0.14957   0.00000  Uiso   1.00
C324   C     0.27149   0.81459   0.15234   0.00000  Uiso   1.00
C325   C     0.21114   0.79971   0.08998   0.00000  Uiso   1.00
C326   C     0.09990   0.79548   0.10443   0.00000  Uiso   1.00
C327   C     0.91695   0.78302   0.09743   0.00000  Uiso   1.00
C328   C     0.40599   0.85793   0.16381   0.00000  Uiso   1.00
C329   C     0.45874   0.87949   0.11109   0.00000  Uiso   1.00
C330   C     0.46072   0.91175   0.13520   0.00000  Uiso   1.00
C331   C     0.48665   0.96658   0.14604   0.00000  Uiso   1.00
C332   C     0.44300   0.80532   0.22614   0.00000  Uiso   1.00
C333   C     0.52689   0.78264   0.22585   0.00000  Uiso   1.00
C334   C     0.56005   0.77061   0.30245   0.00000  Uiso   1.00
C335   C     0.64345   0.74374   0.41007   0.00000  Uiso   1.00
C336   C     0.30387   0.84058   0.28613   0.00000  Uiso   1.00
C337   C     0.22248   0.82489   0.22651   0.00000  Uiso   1.00
C338   C     0.11130   0.82069   0.24107   0.00000  Uiso   1.00
C339   C     0.05079   0.80580   0.17874   0.00000  Uiso   1.00
C340   C     0.35698   0.86823   0.23798   0.00000  Uiso   1.00
C341   C     0.35889   0.90047   0.26218   0.00000  Uiso   1.00
C342   C     0.41162   0.92207   0.20951   0.00000  Uiso   1.00
C343   C     0.39398   0.81562   0.30032   0.00000  Uiso   1.00
C344   C     0.42704   0.80362   0.37694   0.00000  Uiso   1.00
C345   C     0.51095   0.78092   0.37676   0.00000  Uiso   1.00
H346   H     0.43227   0.81360   0.09182   0.00000  Uiso   1.00
H347   H     0.24911   0.79174   0.03258   0.00000  Uiso   1.00
H348   H     0.49667   0.87152   0.05369   0.00000  Uiso   1.00
H349   H     0.56480   0.77468   0.16843   0.00000  Uiso   1.00
H350   H     0.02440   0.77207   0.99960   0.00000  Uiso   1.00
H351   H     0.54644   0.94027   0.04414   0.00000  Uiso   1.00
H352   H     0.69012   0.73606   0.28608   0.00000  Uiso   1.00
H353   H     0.26570   0.84860   0.34388   0.00000  Uiso   1.00
H354   H     0.07339   0.82866   0.29848   0.00000  Uiso   1.00
H355   H     0.32095   0.90843   0.31959   0.00000  Uiso   1.00
H356   H     0.38909   0.81159   0.43433   0.00000  Uiso   1.00
H357   H     0.88178   0.80203   0.21541   0.00000  Uiso   1.00
H358   H     0.40382   0.97023   0.25995   0.00000  Uiso   1.00
H359   H     0.54750   0.76603   0.50189   0.00000  Uiso   1.00
O360   O     0.82958   0.77331   0.07307   0.00000  Uiso   1.00
O361   O     0.51449   0.99398   0.13151   0.00000  Uiso   1.00
O362   O     0.70298   0.72607   0.44894   0.00000  Uiso   1.00
N363   N     0.01723   0.78185   0.05663   0.00000  Uiso   1.00
N364   N     0.50529   0.93911   0.09826   0.00000  Uiso   1.00
N365   N     0.63964   0.74820   0.32446   0.00000  Uiso   1.00
N366   N     0.94049   0.79797   0.17275   0.00000  Uiso   1.00
N367   N     0.42855   0.95523   0.21439   0.00000  Uiso   1.00
N368   N     0.56289   0.76432   0.44059   0.00000  Uiso   1.00
