data_job_00546
_audit_creation_date              2018-12-19
_audit_creation_method            'Materials Studio'
_symmetry_space_group_name_H-M    'P1'
_symmetry_Int_Tables_number       1
_symmetry_cell_setting            triclinic
loop_
_symmetry_equiv_pos_as_xyz
  x,y,z
_cell_length_a                    42.2514
_cell_length_b                    7.0296
_cell_length_c                    22.9576
_cell_angle_alpha                 90.0000
_cell_angle_beta                  92.5691
_cell_angle_gamma                 90.0000
loop_
_atom_site_label
_atom_site_type_symbol
_atom_site_fract_x
_atom_site_fract_y
_atom_site_fract_z
_atom_site_U_iso_or_equiv
_atom_site_adp_type
_atom_site_occupancy
C1     C     0.58845   0.88591   0.76369   0.00000  Uiso   1.00
C2     C     0.56881   0.74646   0.72623   0.00000  Uiso   1.00
C3     C     0.54996   0.79288   0.67723   0.00000  Uiso   1.00
C4     C     0.53386   0.64480   0.64898   0.00000  Uiso   1.00
C5     C     0.50294   0.45683   0.58777   0.00000  Uiso   1.00
C6     C     0.57750   0.86234   0.82568   0.00000  Uiso   1.00
C7     C     0.56597   0.00621   0.86028   0.00000  Uiso   1.00
C8     C     0.55718   0.95568   0.91575   0.00000  Uiso   1.00
C9     C     0.53978   0.94765   0.00895   0.00000  Uiso   1.00
C10    C     0.62241   0.81214   0.76452   0.00000  Uiso   1.00
C11    C     0.64864   0.91381   0.74771   0.00000  Uiso   1.00
C12    C     0.67766   0.82103   0.75170   0.00000  Uiso   1.00
C13    C     0.72999   0.73505   0.74994   0.00000  Uiso   1.00
C14    C     0.59336   0.54037   0.80067   0.00000  Uiso   1.00
C15    C     0.57148   0.55878   0.74632   0.00000  Uiso   1.00
C16    C     0.55540   0.41058   0.71813   0.00000  Uiso   1.00
C17    C     0.53653   0.45678   0.66909   0.00000  Uiso   1.00
C18    C     0.58017   0.67467   0.84576   0.00000  Uiso   1.00
C19    C     0.57140   0.62391   0.90119   0.00000  Uiso   1.00
C20    C     0.55985   0.76766   0.93587   0.00000  Uiso   1.00
C21    C     0.62508   0.62446   0.78460   0.00000  Uiso   1.00
C22    C     0.65407   0.53151   0.78862   0.00000  Uiso   1.00
C23    C     0.68034   0.63301   0.77182   0.00000  Uiso   1.00
H24    H     0.58637   0.03203   0.74806   0.00000  Uiso   1.00
H25    H     0.54790   0.93815   0.66170   0.00000  Uiso   1.00
H26    H     0.56391   0.15144   0.84473   0.00000  Uiso   1.00
H27    H     0.64656   0.05904   0.73218   0.00000  Uiso   1.00
H28    H     0.50642   0.75130   0.57482   0.00000  Uiso   1.00
H29    H     0.54017   0.20105   0.96076   0.00000  Uiso   1.00
H30    H     0.71447   0.00623   0.72342   0.00000  Uiso   1.00
H31    H     0.59544   0.39425   0.81630   0.00000  Uiso   1.00
H32    H     0.55747   0.26536   0.73368   0.00000  Uiso   1.00
H33    H     0.57347   0.47866   0.91672   0.00000  Uiso   1.00
H34    H     0.65612   0.38627   0.80416   0.00000  Uiso   1.00
H35    H     0.51418   0.20524   0.63325   0.00000  Uiso   1.00
H36    H     0.54793   0.65501   0.01919   0.00000  Uiso   1.00
H37    H     0.72223   0.46018   0.78184   0.00000  Uiso   1.00
O38    O     0.48515   0.40500   0.54846   0.00000  Uiso   1.00
O39    O     0.52944   0.99508   0.05480   0.00000  Uiso   1.00
O40    O     0.75811   0.73947   0.74341   0.00000  Uiso   1.00
N41    N     0.51346   0.64047   0.59990   0.00000  Uiso   1.00
N42    N     0.54502   0.06096   0.96073   0.00000  Uiso   1.00
N43    N     0.70797   0.87883   0.73885   0.00000  Uiso   1.00
N44    N     0.51764   0.34664   0.63134   0.00000  Uiso   1.00
N45    N     0.54919   0.76713   0.99217   0.00000  Uiso   1.00
N46    N     0.71215   0.58500   0.77028   0.00000  Uiso   1.00
C47    C     0.08845   0.38591   0.76369   0.00000  Uiso   1.00
C48    C     0.06881   0.24646   0.72623   0.00000  Uiso   1.00
C49    C     0.04996   0.29288   0.67723   0.00000  Uiso   1.00
C50    C     0.03386   0.14480   0.64898   0.00000  Uiso   1.00
C51    C     0.00294   0.95683   0.58777   0.00000  Uiso   1.00
C52    C     0.07750   0.36234   0.82568   0.00000  Uiso   1.00
C53    C     0.06597   0.50621   0.86028   0.00000  Uiso   1.00
C54    C     0.05718   0.45568   0.91575   0.00000  Uiso   1.00
C55    C     0.03978   0.44765   0.00895   0.00000  Uiso   1.00
C56    C     0.12241   0.31214   0.76452   0.00000  Uiso   1.00
C57    C     0.14864   0.41381   0.74771   0.00000  Uiso   1.00
C58    C     0.17766   0.32103   0.75170   0.00000  Uiso   1.00
C59    C     0.22999   0.23505   0.74994   0.00000  Uiso   1.00
C60    C     0.09336   0.04037   0.80067   0.00000  Uiso   1.00
C61    C     0.07148   0.05878   0.74632   0.00000  Uiso   1.00
C62    C     0.05540   0.91058   0.71813   0.00000  Uiso   1.00
C63    C     0.03653   0.95678   0.66909   0.00000  Uiso   1.00
C64    C     0.08017   0.17467   0.84576   0.00000  Uiso   1.00
C65    C     0.07140   0.12391   0.90119   0.00000  Uiso   1.00
C66    C     0.05985   0.26766   0.93587   0.00000  Uiso   1.00
C67    C     0.12508   0.12446   0.78460   0.00000  Uiso   1.00
C68    C     0.15407   0.03151   0.78862   0.00000  Uiso   1.00
C69    C     0.18034   0.13301   0.77182   0.00000  Uiso   1.00
H70    H     0.08637   0.53203   0.74806   0.00000  Uiso   1.00
H71    H     0.04790   0.43815   0.66170   0.00000  Uiso   1.00
H72    H     0.06391   0.65144   0.84473   0.00000  Uiso   1.00
H73    H     0.14656   0.55904   0.73218   0.00000  Uiso   1.00
H74    H     0.00642   0.25130   0.57482   0.00000  Uiso   1.00
H75    H     0.04017   0.70105   0.96076   0.00000  Uiso   1.00
H76    H     0.21447   0.50623   0.72342   0.00000  Uiso   1.00
H77    H     0.09544   0.89425   0.81630   0.00000  Uiso   1.00
H78    H     0.05747   0.76536   0.73368   0.00000  Uiso   1.00
H79    H     0.07347   0.97866   0.91672   0.00000  Uiso   1.00
H80    H     0.15612   0.88627   0.80416   0.00000  Uiso   1.00
H81    H     0.01418   0.70524   0.63325   0.00000  Uiso   1.00
H82    H     0.04793   0.15501   0.01919   0.00000  Uiso   1.00
H83    H     0.22223   0.96018   0.78184   0.00000  Uiso   1.00
O84    O     0.98515   0.90500   0.54846   0.00000  Uiso   1.00
O85    O     0.02944   0.49508   0.05480   0.00000  Uiso   1.00
O86    O     0.25811   0.23947   0.74341   0.00000  Uiso   1.00
N87    N     0.01346   0.14047   0.59990   0.00000  Uiso   1.00
N88    N     0.04502   0.56096   0.96073   0.00000  Uiso   1.00
N89    N     0.20797   0.37883   0.73885   0.00000  Uiso   1.00
N90    N     0.01764   0.84664   0.63134   0.00000  Uiso   1.00
N91    N     0.04919   0.26713   0.99217   0.00000  Uiso   1.00
N92    N     0.21215   0.08500   0.77028   0.00000  Uiso   1.00
C93    C     0.41155   0.88591   0.73631   0.00000  Uiso   1.00
C94    C     0.43119   0.74646   0.77377   0.00000  Uiso   1.00
C95    C     0.45004   0.79288   0.82277   0.00000  Uiso   1.00
C96    C     0.46614   0.64480   0.85102   0.00000  Uiso   1.00
C97    C     0.49706   0.45683   0.91223   0.00000  Uiso   1.00
C98    C     0.42250   0.86234   0.67432   0.00000  Uiso   1.00
C99    C     0.43403   0.00621   0.63972   0.00000  Uiso   1.00
C100   C     0.44282   0.95568   0.58425   0.00000  Uiso   1.00
C101   C     0.46022   0.94765   0.49105   0.00000  Uiso   1.00
C102   C     0.37759   0.81214   0.73548   0.00000  Uiso   1.00
C103   C     0.35136   0.91381   0.75229   0.00000  Uiso   1.00
C104   C     0.32234   0.82103   0.74830   0.00000  Uiso   1.00
C105   C     0.27001   0.73505   0.75006   0.00000  Uiso   1.00
C106   C     0.40664   0.54037   0.69933   0.00000  Uiso   1.00
C107   C     0.42852   0.55878   0.75368   0.00000  Uiso   1.00
C108   C     0.44460   0.41058   0.78187   0.00000  Uiso   1.00
C109   C     0.46347   0.45678   0.83091   0.00000  Uiso   1.00
C110   C     0.41983   0.67467   0.65424   0.00000  Uiso   1.00
C111   C     0.42860   0.62391   0.59881   0.00000  Uiso   1.00
C112   C     0.44015   0.76766   0.56413   0.00000  Uiso   1.00
C113   C     0.37492   0.62446   0.71540   0.00000  Uiso   1.00
C114   C     0.34593   0.53151   0.71138   0.00000  Uiso   1.00
C115   C     0.31966   0.63301   0.72818   0.00000  Uiso   1.00
H116   H     0.41363   0.03203   0.75194   0.00000  Uiso   1.00
H117   H     0.45210   0.93815   0.83830   0.00000  Uiso   1.00
H118   H     0.43609   0.15144   0.65527   0.00000  Uiso   1.00
H119   H     0.35344   0.05904   0.76782   0.00000  Uiso   1.00
H120   H     0.49358   0.75130   0.92518   0.00000  Uiso   1.00
H121   H     0.45983   0.20105   0.53924   0.00000  Uiso   1.00
H122   H     0.28553   0.00623   0.77658   0.00000  Uiso   1.00
H123   H     0.40456   0.39425   0.68370   0.00000  Uiso   1.00
H124   H     0.44253   0.26536   0.76632   0.00000  Uiso   1.00
H125   H     0.42653   0.47866   0.58328   0.00000  Uiso   1.00
H126   H     0.34388   0.38627   0.69584   0.00000  Uiso   1.00
H127   H     0.48582   0.20524   0.86675   0.00000  Uiso   1.00
H128   H     0.45207   0.65501   0.48081   0.00000  Uiso   1.00
H129   H     0.27777   0.46018   0.71816   0.00000  Uiso   1.00
O130   O     0.51485   0.40500   0.95154   0.00000  Uiso   1.00
O131   O     0.47056   0.99508   0.44520   0.00000  Uiso   1.00
O132   O     0.24189   0.73947   0.75659   0.00000  Uiso   1.00
N133   N     0.48654   0.64047   0.90010   0.00000  Uiso   1.00
N134   N     0.45498   0.06096   0.53927   0.00000  Uiso   1.00
N135   N     0.29203   0.87883   0.76115   0.00000  Uiso   1.00
N136   N     0.48236   0.34664   0.86866   0.00000  Uiso   1.00
N137   N     0.45081   0.76713   0.50783   0.00000  Uiso   1.00
N138   N     0.28785   0.58500   0.72972   0.00000  Uiso   1.00
C139   C     0.91155   0.38591   0.73631   0.00000  Uiso   1.00
C140   C     0.93119   0.24646   0.77377   0.00000  Uiso   1.00
C141   C     0.95004   0.29288   0.82277   0.00000  Uiso   1.00
C142   C     0.96614   0.14480   0.85102   0.00000  Uiso   1.00
C143   C     0.99706   0.95683   0.91223   0.00000  Uiso   1.00
C144   C     0.92250   0.36234   0.67432   0.00000  Uiso   1.00
C145   C     0.93403   0.50621   0.63972   0.00000  Uiso   1.00
C146   C     0.94282   0.45568   0.58425   0.00000  Uiso   1.00
C147   C     0.96022   0.44765   0.49105   0.00000  Uiso   1.00
C148   C     0.87759   0.31214   0.73548   0.00000  Uiso   1.00
C149   C     0.85136   0.41381   0.75229   0.00000  Uiso   1.00
C150   C     0.82234   0.32103   0.74830   0.00000  Uiso   1.00
C151   C     0.77001   0.23505   0.75006   0.00000  Uiso   1.00
C152   C     0.90664   0.04037   0.69933   0.00000  Uiso   1.00
C153   C     0.92852   0.05878   0.75368   0.00000  Uiso   1.00
C154   C     0.94460   0.91058   0.78187   0.00000  Uiso   1.00
C155   C     0.96347   0.95678   0.83091   0.00000  Uiso   1.00
C156   C     0.91983   0.17467   0.65424   0.00000  Uiso   1.00
C157   C     0.92860   0.12391   0.59881   0.00000  Uiso   1.00
C158   C     0.94015   0.26766   0.56413   0.00000  Uiso   1.00
C159   C     0.87492   0.12446   0.71540   0.00000  Uiso   1.00
C160   C     0.84593   0.03151   0.71138   0.00000  Uiso   1.00
C161   C     0.81966   0.13301   0.72818   0.00000  Uiso   1.00
H162   H     0.91363   0.53203   0.75194   0.00000  Uiso   1.00
H163   H     0.95210   0.43815   0.83830   0.00000  Uiso   1.00
H164   H     0.93609   0.65144   0.65527   0.00000  Uiso   1.00
H165   H     0.85344   0.55904   0.76782   0.00000  Uiso   1.00
H166   H     0.99358   0.25130   0.92518   0.00000  Uiso   1.00
H167   H     0.95983   0.70105   0.53924   0.00000  Uiso   1.00
H168   H     0.78553   0.50623   0.77658   0.00000  Uiso   1.00
H169   H     0.90456   0.89425   0.68370   0.00000  Uiso   1.00
H170   H     0.94253   0.76536   0.76632   0.00000  Uiso   1.00
H171   H     0.92653   0.97866   0.58328   0.00000  Uiso   1.00
H172   H     0.84388   0.88627   0.69584   0.00000  Uiso   1.00
H173   H     0.98582   0.70524   0.86675   0.00000  Uiso   1.00
H174   H     0.95207   0.15501   0.48081   0.00000  Uiso   1.00
H175   H     0.77777   0.96018   0.71816   0.00000  Uiso   1.00
O176   O     0.01485   0.90500   0.95154   0.00000  Uiso   1.00
O177   O     0.97056   0.49508   0.44520   0.00000  Uiso   1.00
O178   O     0.74189   0.23947   0.75659   0.00000  Uiso   1.00
N179   N     0.98654   0.14047   0.90010   0.00000  Uiso   1.00
N180   N     0.95498   0.56096   0.53927   0.00000  Uiso   1.00
N181   N     0.79203   0.37883   0.76115   0.00000  Uiso   1.00
N182   N     0.98236   0.84664   0.86866   0.00000  Uiso   1.00
N183   N     0.95081   0.26713   0.50783   0.00000  Uiso   1.00
N184   N     0.78785   0.08500   0.72972   0.00000  Uiso   1.00
C185   C     0.41155   0.11409   0.23631   0.00000  Uiso   1.00
C186   C     0.43119   0.25354   0.27377   0.00000  Uiso   1.00
C187   C     0.45004   0.20712   0.32277   0.00000  Uiso   1.00
C188   C     0.46614   0.35520   0.35102   0.00000  Uiso   1.00
C189   C     0.49706   0.54317   0.41223   0.00000  Uiso   1.00
C190   C     0.42250   0.13766   0.17432   0.00000  Uiso   1.00
C191   C     0.43403   0.99379   0.13972   0.00000  Uiso   1.00
C192   C     0.44282   0.04432   0.08425   0.00000  Uiso   1.00
C193   C     0.46022   0.05235   0.99105   0.00000  Uiso   1.00
C194   C     0.37759   0.18786   0.23548   0.00000  Uiso   1.00
C195   C     0.35136   0.08619   0.25229   0.00000  Uiso   1.00
C196   C     0.32234   0.17897   0.24830   0.00000  Uiso   1.00
C197   C     0.27001   0.26495   0.25006   0.00000  Uiso   1.00
C198   C     0.40664   0.45963   0.19933   0.00000  Uiso   1.00
C199   C     0.42852   0.44122   0.25368   0.00000  Uiso   1.00
C200   C     0.44460   0.58942   0.28187   0.00000  Uiso   1.00
C201   C     0.46347   0.54322   0.33091   0.00000  Uiso   1.00
C202   C     0.41983   0.32533   0.15424   0.00000  Uiso   1.00
C203   C     0.42860   0.37609   0.09881   0.00000  Uiso   1.00
C204   C     0.44015   0.23234   0.06413   0.00000  Uiso   1.00
C205   C     0.37492   0.37554   0.21540   0.00000  Uiso   1.00
C206   C     0.34593   0.46849   0.21138   0.00000  Uiso   1.00
C207   C     0.31966   0.36699   0.22818   0.00000  Uiso   1.00
H208   H     0.41363   0.96797   0.25194   0.00000  Uiso   1.00
H209   H     0.45210   0.06185   0.33830   0.00000  Uiso   1.00
H210   H     0.43609   0.84856   0.15527   0.00000  Uiso   1.00
H211   H     0.35344   0.94096   0.26782   0.00000  Uiso   1.00
H212   H     0.49358   0.24870   0.42518   0.00000  Uiso   1.00
H213   H     0.45983   0.79895   0.03924   0.00000  Uiso   1.00
H214   H     0.28553   0.99377   0.27658   0.00000  Uiso   1.00
H215   H     0.40456   0.60575   0.18370   0.00000  Uiso   1.00
H216   H     0.44253   0.73464   0.26632   0.00000  Uiso   1.00
H217   H     0.42653   0.52134   0.08328   0.00000  Uiso   1.00
H218   H     0.34388   0.61373   0.19584   0.00000  Uiso   1.00
H219   H     0.48582   0.79476   0.36675   0.00000  Uiso   1.00
H220   H     0.45207   0.34499   0.98081   0.00000  Uiso   1.00
H221   H     0.27777   0.53982   0.21816   0.00000  Uiso   1.00
O222   O     0.51485   0.59500   0.45154   0.00000  Uiso   1.00
O223   O     0.47056   0.00492   0.94520   0.00000  Uiso   1.00
O224   O     0.24189   0.26053   0.25659   0.00000  Uiso   1.00
N225   N     0.48654   0.35953   0.40010   0.00000  Uiso   1.00
N226   N     0.45498   0.93904   0.03927   0.00000  Uiso   1.00
N227   N     0.29203   0.12117   0.26115   0.00000  Uiso   1.00
N228   N     0.48236   0.65336   0.36866   0.00000  Uiso   1.00
N229   N     0.45081   0.23287   0.00783   0.00000  Uiso   1.00
N230   N     0.28785   0.41500   0.22972   0.00000  Uiso   1.00
C231   C     0.91155   0.61409   0.23631   0.00000  Uiso   1.00
C232   C     0.93119   0.75354   0.27377   0.00000  Uiso   1.00
C233   C     0.95004   0.70712   0.32277   0.00000  Uiso   1.00
C234   C     0.96614   0.85520   0.35102   0.00000  Uiso   1.00
C235   C     0.99706   0.04317   0.41223   0.00000  Uiso   1.00
C236   C     0.92250   0.63766   0.17432   0.00000  Uiso   1.00
C237   C     0.93403   0.49379   0.13972   0.00000  Uiso   1.00
C238   C     0.94282   0.54432   0.08425   0.00000  Uiso   1.00
C239   C     0.96022   0.55235   0.99105   0.00000  Uiso   1.00
C240   C     0.87759   0.68786   0.23548   0.00000  Uiso   1.00
C241   C     0.85136   0.58619   0.25229   0.00000  Uiso   1.00
C242   C     0.82234   0.67897   0.24830   0.00000  Uiso   1.00
C243   C     0.77001   0.76495   0.25006   0.00000  Uiso   1.00
C244   C     0.90664   0.95963   0.19933   0.00000  Uiso   1.00
C245   C     0.92852   0.94122   0.25368   0.00000  Uiso   1.00
C246   C     0.94460   0.08942   0.28187   0.00000  Uiso   1.00
C247   C     0.96347   0.04322   0.33091   0.00000  Uiso   1.00
C248   C     0.91983   0.82533   0.15424   0.00000  Uiso   1.00
C249   C     0.92860   0.87609   0.09881   0.00000  Uiso   1.00
C250   C     0.94015   0.73234   0.06413   0.00000  Uiso   1.00
C251   C     0.87492   0.87554   0.21540   0.00000  Uiso   1.00
C252   C     0.84593   0.96849   0.21138   0.00000  Uiso   1.00
C253   C     0.81966   0.86699   0.22818   0.00000  Uiso   1.00
H254   H     0.91363   0.46797   0.25194   0.00000  Uiso   1.00
H255   H     0.95210   0.56185   0.33830   0.00000  Uiso   1.00
H256   H     0.93609   0.34856   0.15527   0.00000  Uiso   1.00
H257   H     0.85344   0.44096   0.26782   0.00000  Uiso   1.00
H258   H     0.99358   0.74870   0.42518   0.00000  Uiso   1.00
H259   H     0.95983   0.29895   0.03924   0.00000  Uiso   1.00
H260   H     0.78553   0.49377   0.27658   0.00000  Uiso   1.00
H261   H     0.90456   0.10575   0.18370   0.00000  Uiso   1.00
H262   H     0.94253   0.23464   0.26632   0.00000  Uiso   1.00
H263   H     0.92653   0.02134   0.08328   0.00000  Uiso   1.00
H264   H     0.84388   0.11373   0.19584   0.00000  Uiso   1.00
H265   H     0.98582   0.29476   0.36675   0.00000  Uiso   1.00
H266   H     0.95207   0.84499   0.98081   0.00000  Uiso   1.00
H267   H     0.77777   0.03982   0.21816   0.00000  Uiso   1.00
O268   O     0.01485   0.09500   0.45154   0.00000  Uiso   1.00
O269   O     0.97056   0.50492   0.94520   0.00000  Uiso   1.00
O270   O     0.74189   0.76053   0.25659   0.00000  Uiso   1.00
N271   N     0.98654   0.85953   0.40010   0.00000  Uiso   1.00
N272   N     0.95498   0.43904   0.03927   0.00000  Uiso   1.00
N273   N     0.79203   0.62117   0.26115   0.00000  Uiso   1.00
N274   N     0.98236   0.15336   0.36866   0.00000  Uiso   1.00
N275   N     0.95081   0.73287   0.00783   0.00000  Uiso   1.00
N276   N     0.78785   0.91500   0.22972   0.00000  Uiso   1.00
C277   C     0.58845   0.11409   0.26369   0.00000  Uiso   1.00
C278   C     0.56881   0.25354   0.22623   0.00000  Uiso   1.00
C279   C     0.54996   0.20712   0.17723   0.00000  Uiso   1.00
C280   C     0.53386   0.35520   0.14898   0.00000  Uiso   1.00
C281   C     0.50294   0.54317   0.08777   0.00000  Uiso   1.00
C282   C     0.57750   0.13766   0.32568   0.00000  Uiso   1.00
C283   C     0.56597   0.99379   0.36028   0.00000  Uiso   1.00
C284   C     0.55718   0.04432   0.41575   0.00000  Uiso   1.00
C285   C     0.53978   0.05235   0.50895   0.00000  Uiso   1.00
C286   C     0.62241   0.18786   0.26452   0.00000  Uiso   1.00
C287   C     0.64864   0.08619   0.24771   0.00000  Uiso   1.00
C288   C     0.67766   0.17897   0.25170   0.00000  Uiso   1.00
C289   C     0.72999   0.26495   0.24994   0.00000  Uiso   1.00
C290   C     0.59336   0.45963   0.30067   0.00000  Uiso   1.00
C291   C     0.57148   0.44122   0.24632   0.00000  Uiso   1.00
C292   C     0.55540   0.58942   0.21813   0.00000  Uiso   1.00
C293   C     0.53653   0.54322   0.16909   0.00000  Uiso   1.00
C294   C     0.58017   0.32533   0.34576   0.00000  Uiso   1.00
C295   C     0.57140   0.37609   0.40119   0.00000  Uiso   1.00
C296   C     0.55985   0.23234   0.43587   0.00000  Uiso   1.00
C297   C     0.62508   0.37554   0.28460   0.00000  Uiso   1.00
C298   C     0.65407   0.46849   0.28862   0.00000  Uiso   1.00
C299   C     0.68034   0.36699   0.27182   0.00000  Uiso   1.00
H300   H     0.58637   0.96797   0.24806   0.00000  Uiso   1.00
H301   H     0.54790   0.06185   0.16170   0.00000  Uiso   1.00
H302   H     0.56391   0.84856   0.34473   0.00000  Uiso   1.00
H303   H     0.64656   0.94096   0.23218   0.00000  Uiso   1.00
H304   H     0.50642   0.24870   0.07482   0.00000  Uiso   1.00
H305   H     0.54017   0.79895   0.46076   0.00000  Uiso   1.00
H306   H     0.71447   0.99377   0.22342   0.00000  Uiso   1.00
H307   H     0.59544   0.60575   0.31630   0.00000  Uiso   1.00
H308   H     0.55747   0.73464   0.23368   0.00000  Uiso   1.00
H309   H     0.57347   0.52134   0.41672   0.00000  Uiso   1.00
H310   H     0.65612   0.61373   0.30416   0.00000  Uiso   1.00
H311   H     0.51418   0.79476   0.13325   0.00000  Uiso   1.00
H312   H     0.54793   0.34499   0.51919   0.00000  Uiso   1.00
H313   H     0.72223   0.53982   0.28184   0.00000  Uiso   1.00
O314   O     0.48515   0.59500   0.04846   0.00000  Uiso   1.00
O315   O     0.52944   0.00492   0.55480   0.00000  Uiso   1.00
O316   O     0.75811   0.26053   0.24341   0.00000  Uiso   1.00
N317   N     0.51346   0.35953   0.09990   0.00000  Uiso   1.00
N318   N     0.54502   0.93904   0.46073   0.00000  Uiso   1.00
N319   N     0.70797   0.12117   0.23885   0.00000  Uiso   1.00
N320   N     0.51764   0.65336   0.13134   0.00000  Uiso   1.00
N321   N     0.54919   0.23287   0.49217   0.00000  Uiso   1.00
N322   N     0.71215   0.41500   0.27028   0.00000  Uiso   1.00
C323   C     0.08845   0.61409   0.26369   0.00000  Uiso   1.00
C324   C     0.06881   0.75354   0.22623   0.00000  Uiso   1.00
C325   C     0.04996   0.70712   0.17723   0.00000  Uiso   1.00
C326   C     0.03386   0.85520   0.14898   0.00000  Uiso   1.00
C327   C     0.00294   0.04317   0.08777   0.00000  Uiso   1.00
C328   C     0.07750   0.63766   0.32568   0.00000  Uiso   1.00
C329   C     0.06597   0.49379   0.36028   0.00000  Uiso   1.00
C330   C     0.05718   0.54432   0.41575   0.00000  Uiso   1.00
C331   C     0.03978   0.55235   0.50895   0.00000  Uiso   1.00
C332   C     0.12241   0.68786   0.26452   0.00000  Uiso   1.00
C333   C     0.14864   0.58619   0.24771   0.00000  Uiso   1.00
C334   C     0.17766   0.67897   0.25170   0.00000  Uiso   1.00
C335   C     0.22999   0.76495   0.24994   0.00000  Uiso   1.00
C336   C     0.09336   0.95963   0.30067   0.00000  Uiso   1.00
C337   C     0.07148   0.94122   0.24632   0.00000  Uiso   1.00
C338   C     0.05540   0.08942   0.21813   0.00000  Uiso   1.00
C339   C     0.03653   0.04322   0.16909   0.00000  Uiso   1.00
C340   C     0.08017   0.82533   0.34576   0.00000  Uiso   1.00
C341   C     0.07140   0.87609   0.40119   0.00000  Uiso   1.00
C342   C     0.05985   0.73234   0.43587   0.00000  Uiso   1.00
C343   C     0.12508   0.87554   0.28460   0.00000  Uiso   1.00
C344   C     0.15407   0.96849   0.28862   0.00000  Uiso   1.00
C345   C     0.18034   0.86699   0.27182   0.00000  Uiso   1.00
H346   H     0.08637   0.46797   0.24806   0.00000  Uiso   1.00
H347   H     0.04790   0.56185   0.16170   0.00000  Uiso   1.00
H348   H     0.06391   0.34856   0.34473   0.00000  Uiso   1.00
H349   H     0.14656   0.44096   0.23218   0.00000  Uiso   1.00
H350   H     0.00642   0.74870   0.07482   0.00000  Uiso   1.00
H351   H     0.04017   0.29895   0.46076   0.00000  Uiso   1.00
H352   H     0.21447   0.49377   0.22342   0.00000  Uiso   1.00
H353   H     0.09544   0.10575   0.31630   0.00000  Uiso   1.00
H354   H     0.05747   0.23464   0.23368   0.00000  Uiso   1.00
H355   H     0.07347   0.02134   0.41672   0.00000  Uiso   1.00
H356   H     0.15612   0.11373   0.30416   0.00000  Uiso   1.00
H357   H     0.01418   0.29476   0.13325   0.00000  Uiso   1.00
H358   H     0.04793   0.84499   0.51919   0.00000  Uiso   1.00
H359   H     0.22223   0.03982   0.28184   0.00000  Uiso   1.00
O360   O     0.98515   0.09500   0.04846   0.00000  Uiso   1.00
O361   O     0.02944   0.50492   0.55480   0.00000  Uiso   1.00
O362   O     0.25811   0.76053   0.24341   0.00000  Uiso   1.00
N363   N     0.01346   0.85953   0.09990   0.00000  Uiso   1.00
N364   N     0.04502   0.43904   0.46073   0.00000  Uiso   1.00
N365   N     0.20797   0.62117   0.23885   0.00000  Uiso   1.00
N366   N     0.01764   0.15336   0.13134   0.00000  Uiso   1.00
N367   N     0.04919   0.73287   0.49217   0.00000  Uiso   1.00
N368   N     0.21215   0.91500   0.27028   0.00000  Uiso   1.00
