data_job_03307
_audit_creation_date              2018-12-19
_audit_creation_method            'Materials Studio'
_symmetry_space_group_name_H-M    'P1'
_symmetry_Int_Tables_number       1
_symmetry_cell_setting            triclinic
loop_
_symmetry_equiv_pos_as_xyz
  x,y,z
_cell_length_a                    20.3078
_cell_length_b                    20.3078
_cell_length_c                    12.6119
_cell_angle_alpha                 90.0000
_cell_angle_beta                  90.0000
_cell_angle_gamma                 90.0000
loop_
_atom_site_label
_atom_site_type_symbol
_atom_site_fract_x
_atom_site_fract_y
_atom_site_fract_z
_atom_site_U_iso_or_equiv
_atom_site_adp_type
_atom_site_occupancy
C1     C     0.22481   0.60580   0.93686   0.00000  Uiso   1.00
C2     C     0.29154   0.63983   0.94534   0.00000  Uiso   1.00
C3     C     0.35225   0.61063   0.92690   0.00000  Uiso   1.00
C4     C     0.40757   0.65012   0.93885   0.00000  Uiso   1.00
C5     C     0.51198   0.69287   0.94760   0.00000  Uiso   1.00
C6     C     0.19152   0.61500   0.04423   0.00000  Uiso   1.00
C7     C     0.16813   0.56491   0.10893   0.00000  Uiso   1.00
C8     C     0.13924   0.58349   0.20411   0.00000  Uiso   1.00
C9     C     0.08834   0.58768   0.36635   0.00000  Uiso   1.00
C10    C     0.18471   0.64622   0.85804   0.00000  Uiso   1.00
C11    C     0.15557   0.62238   0.76620   0.00000  Uiso   1.00
C12    C     0.12093   0.66725   0.70464   0.00000  Uiso   1.00
C13    C     0.05945   0.71992   0.57780   0.00000  Uiso   1.00
C14    C     0.21509   0.72787   0.99086   0.00000  Uiso   1.00
C15    C     0.28626   0.70613   0.97467   0.00000  Uiso   1.00
C16    C     0.34149   0.74568   0.98665   0.00000  Uiso   1.00
C17    C     0.40228   0.71654   0.96823   0.00000  Uiso   1.00
C18    C     0.18624   0.68129   0.07356   0.00000  Uiso   1.00
C19    C     0.15737   0.69996   0.16867   0.00000  Uiso   1.00
C20    C     0.13395   0.64991   0.23350   0.00000  Uiso   1.00
C21    C     0.17943   0.71252   0.88737   0.00000  Uiso   1.00
C22    C     0.14482   0.75743   0.82595   0.00000  Uiso   1.00
C23    C     0.11564   0.73367   0.73403   0.00000  Uiso   1.00
H24    H     0.22892   0.55418   0.91404   0.00000  Uiso   1.00
H25    H     0.35632   0.55931   0.90422   0.00000  Uiso   1.00
H26    H     0.17222   0.51360   0.08620   0.00000  Uiso   1.00
H27    H     0.15967   0.57107   0.74353   0.00000  Uiso   1.00
H28    H     0.49524   0.59424   0.90630   0.00000  Uiso   1.00
H29    H     0.10704   0.49785   0.29001   0.00000  Uiso   1.00
H30    H     0.08057   0.61903   0.56743   0.00000  Uiso   1.00
H31    H     0.21097   0.77949   0.01370   0.00000  Uiso   1.00
H32    H     0.33739   0.79699   0.00935   0.00000  Uiso   1.00
H33    H     0.15329   0.75127   0.19134   0.00000  Uiso   1.00
H34    H     0.14074   0.80874   0.84867   0.00000  Uiso   1.00
H35    H     0.47987   0.78714   0.99164   0.00000  Uiso   1.00
H36    H     0.09167   0.69075   0.37535   0.00000  Uiso   1.00
H37    H     0.06520   0.81193   0.65276   0.00000  Uiso   1.00
O38    O     0.57104   0.69813   0.94434   0.00000  Uiso   1.00
O39    O     0.06172   0.57167   0.44774   0.00000  Uiso   1.00
O40    O     0.02700   0.73066   0.49973   0.00000  Uiso   1.00
N41    N     0.47427   0.63724   0.92696   0.00000  Uiso   1.00
N42    N     0.11133   0.54712   0.28572   0.00000  Uiso   1.00
N43    N     0.08657   0.66041   0.61017   0.00000  Uiso   1.00
N44    N     0.46600   0.74104   0.97288   0.00000  Uiso   1.00
N45    N     0.10307   0.65092   0.33163   0.00000  Uiso   1.00
N46    N     0.07831   0.76421   0.65609   0.00000  Uiso   1.00
C47    C     0.77519   0.39420   0.43686   0.00000  Uiso   1.00
C48    C     0.70846   0.36017   0.44534   0.00000  Uiso   1.00
C49    C     0.64775   0.38937   0.42690   0.00000  Uiso   1.00
C50    C     0.59243   0.34988   0.43885   0.00000  Uiso   1.00
C51    C     0.48802   0.30713   0.44760   0.00000  Uiso   1.00
C52    C     0.80848   0.38500   0.54423   0.00000  Uiso   1.00
C53    C     0.83187   0.43509   0.60893   0.00000  Uiso   1.00
C54    C     0.86076   0.41651   0.70411   0.00000  Uiso   1.00
C55    C     0.91166   0.41232   0.86635   0.00000  Uiso   1.00
C56    C     0.81529   0.35378   0.35804   0.00000  Uiso   1.00
C57    C     0.84443   0.37762   0.26620   0.00000  Uiso   1.00
C58    C     0.87907   0.33275   0.20464   0.00000  Uiso   1.00
C59    C     0.94055   0.28008   0.07780   0.00000  Uiso   1.00
C60    C     0.78491   0.27213   0.49086   0.00000  Uiso   1.00
C61    C     0.71374   0.29387   0.47467   0.00000  Uiso   1.00
C62    C     0.65851   0.25432   0.48665   0.00000  Uiso   1.00
C63    C     0.59772   0.28346   0.46823   0.00000  Uiso   1.00
C64    C     0.81376   0.31871   0.57356   0.00000  Uiso   1.00
C65    C     0.84263   0.30004   0.66867   0.00000  Uiso   1.00
C66    C     0.86605   0.35009   0.73350   0.00000  Uiso   1.00
C67    C     0.82057   0.28748   0.38737   0.00000  Uiso   1.00
C68    C     0.85518   0.24257   0.32595   0.00000  Uiso   1.00
C69    C     0.88436   0.26633   0.23403   0.00000  Uiso   1.00
H70    H     0.77108   0.44582   0.41404   0.00000  Uiso   1.00
H71    H     0.64368   0.44069   0.40422   0.00000  Uiso   1.00
H72    H     0.82778   0.48640   0.58620   0.00000  Uiso   1.00
H73    H     0.84033   0.42893   0.24353   0.00000  Uiso   1.00
H74    H     0.50476   0.40576   0.40630   0.00000  Uiso   1.00
H75    H     0.89296   0.50215   0.79001   0.00000  Uiso   1.00
H76    H     0.91943   0.38097   0.06743   0.00000  Uiso   1.00
H77    H     0.78903   0.22051   0.51370   0.00000  Uiso   1.00
H78    H     0.66261   0.20301   0.50935   0.00000  Uiso   1.00
H79    H     0.84671   0.24873   0.69134   0.00000  Uiso   1.00
H80    H     0.85926   0.19126   0.34867   0.00000  Uiso   1.00
H81    H     0.52013   0.21286   0.49164   0.00000  Uiso   1.00
H82    H     0.90833   0.30925   0.87535   0.00000  Uiso   1.00
H83    H     0.93480   0.18807   0.15276   0.00000  Uiso   1.00
O84    O     0.42896   0.30187   0.44434   0.00000  Uiso   1.00
O85    O     0.93828   0.42833   0.94774   0.00000  Uiso   1.00
O86    O     0.97300   0.26934   0.99973   0.00000  Uiso   1.00
N87    N     0.52573   0.36276   0.42696   0.00000  Uiso   1.00
N88    N     0.88867   0.45288   0.78572   0.00000  Uiso   1.00
N89    N     0.91343   0.33959   0.11017   0.00000  Uiso   1.00
N90    N     0.53400   0.25896   0.47288   0.00000  Uiso   1.00
N91    N     0.89693   0.34908   0.83163   0.00000  Uiso   1.00
N92    N     0.92169   0.23579   0.15609   0.00000  Uiso   1.00
C93    C     0.89420   0.72481   0.68686   0.00000  Uiso   1.00
C94    C     0.86017   0.79154   0.69534   0.00000  Uiso   1.00
C95    C     0.88937   0.85225   0.67690   0.00000  Uiso   1.00
C96    C     0.84988   0.90757   0.68885   0.00000  Uiso   1.00
C97    C     0.80713   0.01198   0.69760   0.00000  Uiso   1.00
C98    C     0.88500   0.69152   0.79423   0.00000  Uiso   1.00
C99    C     0.93509   0.66813   0.85893   0.00000  Uiso   1.00
C100   C     0.91651   0.63924   0.95411   0.00000  Uiso   1.00
C101   C     0.91232   0.58834   0.11635   0.00000  Uiso   1.00
C102   C     0.85378   0.68471   0.60804   0.00000  Uiso   1.00
C103   C     0.87762   0.65557   0.51620   0.00000  Uiso   1.00
C104   C     0.83275   0.62093   0.45464   0.00000  Uiso   1.00
C105   C     0.78008   0.55945   0.32780   0.00000  Uiso   1.00
C106   C     0.77213   0.71509   0.74086   0.00000  Uiso   1.00
C107   C     0.79387   0.78626   0.72467   0.00000  Uiso   1.00
C108   C     0.75432   0.84149   0.73665   0.00000  Uiso   1.00
C109   C     0.78346   0.90228   0.71823   0.00000  Uiso   1.00
C110   C     0.81871   0.68624   0.82356   0.00000  Uiso   1.00
C111   C     0.80004   0.65737   0.91867   0.00000  Uiso   1.00
C112   C     0.85009   0.63395   0.98350   0.00000  Uiso   1.00
C113   C     0.78748   0.67943   0.63737   0.00000  Uiso   1.00
C114   C     0.74257   0.64482   0.57595   0.00000  Uiso   1.00
C115   C     0.76633   0.61564   0.48403   0.00000  Uiso   1.00
H116   H     0.94582   0.72892   0.66404   0.00000  Uiso   1.00
H117   H     0.94069   0.85632   0.65422   0.00000  Uiso   1.00
H118   H     0.98640   0.67222   0.83620   0.00000  Uiso   1.00
H119   H     0.92893   0.65967   0.49353   0.00000  Uiso   1.00
H120   H     0.90576   0.99524   0.65630   0.00000  Uiso   1.00
H121   H     0.00215   0.60704   0.04001   0.00000  Uiso   1.00
H122   H     0.88097   0.58057   0.31743   0.00000  Uiso   1.00
H123   H     0.72051   0.71097   0.76370   0.00000  Uiso   1.00
H124   H     0.70301   0.83739   0.75935   0.00000  Uiso   1.00
H125   H     0.74873   0.65329   0.94134   0.00000  Uiso   1.00
H126   H     0.69126   0.64074   0.59867   0.00000  Uiso   1.00
H127   H     0.71286   0.97987   0.74164   0.00000  Uiso   1.00
H128   H     0.80925   0.59167   0.12535   0.00000  Uiso   1.00
H129   H     0.68807   0.56520   0.40276   0.00000  Uiso   1.00
O130   O     0.80187   0.07104   0.69434   0.00000  Uiso   1.00
O131   O     0.92833   0.56172   0.19774   0.00000  Uiso   1.00
O132   O     0.76934   0.52700   0.24973   0.00000  Uiso   1.00
N133   N     0.86276   0.97427   0.67696   0.00000  Uiso   1.00
N134   N     0.95288   0.61133   0.03572   0.00000  Uiso   1.00
N135   N     0.83959   0.58657   0.36017   0.00000  Uiso   1.00
N136   N     0.75896   0.96600   0.72288   0.00000  Uiso   1.00
N137   N     0.84908   0.60307   0.08163   0.00000  Uiso   1.00
N138   N     0.73579   0.57831   0.40609   0.00000  Uiso   1.00
C139   C     0.10580   0.27519   0.18686   0.00000  Uiso   1.00
C140   C     0.13983   0.20846   0.19534   0.00000  Uiso   1.00
C141   C     0.11063   0.14775   0.17690   0.00000  Uiso   1.00
C142   C     0.15012   0.09243   0.18885   0.00000  Uiso   1.00
C143   C     0.19287   0.98802   0.19760   0.00000  Uiso   1.00
C144   C     0.11500   0.30848   0.29423   0.00000  Uiso   1.00
C145   C     0.06491   0.33187   0.35893   0.00000  Uiso   1.00
C146   C     0.08349   0.36076   0.45411   0.00000  Uiso   1.00
C147   C     0.08768   0.41166   0.61635   0.00000  Uiso   1.00
C148   C     0.14622   0.31529   0.10804   0.00000  Uiso   1.00
C149   C     0.12238   0.34443   0.01620   0.00000  Uiso   1.00
C150   C     0.16725   0.37907   0.95464   0.00000  Uiso   1.00
C151   C     0.21992   0.44055   0.82780   0.00000  Uiso   1.00
C152   C     0.22787   0.28491   0.24086   0.00000  Uiso   1.00
C153   C     0.20613   0.21374   0.22467   0.00000  Uiso   1.00
C154   C     0.24568   0.15851   0.23665   0.00000  Uiso   1.00
C155   C     0.21654   0.09772   0.21823   0.00000  Uiso   1.00
C156   C     0.18129   0.31376   0.32356   0.00000  Uiso   1.00
C157   C     0.19996   0.34263   0.41867   0.00000  Uiso   1.00
C158   C     0.14991   0.36605   0.48350   0.00000  Uiso   1.00
C159   C     0.21252   0.32057   0.13737   0.00000  Uiso   1.00
C160   C     0.25743   0.35518   0.07595   0.00000  Uiso   1.00
C161   C     0.23367   0.38436   0.98403   0.00000  Uiso   1.00
H162   H     0.05418   0.27108   0.16404   0.00000  Uiso   1.00
H163   H     0.05931   0.14368   0.15422   0.00000  Uiso   1.00
H164   H     0.01360   0.32778   0.33620   0.00000  Uiso   1.00
H165   H     0.07107   0.34033   0.99353   0.00000  Uiso   1.00
H166   H     0.09424   0.00476   0.15630   0.00000  Uiso   1.00
H167   H     0.99785   0.39296   0.54001   0.00000  Uiso   1.00
H168   H     0.11903   0.41943   0.81743   0.00000  Uiso   1.00
H169   H     0.27949   0.28903   0.26370   0.00000  Uiso   1.00
H170   H     0.29699   0.16261   0.25935   0.00000  Uiso   1.00
H171   H     0.25127   0.34671   0.44134   0.00000  Uiso   1.00
H172   H     0.30874   0.35926   0.09867   0.00000  Uiso   1.00
H173   H     0.28714   0.02013   0.24164   0.00000  Uiso   1.00
H174   H     0.19075   0.40833   0.62535   0.00000  Uiso   1.00
H175   H     0.31193   0.43480   0.90276   0.00000  Uiso   1.00
O176   O     0.19813   0.92896   0.19434   0.00000  Uiso   1.00
O177   O     0.07167   0.43828   0.69774   0.00000  Uiso   1.00
O178   O     0.23066   0.47300   0.74973   0.00000  Uiso   1.00
N179   N     0.13724   0.02573   0.17696   0.00000  Uiso   1.00
N180   N     0.04712   0.38867   0.53572   0.00000  Uiso   1.00
N181   N     0.16041   0.41343   0.86017   0.00000  Uiso   1.00
N182   N     0.24104   0.03400   0.22288   0.00000  Uiso   1.00
N183   N     0.15092   0.39693   0.58163   0.00000  Uiso   1.00
N184   N     0.26421   0.42169   0.90609   0.00000  Uiso   1.00
C185   C     0.27519   0.10580   0.81314   0.00000  Uiso   1.00
C186   C     0.20846   0.13983   0.80466   0.00000  Uiso   1.00
C187   C     0.14775   0.11063   0.82310   0.00000  Uiso   1.00
C188   C     0.09243   0.15012   0.81115   0.00000  Uiso   1.00
C189   C     0.98802   0.19287   0.80240   0.00000  Uiso   1.00
C190   C     0.30848   0.11500   0.70577   0.00000  Uiso   1.00
C191   C     0.33187   0.06491   0.64107   0.00000  Uiso   1.00
C192   C     0.36076   0.08349   0.54589   0.00000  Uiso   1.00
C193   C     0.41166   0.08768   0.38365   0.00000  Uiso   1.00
C194   C     0.31529   0.14622   0.89196   0.00000  Uiso   1.00
C195   C     0.34443   0.12238   0.98380   0.00000  Uiso   1.00
C196   C     0.37907   0.16725   0.04536   0.00000  Uiso   1.00
C197   C     0.44055   0.21992   0.17220   0.00000  Uiso   1.00
C198   C     0.28491   0.22787   0.75914   0.00000  Uiso   1.00
C199   C     0.21374   0.20613   0.77533   0.00000  Uiso   1.00
C200   C     0.15851   0.24568   0.76335   0.00000  Uiso   1.00
C201   C     0.09772   0.21654   0.78177   0.00000  Uiso   1.00
C202   C     0.31376   0.18129   0.67644   0.00000  Uiso   1.00
C203   C     0.34263   0.19996   0.58133   0.00000  Uiso   1.00
C204   C     0.36605   0.14991   0.51650   0.00000  Uiso   1.00
C205   C     0.32057   0.21252   0.86263   0.00000  Uiso   1.00
C206   C     0.35518   0.25743   0.92405   0.00000  Uiso   1.00
C207   C     0.38436   0.23367   0.01597   0.00000  Uiso   1.00
H208   H     0.27108   0.05418   0.83596   0.00000  Uiso   1.00
H209   H     0.14368   0.05931   0.84578   0.00000  Uiso   1.00
H210   H     0.32778   0.01360   0.66380   0.00000  Uiso   1.00
H211   H     0.34033   0.07107   0.00647   0.00000  Uiso   1.00
H212   H     0.00476   0.09424   0.84370   0.00000  Uiso   1.00
H213   H     0.39296   0.99785   0.45999   0.00000  Uiso   1.00
H214   H     0.41943   0.11903   0.18257   0.00000  Uiso   1.00
H215   H     0.28903   0.27949   0.73630   0.00000  Uiso   1.00
H216   H     0.16261   0.29699   0.74065   0.00000  Uiso   1.00
H217   H     0.34671   0.25127   0.55866   0.00000  Uiso   1.00
H218   H     0.35926   0.30874   0.90133   0.00000  Uiso   1.00
H219   H     0.02013   0.28714   0.75836   0.00000  Uiso   1.00
H220   H     0.40833   0.19075   0.37465   0.00000  Uiso   1.00
H221   H     0.43480   0.31193   0.09724   0.00000  Uiso   1.00
O222   O     0.92896   0.19813   0.80566   0.00000  Uiso   1.00
O223   O     0.43828   0.07167   0.30226   0.00000  Uiso   1.00
O224   O     0.47300   0.23066   0.25027   0.00000  Uiso   1.00
N225   N     0.02573   0.13724   0.82304   0.00000  Uiso   1.00
N226   N     0.38867   0.04712   0.46428   0.00000  Uiso   1.00
N227   N     0.41343   0.16041   0.13983   0.00000  Uiso   1.00
N228   N     0.03400   0.24104   0.77712   0.00000  Uiso   1.00
N229   N     0.39693   0.15092   0.41837   0.00000  Uiso   1.00
N230   N     0.42169   0.26421   0.09391   0.00000  Uiso   1.00
C231   C     0.72481   0.89420   0.31314   0.00000  Uiso   1.00
C232   C     0.79154   0.86017   0.30466   0.00000  Uiso   1.00
C233   C     0.85225   0.88937   0.32310   0.00000  Uiso   1.00
C234   C     0.90757   0.84988   0.31115   0.00000  Uiso   1.00
C235   C     0.01198   0.80713   0.30240   0.00000  Uiso   1.00
C236   C     0.69152   0.88500   0.20577   0.00000  Uiso   1.00
C237   C     0.66813   0.93509   0.14107   0.00000  Uiso   1.00
C238   C     0.63924   0.91651   0.04589   0.00000  Uiso   1.00
C239   C     0.58834   0.91232   0.88365   0.00000  Uiso   1.00
C240   C     0.68471   0.85378   0.39196   0.00000  Uiso   1.00
C241   C     0.65557   0.87762   0.48380   0.00000  Uiso   1.00
C242   C     0.62093   0.83275   0.54536   0.00000  Uiso   1.00
C243   C     0.55945   0.78008   0.67220   0.00000  Uiso   1.00
C244   C     0.71509   0.77213   0.25914   0.00000  Uiso   1.00
C245   C     0.78626   0.79387   0.27533   0.00000  Uiso   1.00
C246   C     0.84149   0.75432   0.26335   0.00000  Uiso   1.00
C247   C     0.90228   0.78346   0.28177   0.00000  Uiso   1.00
C248   C     0.68624   0.81871   0.17644   0.00000  Uiso   1.00
C249   C     0.65737   0.80004   0.08133   0.00000  Uiso   1.00
C250   C     0.63395   0.85009   0.01650   0.00000  Uiso   1.00
C251   C     0.67943   0.78748   0.36263   0.00000  Uiso   1.00
C252   C     0.64482   0.74257   0.42405   0.00000  Uiso   1.00
C253   C     0.61564   0.76633   0.51597   0.00000  Uiso   1.00
H254   H     0.72892   0.94582   0.33596   0.00000  Uiso   1.00
H255   H     0.85632   0.94069   0.34578   0.00000  Uiso   1.00
H256   H     0.67222   0.98640   0.16380   0.00000  Uiso   1.00
H257   H     0.65967   0.92893   0.50647   0.00000  Uiso   1.00
H258   H     0.99524   0.90576   0.34370   0.00000  Uiso   1.00
H259   H     0.60704   0.00215   0.95999   0.00000  Uiso   1.00
H260   H     0.58057   0.88097   0.68257   0.00000  Uiso   1.00
H261   H     0.71097   0.72051   0.23630   0.00000  Uiso   1.00
H262   H     0.83739   0.70301   0.24065   0.00000  Uiso   1.00
H263   H     0.65329   0.74873   0.05866   0.00000  Uiso   1.00
H264   H     0.64074   0.69126   0.40133   0.00000  Uiso   1.00
H265   H     0.97987   0.71286   0.25836   0.00000  Uiso   1.00
H266   H     0.59167   0.80925   0.87465   0.00000  Uiso   1.00
H267   H     0.56520   0.68807   0.59724   0.00000  Uiso   1.00
O268   O     0.07104   0.80187   0.30566   0.00000  Uiso   1.00
O269   O     0.56172   0.92833   0.80226   0.00000  Uiso   1.00
O270   O     0.52700   0.76934   0.75027   0.00000  Uiso   1.00
N271   N     0.97427   0.86276   0.32304   0.00000  Uiso   1.00
N272   N     0.61133   0.95288   0.96428   0.00000  Uiso   1.00
N273   N     0.58657   0.83959   0.63983   0.00000  Uiso   1.00
N274   N     0.96600   0.75896   0.27712   0.00000  Uiso   1.00
N275   N     0.60307   0.84908   0.91837   0.00000  Uiso   1.00
N276   N     0.57831   0.73579   0.59391   0.00000  Uiso   1.00
C277   C     0.60580   0.22481   0.06314   0.00000  Uiso   1.00
C278   C     0.63983   0.29154   0.05466   0.00000  Uiso   1.00
C279   C     0.61063   0.35225   0.07310   0.00000  Uiso   1.00
C280   C     0.65012   0.40757   0.06115   0.00000  Uiso   1.00
C281   C     0.69287   0.51198   0.05240   0.00000  Uiso   1.00
C282   C     0.61500   0.19152   0.95577   0.00000  Uiso   1.00
C283   C     0.56491   0.16813   0.89107   0.00000  Uiso   1.00
C284   C     0.58349   0.13924   0.79589   0.00000  Uiso   1.00
C285   C     0.58768   0.08834   0.63365   0.00000  Uiso   1.00
C286   C     0.64622   0.18471   0.14196   0.00000  Uiso   1.00
C287   C     0.62238   0.15557   0.23380   0.00000  Uiso   1.00
C288   C     0.66725   0.12093   0.29536   0.00000  Uiso   1.00
C289   C     0.71992   0.05945   0.42220   0.00000  Uiso   1.00
C290   C     0.72787   0.21509   0.00914   0.00000  Uiso   1.00
C291   C     0.70613   0.28626   0.02533   0.00000  Uiso   1.00
C292   C     0.74568   0.34149   0.01335   0.00000  Uiso   1.00
C293   C     0.71654   0.40228   0.03177   0.00000  Uiso   1.00
C294   C     0.68129   0.18624   0.92644   0.00000  Uiso   1.00
C295   C     0.69996   0.15737   0.83133   0.00000  Uiso   1.00
C296   C     0.64991   0.13395   0.76650   0.00000  Uiso   1.00
C297   C     0.71252   0.17943   0.11263   0.00000  Uiso   1.00
C298   C     0.75743   0.14482   0.17405   0.00000  Uiso   1.00
C299   C     0.73367   0.11564   0.26597   0.00000  Uiso   1.00
H300   H     0.55418   0.22892   0.08596   0.00000  Uiso   1.00
H301   H     0.55931   0.35632   0.09578   0.00000  Uiso   1.00
H302   H     0.51360   0.17222   0.91380   0.00000  Uiso   1.00
H303   H     0.57107   0.15967   0.25647   0.00000  Uiso   1.00
H304   H     0.59424   0.49524   0.09370   0.00000  Uiso   1.00
H305   H     0.49785   0.10704   0.70999   0.00000  Uiso   1.00
H306   H     0.61903   0.08057   0.43257   0.00000  Uiso   1.00
H307   H     0.77949   0.21097   0.98630   0.00000  Uiso   1.00
H308   H     0.79699   0.33739   0.99065   0.00000  Uiso   1.00
H309   H     0.75127   0.15329   0.80866   0.00000  Uiso   1.00
H310   H     0.80874   0.14074   0.15133   0.00000  Uiso   1.00
H311   H     0.78714   0.47987   0.00836   0.00000  Uiso   1.00
H312   H     0.69075   0.09167   0.62465   0.00000  Uiso   1.00
H313   H     0.81193   0.06520   0.34724   0.00000  Uiso   1.00
O314   O     0.69813   0.57104   0.05566   0.00000  Uiso   1.00
O315   O     0.57167   0.06172   0.55226   0.00000  Uiso   1.00
O316   O     0.73066   0.02700   0.50027   0.00000  Uiso   1.00
N317   N     0.63724   0.47427   0.07304   0.00000  Uiso   1.00
N318   N     0.54712   0.11133   0.71428   0.00000  Uiso   1.00
N319   N     0.66041   0.08657   0.38983   0.00000  Uiso   1.00
N320   N     0.74104   0.46600   0.02712   0.00000  Uiso   1.00
N321   N     0.65092   0.10307   0.66837   0.00000  Uiso   1.00
N322   N     0.76421   0.07831   0.34391   0.00000  Uiso   1.00
C323   C     0.39420   0.77519   0.56314   0.00000  Uiso   1.00
C324   C     0.36017   0.70846   0.55466   0.00000  Uiso   1.00
C325   C     0.38937   0.64775   0.57310   0.00000  Uiso   1.00
C326   C     0.34988   0.59243   0.56115   0.00000  Uiso   1.00
C327   C     0.30713   0.48802   0.55240   0.00000  Uiso   1.00
C328   C     0.38500   0.80848   0.45577   0.00000  Uiso   1.00
C329   C     0.43509   0.83187   0.39107   0.00000  Uiso   1.00
C330   C     0.41651   0.86076   0.29589   0.00000  Uiso   1.00
C331   C     0.41232   0.91166   0.13365   0.00000  Uiso   1.00
C332   C     0.35378   0.81529   0.64196   0.00000  Uiso   1.00
C333   C     0.37762   0.84443   0.73380   0.00000  Uiso   1.00
C334   C     0.33275   0.87907   0.79536   0.00000  Uiso   1.00
C335   C     0.28008   0.94055   0.92220   0.00000  Uiso   1.00
C336   C     0.27213   0.78491   0.50914   0.00000  Uiso   1.00
C337   C     0.29387   0.71374   0.52533   0.00000  Uiso   1.00
C338   C     0.25432   0.65851   0.51335   0.00000  Uiso   1.00
C339   C     0.28346   0.59772   0.53177   0.00000  Uiso   1.00
C340   C     0.31871   0.81376   0.42644   0.00000  Uiso   1.00
C341   C     0.30004   0.84263   0.33133   0.00000  Uiso   1.00
C342   C     0.35009   0.86605   0.26650   0.00000  Uiso   1.00
C343   C     0.28748   0.82057   0.61263   0.00000  Uiso   1.00
C344   C     0.24257   0.85518   0.67405   0.00000  Uiso   1.00
C345   C     0.26633   0.88436   0.76597   0.00000  Uiso   1.00
H346   H     0.44582   0.77108   0.58596   0.00000  Uiso   1.00
H347   H     0.44069   0.64368   0.59578   0.00000  Uiso   1.00
H348   H     0.48640   0.82778   0.41380   0.00000  Uiso   1.00
H349   H     0.42893   0.84033   0.75647   0.00000  Uiso   1.00
H350   H     0.40576   0.50476   0.59370   0.00000  Uiso   1.00
H351   H     0.50215   0.89296   0.20999   0.00000  Uiso   1.00
H352   H     0.38097   0.91943   0.93257   0.00000  Uiso   1.00
H353   H     0.22051   0.78903   0.48630   0.00000  Uiso   1.00
H354   H     0.20301   0.66261   0.49065   0.00000  Uiso   1.00
H355   H     0.24873   0.84671   0.30866   0.00000  Uiso   1.00
H356   H     0.19126   0.85926   0.65133   0.00000  Uiso   1.00
H357   H     0.21286   0.52013   0.50836   0.00000  Uiso   1.00
H358   H     0.30925   0.90833   0.12465   0.00000  Uiso   1.00
H359   H     0.18807   0.93480   0.84724   0.00000  Uiso   1.00
O360   O     0.30187   0.42896   0.55566   0.00000  Uiso   1.00
O361   O     0.42833   0.93828   0.05226   0.00000  Uiso   1.00
O362   O     0.26934   0.97300   0.00027   0.00000  Uiso   1.00
N363   N     0.36276   0.52573   0.57304   0.00000  Uiso   1.00
N364   N     0.45288   0.88867   0.21428   0.00000  Uiso   1.00
N365   N     0.33959   0.91343   0.88983   0.00000  Uiso   1.00
N366   N     0.25896   0.53400   0.52712   0.00000  Uiso   1.00
N367   N     0.34908   0.89693   0.16837   0.00000  Uiso   1.00
N368   N     0.23579   0.92169   0.84391   0.00000  Uiso   1.00
