data_job_02345
_audit_creation_date              2018-12-19
_audit_creation_method            'Materials Studio'
_symmetry_space_group_name_H-M    'P1'
_symmetry_Int_Tables_number       1
_symmetry_cell_setting            triclinic
loop_
_symmetry_equiv_pos_as_xyz
  x,y,z
_cell_length_a                    20.1236
_cell_length_b                    24.5464
_cell_length_c                    11.9884
_cell_angle_alpha                 90.0000
_cell_angle_beta                  148.7720
_cell_angle_gamma                 90.0000
loop_
_atom_site_label
_atom_site_type_symbol
_atom_site_fract_x
_atom_site_fract_y
_atom_site_fract_z
_atom_site_U_iso_or_equiv
_atom_site_adp_type
_atom_site_occupancy
C1     C     0.88515   0.69004   0.79690   0.00000  Uiso   1.00
C2     C     0.91317   0.67472   0.95794   0.00000  Uiso   1.00
C3     C     0.99871   0.70115   0.15093   0.00000  Uiso   1.00
C4     C     0.01069   0.68087   0.27574   0.00000  Uiso   1.00
C5     C     0.06505   0.66392   0.53589   0.00000  Uiso   1.00
C6     C     0.91174   0.63902   0.76628   0.00000  Uiso   1.00
C7     C     0.99607   0.63545   0.79809   0.00000  Uiso   1.00
C8     C     0.00683   0.58512   0.76151   0.00000  Uiso   1.00
C9     C     0.05889   0.51275   0.72395   0.00000  Uiso   1.00
C10    C     0.74090   0.69949   0.58320   0.00000  Uiso   1.00
C11    C     0.68158   0.74676   0.46103   0.00000  Uiso   1.00
C12    C     0.54851   0.74734   0.27029   0.00000  Uiso   1.00
C13    C     0.33532   0.76887   0.94847   0.00000  Uiso   1.00
C14    C     0.75431   0.60702   0.67535   0.00000  Uiso   1.00
C15    C     0.84210   0.62962   0.89192   0.00000  Uiso   1.00
C16    C     0.85395   0.60930   0.01646   0.00000  Uiso   1.00
C17    C     0.93949   0.63570   0.20960   0.00000  Uiso   1.00
C18    C     0.84067   0.59393   0.70026   0.00000  Uiso   1.00
C19    C     0.85130   0.54359   0.66361   0.00000  Uiso   1.00
C20    C     0.93563   0.53994   0.69538   0.00000  Uiso   1.00
C21    C     0.66983   0.65440   0.51718   0.00000  Uiso   1.00
C22    C     0.53682   0.65491   0.32657   0.00000  Uiso   1.00
C23    C     0.47731   0.70216   0.20415   0.00000  Uiso   1.00
H24    H     0.94049   0.72515   0.84830   0.00000  Uiso   1.00
H25    H     0.05370   0.73605   0.20198   0.00000  Uiso   1.00
H26    H     0.05104   0.67035   0.84916   0.00000  Uiso   1.00
H27    H     0.73661   0.78165   0.51218   0.00000  Uiso   1.00
H28    H     0.14791   0.72823   0.56502   0.00000  Uiso   1.00
H29    H     0.14228   0.58971   0.82102   0.00000  Uiso   1.00
H30    H     0.47923   0.82440   0.11041   0.00000  Uiso   1.00
H31    H     0.69898   0.57191   0.62395   0.00000  Uiso   1.00
H32    H     0.79894   0.57440   0.96533   0.00000  Uiso   1.00
H33    H     0.79628   0.50871   0.61252   0.00000  Uiso   1.00
H34    H     0.48185   0.62000   0.27553   0.00000  Uiso   1.00
H35    H     0.94114   0.59703   0.37295   0.00000  Uiso   1.00
H36    H     0.93551   0.45851   0.62894   0.00000  Uiso   1.00
H37    H     0.27246   0.69321   0.91834   0.00000  Uiso   1.00
O38    O     0.11467   0.66702   0.69763   0.00000  Uiso   1.00
O39    O     0.10726   0.48530   0.72149   0.00000  Uiso   1.00
O40    O     0.23737   0.79321   0.78921   0.00000  Uiso   1.00
N41    N     0.08551   0.69702   0.47295   0.00000  Uiso   1.00
N42    N     0.08026   0.56751   0.77738   0.00000  Uiso   1.00
N43    N     0.46037   0.78692   0.11300   0.00000  Uiso   1.00
N44    N     0.97425   0.62642   0.36959   0.00000  Uiso   1.00
N45    N     0.96900   0.49691   0.67403   0.00000  Uiso   1.00
N46    N     0.34910   0.71633   0.00965   0.00000  Uiso   1.00
C47    C     0.11485   0.19004   0.70310   0.00000  Uiso   1.00
C48    C     0.08683   0.17472   0.54206   0.00000  Uiso   1.00
C49    C     0.00129   0.20115   0.34907   0.00000  Uiso   1.00
C50    C     0.98931   0.18087   0.22426   0.00000  Uiso   1.00
C51    C     0.93495   0.16392   0.96411   0.00000  Uiso   1.00
C52    C     0.08826   0.13902   0.73372   0.00000  Uiso   1.00
C53    C     0.00393   0.13545   0.70191   0.00000  Uiso   1.00
C54    C     0.99317   0.08512   0.73849   0.00000  Uiso   1.00
C55    C     0.94111   0.01275   0.77605   0.00000  Uiso   1.00
C56    C     0.25910   0.19949   0.91680   0.00000  Uiso   1.00
C57    C     0.31842   0.24676   0.03897   0.00000  Uiso   1.00
C58    C     0.45149   0.24734   0.22971   0.00000  Uiso   1.00
C59    C     0.66468   0.26887   0.55153   0.00000  Uiso   1.00
C60    C     0.24569   0.10702   0.82465   0.00000  Uiso   1.00
C61    C     0.15790   0.12962   0.60808   0.00000  Uiso   1.00
C62    C     0.14605   0.10930   0.48354   0.00000  Uiso   1.00
C63    C     0.06051   0.13570   0.29040   0.00000  Uiso   1.00
C64    C     0.15933   0.09393   0.79974   0.00000  Uiso   1.00
C65    C     0.14870   0.04359   0.83639   0.00000  Uiso   1.00
C66    C     0.06437   0.03994   0.80462   0.00000  Uiso   1.00
C67    C     0.33017   0.15440   0.98282   0.00000  Uiso   1.00
C68    C     0.46318   0.15491   0.17343   0.00000  Uiso   1.00
C69    C     0.52269   0.20216   0.29585   0.00000  Uiso   1.00
H70    H     0.05951   0.22515   0.65170   0.00000  Uiso   1.00
H71    H     0.94630   0.23605   0.29802   0.00000  Uiso   1.00
H72    H     0.94896   0.17035   0.65084   0.00000  Uiso   1.00
H73    H     0.26339   0.28165   0.98782   0.00000  Uiso   1.00
H74    H     0.85209   0.22823   0.93498   0.00000  Uiso   1.00
H75    H     0.85772   0.08971   0.67898   0.00000  Uiso   1.00
H76    H     0.52077   0.32440   0.38959   0.00000  Uiso   1.00
H77    H     0.30102   0.07191   0.87605   0.00000  Uiso   1.00
H78    H     0.20106   0.07440   0.53467   0.00000  Uiso   1.00
H79    H     0.20372   0.00871   0.88748   0.00000  Uiso   1.00
H80    H     0.51815   0.12000   0.22447   0.00000  Uiso   1.00
H81    H     0.05886   0.09703   0.12705   0.00000  Uiso   1.00
H82    H     0.06449   0.95851   0.87106   0.00000  Uiso   1.00
H83    H     0.72754   0.19321   0.58166   0.00000  Uiso   1.00
O84    O     0.88533   0.16702   0.80237   0.00000  Uiso   1.00
O85    O     0.89274   0.98530   0.77851   0.00000  Uiso   1.00
O86    O     0.76263   0.29321   0.71079   0.00000  Uiso   1.00
N87    N     0.91449   0.19702   0.02705   0.00000  Uiso   1.00
N88    N     0.91974   0.06751   0.72262   0.00000  Uiso   1.00
N89    N     0.53963   0.28692   0.38700   0.00000  Uiso   1.00
N90    N     0.02575   0.12642   0.13041   0.00000  Uiso   1.00
N91    N     0.03100   0.99691   0.82597   0.00000  Uiso   1.00
N92    N     0.65090   0.21633   0.49035   0.00000  Uiso   1.00
C93    C     0.11485   0.30996   0.20310   0.00000  Uiso   1.00
C94    C     0.08683   0.32528   0.04206   0.00000  Uiso   1.00
C95    C     0.00129   0.29885   0.84907   0.00000  Uiso   1.00
C96    C     0.98931   0.31913   0.72426   0.00000  Uiso   1.00
C97    C     0.93495   0.33608   0.46411   0.00000  Uiso   1.00
C98    C     0.08826   0.36098   0.23372   0.00000  Uiso   1.00
C99    C     0.00393   0.36455   0.20191   0.00000  Uiso   1.00
C100   C     0.99317   0.41488   0.23849   0.00000  Uiso   1.00
C101   C     0.94111   0.48725   0.27605   0.00000  Uiso   1.00
C102   C     0.25910   0.30051   0.41680   0.00000  Uiso   1.00
C103   C     0.31842   0.25324   0.53897   0.00000  Uiso   1.00
C104   C     0.45149   0.25266   0.72971   0.00000  Uiso   1.00
C105   C     0.66468   0.23113   0.05153   0.00000  Uiso   1.00
C106   C     0.24569   0.39298   0.32465   0.00000  Uiso   1.00
C107   C     0.15790   0.37038   0.10808   0.00000  Uiso   1.00
C108   C     0.14605   0.39070   0.98354   0.00000  Uiso   1.00
C109   C     0.06051   0.36430   0.79040   0.00000  Uiso   1.00
C110   C     0.15933   0.40607   0.29974   0.00000  Uiso   1.00
C111   C     0.14870   0.45641   0.33639   0.00000  Uiso   1.00
C112   C     0.06437   0.46006   0.30462   0.00000  Uiso   1.00
C113   C     0.33017   0.34560   0.48282   0.00000  Uiso   1.00
C114   C     0.46318   0.34509   0.67343   0.00000  Uiso   1.00
C115   C     0.52269   0.29784   0.79585   0.00000  Uiso   1.00
H116   H     0.05951   0.27485   0.15170   0.00000  Uiso   1.00
H117   H     0.94630   0.26395   0.79802   0.00000  Uiso   1.00
H118   H     0.94896   0.32965   0.15084   0.00000  Uiso   1.00
H119   H     0.26339   0.21835   0.48782   0.00000  Uiso   1.00
H120   H     0.85209   0.27177   0.43498   0.00000  Uiso   1.00
H121   H     0.85772   0.41029   0.17898   0.00000  Uiso   1.00
H122   H     0.52077   0.17560   0.88959   0.00000  Uiso   1.00
H123   H     0.30102   0.42809   0.37605   0.00000  Uiso   1.00
H124   H     0.20106   0.42560   0.03467   0.00000  Uiso   1.00
H125   H     0.20372   0.49129   0.38748   0.00000  Uiso   1.00
H126   H     0.51815   0.38000   0.72447   0.00000  Uiso   1.00
H127   H     0.05886   0.40297   0.62705   0.00000  Uiso   1.00
H128   H     0.06449   0.54149   0.37106   0.00000  Uiso   1.00
H129   H     0.72754   0.30679   0.08166   0.00000  Uiso   1.00
O130   O     0.88533   0.33298   0.30237   0.00000  Uiso   1.00
O131   O     0.89274   0.51470   0.27851   0.00000  Uiso   1.00
O132   O     0.76263   0.20679   0.21079   0.00000  Uiso   1.00
N133   N     0.91449   0.30298   0.52705   0.00000  Uiso   1.00
N134   N     0.91974   0.43249   0.22262   0.00000  Uiso   1.00
N135   N     0.53963   0.21308   0.88700   0.00000  Uiso   1.00
N136   N     0.02575   0.37358   0.63041   0.00000  Uiso   1.00
N137   N     0.03100   0.50309   0.32597   0.00000  Uiso   1.00
N138   N     0.65090   0.28367   0.99035   0.00000  Uiso   1.00
C139   C     0.88515   0.80996   0.29690   0.00000  Uiso   1.00
C140   C     0.91317   0.82528   0.45794   0.00000  Uiso   1.00
C141   C     0.99871   0.79885   0.65093   0.00000  Uiso   1.00
C142   C     0.01069   0.81913   0.77574   0.00000  Uiso   1.00
C143   C     0.06505   0.83608   0.03589   0.00000  Uiso   1.00
C144   C     0.91174   0.86098   0.26628   0.00000  Uiso   1.00
C145   C     0.99607   0.86455   0.29809   0.00000  Uiso   1.00
C146   C     0.00683   0.91488   0.26151   0.00000  Uiso   1.00
C147   C     0.05889   0.98725   0.22395   0.00000  Uiso   1.00
C148   C     0.74090   0.80051   0.08320   0.00000  Uiso   1.00
C149   C     0.68158   0.75324   0.96103   0.00000  Uiso   1.00
C150   C     0.54851   0.75266   0.77029   0.00000  Uiso   1.00
C151   C     0.33532   0.73113   0.44847   0.00000  Uiso   1.00
C152   C     0.75431   0.89298   0.17535   0.00000  Uiso   1.00
C153   C     0.84210   0.87038   0.39192   0.00000  Uiso   1.00
C154   C     0.85395   0.89070   0.51646   0.00000  Uiso   1.00
C155   C     0.93949   0.86430   0.70960   0.00000  Uiso   1.00
C156   C     0.84067   0.90607   0.20026   0.00000  Uiso   1.00
C157   C     0.85130   0.95641   0.16361   0.00000  Uiso   1.00
C158   C     0.93563   0.96006   0.19538   0.00000  Uiso   1.00
C159   C     0.66983   0.84560   0.01718   0.00000  Uiso   1.00
C160   C     0.53682   0.84509   0.82657   0.00000  Uiso   1.00
C161   C     0.47731   0.79784   0.70415   0.00000  Uiso   1.00
H162   H     0.94049   0.77485   0.34830   0.00000  Uiso   1.00
H163   H     0.05370   0.76395   0.70198   0.00000  Uiso   1.00
H164   H     0.05104   0.82965   0.34916   0.00000  Uiso   1.00
H165   H     0.73661   0.71835   0.01218   0.00000  Uiso   1.00
H166   H     0.14791   0.77177   0.06502   0.00000  Uiso   1.00
H167   H     0.14228   0.91029   0.32102   0.00000  Uiso   1.00
H168   H     0.47923   0.67560   0.61041   0.00000  Uiso   1.00
H169   H     0.69898   0.92809   0.12395   0.00000  Uiso   1.00
H170   H     0.79894   0.92560   0.46533   0.00000  Uiso   1.00
H171   H     0.79628   0.99129   0.11252   0.00000  Uiso   1.00
H172   H     0.48185   0.88000   0.77553   0.00000  Uiso   1.00
H173   H     0.94114   0.90297   0.87295   0.00000  Uiso   1.00
H174   H     0.93551   0.04149   0.12894   0.00000  Uiso   1.00
H175   H     0.27246   0.80679   0.41834   0.00000  Uiso   1.00
O176   O     0.11467   0.83298   0.19763   0.00000  Uiso   1.00
O177   O     0.10726   0.01470   0.22149   0.00000  Uiso   1.00
O178   O     0.23737   0.70679   0.28921   0.00000  Uiso   1.00
N179   N     0.08551   0.80298   0.97295   0.00000  Uiso   1.00
N180   N     0.08026   0.93249   0.27738   0.00000  Uiso   1.00
N181   N     0.46037   0.71308   0.61300   0.00000  Uiso   1.00
N182   N     0.97425   0.87358   0.86959   0.00000  Uiso   1.00
N183   N     0.96900   0.00309   0.17403   0.00000  Uiso   1.00
N184   N     0.34910   0.78368   0.50965   0.00000  Uiso   1.00
