data_job_03414
_audit_creation_date              2018-12-19
_audit_creation_method            'Materials Studio'
_symmetry_space_group_name_H-M    'P1'
_symmetry_Int_Tables_number       1
_symmetry_cell_setting            triclinic
loop_
_symmetry_equiv_pos_as_xyz
  x,y,z
_cell_length_a                    22.6784
_cell_length_b                    15.7820
_cell_length_c                    15.5293
_cell_angle_alpha                 90.0000
_cell_angle_beta                  144.7260
_cell_angle_gamma                 90.0000
loop_
_atom_site_label
_atom_site_type_symbol
_atom_site_fract_x
_atom_site_fract_y
_atom_site_fract_z
_atom_site_U_iso_or_equiv
_atom_site_adp_type
_atom_site_occupancy
C1     C     0.21151   0.80713   0.41853   0.00000  Uiso   1.00
C2     C     0.22134   0.89114   0.38246   0.00000  Uiso   1.00
C3     C     0.25778   0.96635   0.46053   0.00000  Uiso   1.00
C4     C     0.26076   0.03622   0.40982   0.00000  Uiso   1.00
C5     C     0.28089   0.16748   0.37267   0.00000  Uiso   1.00
C6     C     0.09990   0.78085   0.27716   0.00000  Uiso   1.00
C7     C     0.03423   0.76332   0.26671   0.00000  Uiso   1.00
C8     C     0.93497   0.74034   0.12736   0.00000  Uiso   1.00
C9     C     0.76658   0.70032   0.92675   0.00000  Uiso   1.00
C10    C     0.27251   0.74278   0.43911   0.00000  Uiso   1.00
C11    C     0.35197   0.69322   0.56482   0.00000  Uiso   1.00
C12    C     0.39803   0.63817   0.56181   0.00000  Uiso   1.00
C13    C     0.49764   0.53903   0.61266   0.00000  Uiso   1.00
C14    C     0.15201   0.79748   0.18963   0.00000  Uiso   1.00
C15    C     0.18902   0.88589   0.25812   0.00000  Uiso   1.00
C16    C     0.19195   0.95567   0.20728   0.00000  Uiso   1.00
C17    C     0.22838   0.03097   0.28527   0.00000  Uiso   1.00
C18    C     0.06757   0.77561   0.15283   0.00000  Uiso   1.00
C19    C     0.96839   0.75265   0.01346   0.00000  Uiso   1.00
C20    C     0.90259   0.73509   0.00280   0.00000  Uiso   1.00
C21    C     0.24019   0.73754   0.31478   0.00000  Uiso   1.00
C22    C     0.28613   0.68255   0.31157   0.00000  Uiso   1.00
C23    C     0.36564   0.63292   0.43725   0.00000  Uiso   1.00
H24    H     0.23667   0.81120   0.51532   0.00000  Uiso   1.00
H25    H     0.28278   0.97038   0.55674   0.00000  Uiso   1.00
H26    H     0.05927   0.76737   0.36295   0.00000  Uiso   1.00
H27    H     0.37696   0.69729   0.66101   0.00000  Uiso   1.00
H28    H     0.31961   0.14455   0.54779   0.00000  Uiso   1.00
H29    H     0.84833   0.71648   0.13919   0.00000  Uiso   1.00
H30    H     0.51824   0.56869   0.76772   0.00000  Uiso   1.00
H31    H     0.12684   0.79339   0.09283   0.00000  Uiso   1.00
H32    H     0.16693   0.95160   0.11106   0.00000  Uiso   1.00
H33    H     0.94341   0.74859   0.91727   0.00000  Uiso   1.00
H34    H     0.26110   0.67851   0.21533   0.00000  Uiso   1.00
H35    H     0.22557   0.12931   0.18606   0.00000  Uiso   1.00
H36    H     0.75430   0.70123   0.77745   0.00000  Uiso   1.00
H37    H     0.42421   0.55344   0.40598   0.00000  Uiso   1.00
O38    O     0.30091   0.24133   0.38651   0.00000  Uiso   1.00
O39    O     0.68262   0.67970   0.85045   0.00000  Uiso   1.00
O40    O     0.56153   0.48581   0.67506   0.00000  Uiso   1.00
N41    N     0.29199   0.11925   0.46018   0.00000  Uiso   1.00
N42    N     0.85137   0.71904   0.07815   0.00000  Uiso   1.00
N43    N     0.47767   0.58085   0.66575   0.00000  Uiso   1.00
N44    N     0.24140   0.11105   0.26553   0.00000  Uiso   1.00
N45    N     0.80078   0.71084   0.88350   0.00000  Uiso   1.00
N46    N     0.42707   0.57265   0.47111   0.00000  Uiso   1.00
C47    C     0.78849   0.30713   0.08147   0.00000  Uiso   1.00
C48    C     0.77866   0.39114   0.11754   0.00000  Uiso   1.00
C49    C     0.74222   0.46635   0.03947   0.00000  Uiso   1.00
C50    C     0.73924   0.53622   0.09018   0.00000  Uiso   1.00
C51    C     0.71911   0.66748   0.12733   0.00000  Uiso   1.00
C52    C     0.90010   0.28085   0.22284   0.00000  Uiso   1.00
C53    C     0.96577   0.26332   0.23329   0.00000  Uiso   1.00
C54    C     0.06503   0.24034   0.37264   0.00000  Uiso   1.00
C55    C     0.23342   0.20032   0.57325   0.00000  Uiso   1.00
C56    C     0.72749   0.24278   0.06089   0.00000  Uiso   1.00
C57    C     0.64803   0.19322   0.93518   0.00000  Uiso   1.00
C58    C     0.60197   0.13817   0.93819   0.00000  Uiso   1.00
C59    C     0.50236   0.03903   0.88734   0.00000  Uiso   1.00
C60    C     0.84799   0.29748   0.31037   0.00000  Uiso   1.00
C61    C     0.81098   0.38589   0.24188   0.00000  Uiso   1.00
C62    C     0.80805   0.45567   0.29272   0.00000  Uiso   1.00
C63    C     0.77162   0.53097   0.21473   0.00000  Uiso   1.00
C64    C     0.93243   0.27561   0.34717   0.00000  Uiso   1.00
C65    C     0.03161   0.25265   0.48654   0.00000  Uiso   1.00
C66    C     0.09741   0.23509   0.49720   0.00000  Uiso   1.00
C67    C     0.75981   0.23754   0.18522   0.00000  Uiso   1.00
C68    C     0.71387   0.18255   0.18843   0.00000  Uiso   1.00
C69    C     0.63436   0.13292   0.06275   0.00000  Uiso   1.00
H70    H     0.76333   0.31120   0.98468   0.00000  Uiso   1.00
H71    H     0.71722   0.47038   0.94326   0.00000  Uiso   1.00
H72    H     0.94073   0.26737   0.13705   0.00000  Uiso   1.00
H73    H     0.62304   0.19729   0.83899   0.00000  Uiso   1.00
H74    H     0.68039   0.64455   0.95221   0.00000  Uiso   1.00
H75    H     0.15167   0.21648   0.36081   0.00000  Uiso   1.00
H76    H     0.48176   0.06869   0.73228   0.00000  Uiso   1.00
H77    H     0.87316   0.29339   0.40717   0.00000  Uiso   1.00
H78    H     0.83307   0.45160   0.38894   0.00000  Uiso   1.00
H79    H     0.05659   0.24859   0.58273   0.00000  Uiso   1.00
H80    H     0.73890   0.17851   0.28467   0.00000  Uiso   1.00
H81    H     0.77443   0.62931   0.31394   0.00000  Uiso   1.00
H82    H     0.24570   0.20123   0.72255   0.00000  Uiso   1.00
H83    H     0.57579   0.05344   0.09402   0.00000  Uiso   1.00
O84    O     0.69909   0.74133   0.11349   0.00000  Uiso   1.00
O85    O     0.31738   0.17970   0.64955   0.00000  Uiso   1.00
O86    O     0.43847   0.98581   0.82494   0.00000  Uiso   1.00
N87    N     0.70801   0.61925   0.03982   0.00000  Uiso   1.00
N88    N     0.14863   0.21904   0.42185   0.00000  Uiso   1.00
N89    N     0.52233   0.08085   0.83425   0.00000  Uiso   1.00
N90    N     0.75860   0.61105   0.23447   0.00000  Uiso   1.00
N91    N     0.19922   0.21084   0.61650   0.00000  Uiso   1.00
N92    N     0.57293   0.07265   0.02889   0.00000  Uiso   1.00
C93    C     0.78849   0.19287   0.58147   0.00000  Uiso   1.00
C94    C     0.77866   0.10886   0.61754   0.00000  Uiso   1.00
C95    C     0.74222   0.03365   0.53947   0.00000  Uiso   1.00
C96    C     0.73924   0.96378   0.59018   0.00000  Uiso   1.00
C97    C     0.71911   0.83252   0.62733   0.00000  Uiso   1.00
C98    C     0.90010   0.21915   0.72284   0.00000  Uiso   1.00
C99    C     0.96577   0.23668   0.73329   0.00000  Uiso   1.00
C100   C     0.06503   0.25966   0.87264   0.00000  Uiso   1.00
C101   C     0.23342   0.29968   0.07325   0.00000  Uiso   1.00
C102   C     0.72749   0.25722   0.56089   0.00000  Uiso   1.00
C103   C     0.64803   0.30678   0.43518   0.00000  Uiso   1.00
C104   C     0.60197   0.36183   0.43819   0.00000  Uiso   1.00
C105   C     0.50236   0.46097   0.38734   0.00000  Uiso   1.00
C106   C     0.84799   0.20252   0.81037   0.00000  Uiso   1.00
C107   C     0.81098   0.11411   0.74188   0.00000  Uiso   1.00
C108   C     0.80805   0.04433   0.79272   0.00000  Uiso   1.00
C109   C     0.77162   0.96903   0.71473   0.00000  Uiso   1.00
C110   C     0.93243   0.22439   0.84717   0.00000  Uiso   1.00
C111   C     0.03161   0.24735   0.98654   0.00000  Uiso   1.00
C112   C     0.09741   0.26491   0.99720   0.00000  Uiso   1.00
C113   C     0.75981   0.26246   0.68522   0.00000  Uiso   1.00
C114   C     0.71387   0.31745   0.68843   0.00000  Uiso   1.00
C115   C     0.63436   0.36708   0.56275   0.00000  Uiso   1.00
H116   H     0.76333   0.18880   0.48468   0.00000  Uiso   1.00
H117   H     0.71722   0.02962   0.44326   0.00000  Uiso   1.00
H118   H     0.94073   0.23263   0.63705   0.00000  Uiso   1.00
H119   H     0.62304   0.30271   0.33899   0.00000  Uiso   1.00
H120   H     0.68039   0.85545   0.45221   0.00000  Uiso   1.00
H121   H     0.15167   0.28352   0.86081   0.00000  Uiso   1.00
H122   H     0.48176   0.43131   0.23228   0.00000  Uiso   1.00
H123   H     0.87316   0.20661   0.90717   0.00000  Uiso   1.00
H124   H     0.83307   0.04840   0.88894   0.00000  Uiso   1.00
H125   H     0.05659   0.25141   0.08273   0.00000  Uiso   1.00
H126   H     0.73890   0.32149   0.78467   0.00000  Uiso   1.00
H127   H     0.77443   0.87069   0.81394   0.00000  Uiso   1.00
H128   H     0.24570   0.29877   0.22255   0.00000  Uiso   1.00
H129   H     0.57579   0.44656   0.59402   0.00000  Uiso   1.00
O130   O     0.69909   0.75867   0.61349   0.00000  Uiso   1.00
O131   O     0.31738   0.32030   0.14955   0.00000  Uiso   1.00
O132   O     0.43847   0.51419   0.32494   0.00000  Uiso   1.00
N133   N     0.70801   0.88075   0.53982   0.00000  Uiso   1.00
N134   N     0.14863   0.28096   0.92185   0.00000  Uiso   1.00
N135   N     0.52233   0.41915   0.33425   0.00000  Uiso   1.00
N136   N     0.75860   0.88895   0.73447   0.00000  Uiso   1.00
N137   N     0.19922   0.28916   0.11650   0.00000  Uiso   1.00
N138   N     0.57293   0.42735   0.52889   0.00000  Uiso   1.00
C139   C     0.21151   0.69287   0.91853   0.00000  Uiso   1.00
C140   C     0.22134   0.60886   0.88246   0.00000  Uiso   1.00
C141   C     0.25778   0.53365   0.96053   0.00000  Uiso   1.00
C142   C     0.26076   0.46378   0.90982   0.00000  Uiso   1.00
C143   C     0.28089   0.33252   0.87267   0.00000  Uiso   1.00
C144   C     0.09990   0.71915   0.77716   0.00000  Uiso   1.00
C145   C     0.03423   0.73668   0.76671   0.00000  Uiso   1.00
C146   C     0.93497   0.75966   0.62736   0.00000  Uiso   1.00
C147   C     0.76658   0.79968   0.42675   0.00000  Uiso   1.00
C148   C     0.27251   0.75722   0.93911   0.00000  Uiso   1.00
C149   C     0.35197   0.80678   0.06482   0.00000  Uiso   1.00
C150   C     0.39803   0.86183   0.06181   0.00000  Uiso   1.00
C151   C     0.49764   0.96097   0.11266   0.00000  Uiso   1.00
C152   C     0.15201   0.70252   0.68963   0.00000  Uiso   1.00
C153   C     0.18902   0.61411   0.75812   0.00000  Uiso   1.00
C154   C     0.19195   0.54433   0.70728   0.00000  Uiso   1.00
C155   C     0.22838   0.46903   0.78527   0.00000  Uiso   1.00
C156   C     0.06757   0.72439   0.65283   0.00000  Uiso   1.00
C157   C     0.96839   0.74735   0.51346   0.00000  Uiso   1.00
C158   C     0.90259   0.76491   0.50280   0.00000  Uiso   1.00
C159   C     0.24019   0.76246   0.81478   0.00000  Uiso   1.00
C160   C     0.28613   0.81745   0.81157   0.00000  Uiso   1.00
C161   C     0.36564   0.86708   0.93725   0.00000  Uiso   1.00
H162   H     0.23667   0.68880   0.01532   0.00000  Uiso   1.00
H163   H     0.28278   0.52962   0.05674   0.00000  Uiso   1.00
H164   H     0.05927   0.73263   0.86295   0.00000  Uiso   1.00
H165   H     0.37696   0.80271   0.16101   0.00000  Uiso   1.00
H166   H     0.31961   0.35545   0.04779   0.00000  Uiso   1.00
H167   H     0.84833   0.78352   0.63919   0.00000  Uiso   1.00
H168   H     0.51824   0.93131   0.26772   0.00000  Uiso   1.00
H169   H     0.12684   0.70661   0.59283   0.00000  Uiso   1.00
H170   H     0.16693   0.54840   0.61106   0.00000  Uiso   1.00
H171   H     0.94341   0.75141   0.41727   0.00000  Uiso   1.00
H172   H     0.26110   0.82149   0.71533   0.00000  Uiso   1.00
H173   H     0.22557   0.37069   0.68606   0.00000  Uiso   1.00
H174   H     0.75430   0.79877   0.27745   0.00000  Uiso   1.00
H175   H     0.42421   0.94656   0.90598   0.00000  Uiso   1.00
O176   O     0.30091   0.25867   0.88651   0.00000  Uiso   1.00
O177   O     0.68262   0.82030   0.35045   0.00000  Uiso   1.00
O178   O     0.56153   0.01419   0.17506   0.00000  Uiso   1.00
N179   N     0.29199   0.38075   0.96018   0.00000  Uiso   1.00
N180   N     0.85137   0.78096   0.57815   0.00000  Uiso   1.00
N181   N     0.47767   0.91915   0.16575   0.00000  Uiso   1.00
N182   N     0.24140   0.38895   0.76553   0.00000  Uiso   1.00
N183   N     0.80078   0.78916   0.38350   0.00000  Uiso   1.00
N184   N     0.42707   0.92735   0.97111   0.00000  Uiso   1.00
