data_job_05589
_audit_creation_date              2018-12-19
_audit_creation_method            'Materials Studio'
_symmetry_space_group_name_H-M    'P1'
_symmetry_Int_Tables_number       1
_symmetry_cell_setting            triclinic
loop_
_symmetry_equiv_pos_as_xyz
  x,y,z
_cell_length_a                    10.1584
_cell_length_b                    27.1963
_cell_length_c                    22.4947
_cell_angle_alpha                 90.0000
_cell_angle_beta                  106.1466
_cell_angle_gamma                 90.0000
loop_
_atom_site_label
_atom_site_type_symbol
_atom_site_fract_x
_atom_site_fract_y
_atom_site_fract_z
_atom_site_U_iso_or_equiv
_atom_site_adp_type
_atom_site_occupancy
C1     C     0.18752   0.68729   0.85328   0.00000  Uiso   1.00
C2     C     0.07000   0.67173   0.79800   0.00000  Uiso   1.00
C3     C     0.01225   0.70014   0.74604   0.00000  Uiso   1.00
C4     C     0.90560   0.67926   0.70052   0.00000  Uiso   1.00
C5     C     0.73023   0.66234   0.61373   0.00000  Uiso   1.00
C6     C     0.13443   0.68174   0.91002   0.00000  Uiso   1.00
C7     C     0.13088   0.71857   0.95225   0.00000  Uiso   1.00
C8     C     0.07847   0.70612   0.00105   0.00000  Uiso   1.00
C9     C     0.00323   0.70473   0.08820   0.00000  Uiso   1.00
C10    C     0.29870   0.64838   0.85976   0.00000  Uiso   1.00
C11    C     0.43328   0.65715   0.85976   0.00000  Uiso   1.00
C12    C     0.51919   0.61661   0.86625   0.00000  Uiso   1.00
C13    C     0.69899   0.56342   0.87538   0.00000  Uiso   1.00
C14    C     0.10079   0.59969   0.86485   0.00000  Uiso   1.00
C15    C     0.02289   0.62415   0.80428   0.00000  Uiso   1.00
C16    C     0.91630   0.60322   0.75883   0.00000  Uiso   1.00
C17    C     0.85841   0.63159   0.70681   0.00000  Uiso   1.00
C18    C     0.08732   0.63416   0.91630   0.00000  Uiso   1.00
C19    C     0.03492   0.62165   0.96505   0.00000  Uiso   1.00
C20    C     0.03128   0.65845   0.00734   0.00000  Uiso   1.00
C21    C     0.25159   0.60079   0.86604   0.00000  Uiso   1.00
C22    C     0.33731   0.56023   0.87255   0.00000  Uiso   1.00
C23    C     0.47199   0.56894   0.87255   0.00000  Uiso   1.00
H24    H     0.22420   0.72434   0.84840   0.00000  Uiso   1.00
H25    H     0.04873   0.73697   0.74120   0.00000  Uiso   1.00
H26    H     0.16735   0.75539   0.94738   0.00000  Uiso   1.00
H27    H     0.46969   0.69398   0.85490   0.00000  Uiso   1.00
H28    H     0.83339   0.72999   0.62512   0.00000  Uiso   1.00
H29    H     0.08354   0.76883   0.05989   0.00000  Uiso   1.00
H30    H     0.72110   0.63934   0.86487   0.00000  Uiso   1.00
H31    H     0.06412   0.56264   0.86974   0.00000  Uiso   1.00
H32    H     0.87986   0.56639   0.76370   0.00000  Uiso   1.00
H33    H     0.99848   0.58482   0.96989   0.00000  Uiso   1.00
H34    H     0.30082   0.52341   0.87741   0.00000  Uiso   1.00
H35    H     0.69632   0.59155   0.64339   0.00000  Uiso   1.00
H36    H     0.94649   0.63039   0.07817   0.00000  Uiso   1.00
H37    H     0.58404   0.50090   0.88314   0.00000  Uiso   1.00
O38    O     0.64650   0.66616   0.56413   0.00000  Uiso   1.00
O39    O     0.97473   0.71712   0.13454   0.00000  Uiso   1.00
O40    O     0.81118   0.54723   0.87867   0.00000  Uiso   1.00
N41    N     0.82643   0.69688   0.64397   0.00000  Uiso   1.00
N42    N     0.06030   0.73320   0.05045   0.00000  Uiso   1.00
N43    N     0.65637   0.61214   0.86813   0.00000  Uiso   1.00
N44    N     0.75268   0.62239   0.65380   0.00000  Uiso   1.00
N45    N     0.98654   0.65871   0.06028   0.00000  Uiso   1.00
N46    N     0.58261   0.53765   0.87796   0.00000  Uiso   1.00
C47    C     0.51820   0.18832   0.27720   0.00000  Uiso   1.00
C48    C     0.40129   0.17242   0.22184   0.00000  Uiso   1.00
C49    C     0.34281   0.20075   0.16989   0.00000  Uiso   1.00
C50    C     0.23690   0.17955   0.12431   0.00000  Uiso   1.00
C51    C     0.06228   0.16215   0.03742   0.00000  Uiso   1.00
C52    C     0.46508   0.18234   0.33387   0.00000  Uiso   1.00
C53    C     0.46025   0.21901   0.37612   0.00000  Uiso   1.00
C54    C     0.40806   0.20616   0.42485   0.00000  Uiso   1.00
C55    C     0.33257   0.20416   0.51192   0.00000  Uiso   1.00
C56    C     0.63059   0.14988   0.28371   0.00000  Uiso   1.00
C57    C     0.76495   0.15925   0.28380   0.00000  Uiso   1.00
C58    C     0.85212   0.11906   0.29031   0.00000  Uiso   1.00
C59    C     0.03361   0.06664   0.29950   0.00000  Uiso   1.00
C60    C     0.43412   0.10030   0.28862   0.00000  Uiso   1.00
C61    C     0.35562   0.12461   0.22805   0.00000  Uiso   1.00
C62    C     0.24979   0.10337   0.18252   0.00000  Uiso   1.00
C63    C     0.19116   0.13166   0.13052   0.00000  Uiso   1.00
C64    C     0.41941   0.13454   0.34008   0.00000  Uiso   1.00
C65    C     0.36723   0.12163   0.38875   0.00000  Uiso   1.00
C66    C     0.36231   0.15827   0.43106   0.00000  Uiso   1.00
C67    C     0.58493   0.10207   0.28991   0.00000  Uiso   1.00
C68    C     0.67192   0.06186   0.29643   0.00000  Uiso   1.00
C69    C     0.80638   0.07117   0.29652   0.00000  Uiso   1.00
H70    H     0.55375   0.22554   0.27237   0.00000  Uiso   1.00
H71    H     0.37817   0.23775   0.16511   0.00000  Uiso   1.00
H72    H     0.49561   0.25601   0.37131   0.00000  Uiso   1.00
H73    H     0.80025   0.19625   0.27900   0.00000  Uiso   1.00
H74    H     0.16333   0.23021   0.04894   0.00000  Uiso   1.00
H75    H     0.41100   0.26870   0.48374   0.00000  Uiso   1.00
H76    H     0.05340   0.14269   0.28908   0.00000  Uiso   1.00
H77    H     0.39857   0.06308   0.29345   0.00000  Uiso   1.00
H78    H     0.21447   0.06637   0.18734   0.00000  Uiso   1.00
H79    H     0.33191   0.08463   0.39354   0.00000  Uiso   1.00
H80    H     0.63655   0.02487   0.30123   0.00000  Uiso   1.00
H81    H     0.03046   0.09111   0.06698   0.00000  Uiso   1.00
H82    H     0.27814   0.12960   0.50178   0.00000  Uiso   1.00
H83    H     0.92054   0.00359   0.30712   0.00000  Uiso   1.00
O84    O     0.97856   0.16576   0.98779   0.00000  Uiso   1.00
O85    O     0.30353   0.21626   0.55823   0.00000  Uiso   1.00
O86    O     0.14633   0.05094   0.30284   0.00000  Uiso   1.00
N87    N     0.15734   0.19702   0.06774   0.00000  Uiso   1.00
N88    N     0.38888   0.23300   0.47425   0.00000  Uiso   1.00
N89    N     0.98948   0.11520   0.29228   0.00000  Uiso   1.00
N90    N     0.08585   0.12217   0.07745   0.00000  Uiso   1.00
N91    N     0.31739   0.15816   0.48395   0.00000  Uiso   1.00
N92    N     0.91799   0.04035   0.30198   0.00000  Uiso   1.00
C93    C     0.81248   0.18729   0.64672   0.00000  Uiso   1.00
C94    C     0.93000   0.17173   0.70200   0.00000  Uiso   1.00
C95    C     0.98775   0.20014   0.75396   0.00000  Uiso   1.00
C96    C     0.09440   0.17926   0.79948   0.00000  Uiso   1.00
C97    C     0.26977   0.16234   0.88627   0.00000  Uiso   1.00
C98    C     0.86557   0.18174   0.58998   0.00000  Uiso   1.00
C99    C     0.86912   0.21857   0.54775   0.00000  Uiso   1.00
C100   C     0.92153   0.20612   0.49895   0.00000  Uiso   1.00
C101   C     0.99677   0.20473   0.41180   0.00000  Uiso   1.00
C102   C     0.70130   0.14838   0.64024   0.00000  Uiso   1.00
C103   C     0.56672   0.15715   0.64024   0.00000  Uiso   1.00
C104   C     0.48081   0.11661   0.63375   0.00000  Uiso   1.00
C105   C     0.30101   0.06342   0.62462   0.00000  Uiso   1.00
C106   C     0.89921   0.09969   0.63515   0.00000  Uiso   1.00
C107   C     0.97711   0.12415   0.69572   0.00000  Uiso   1.00
C108   C     0.08370   0.10322   0.74117   0.00000  Uiso   1.00
C109   C     0.14159   0.13159   0.79319   0.00000  Uiso   1.00
C110   C     0.91268   0.13416   0.58370   0.00000  Uiso   1.00
C111   C     0.96508   0.12165   0.53495   0.00000  Uiso   1.00
C112   C     0.96872   0.15845   0.49266   0.00000  Uiso   1.00
C113   C     0.74841   0.10079   0.63396   0.00000  Uiso   1.00
C114   C     0.66269   0.06023   0.62745   0.00000  Uiso   1.00
C115   C     0.52801   0.06894   0.62745   0.00000  Uiso   1.00
H116   H     0.77580   0.22434   0.65160   0.00000  Uiso   1.00
H117   H     0.95127   0.23697   0.75880   0.00000  Uiso   1.00
H118   H     0.83265   0.25539   0.55262   0.00000  Uiso   1.00
H119   H     0.53031   0.19398   0.64510   0.00000  Uiso   1.00
H120   H     0.16661   0.22999   0.87488   0.00000  Uiso   1.00
H121   H     0.91646   0.26883   0.44011   0.00000  Uiso   1.00
H122   H     0.27890   0.13934   0.63513   0.00000  Uiso   1.00
H123   H     0.93588   0.06264   0.63026   0.00000  Uiso   1.00
H124   H     0.12014   0.06639   0.73630   0.00000  Uiso   1.00
H125   H     0.00152   0.08482   0.53011   0.00000  Uiso   1.00
H126   H     0.69918   0.02341   0.62259   0.00000  Uiso   1.00
H127   H     0.30368   0.09155   0.85661   0.00000  Uiso   1.00
H128   H     0.05351   0.13039   0.42183   0.00000  Uiso   1.00
H129   H     0.41596   0.00090   0.61686   0.00000  Uiso   1.00
O130   O     0.35350   0.16616   0.93587   0.00000  Uiso   1.00
O131   O     0.02527   0.21712   0.36546   0.00000  Uiso   1.00
O132   O     0.18882   0.04723   0.62133   0.00000  Uiso   1.00
N133   N     0.17357   0.19688   0.85603   0.00000  Uiso   1.00
N134   N     0.93970   0.23320   0.44955   0.00000  Uiso   1.00
N135   N     0.34363   0.11214   0.63187   0.00000  Uiso   1.00
N136   N     0.24732   0.12239   0.84620   0.00000  Uiso   1.00
N137   N     0.01346   0.15871   0.43972   0.00000  Uiso   1.00
N138   N     0.41739   0.03765   0.62204   0.00000  Uiso   1.00
C139   C     0.48180   0.68832   0.22280   0.00000  Uiso   1.00
C140   C     0.59871   0.67242   0.27816   0.00000  Uiso   1.00
C141   C     0.65719   0.70075   0.33011   0.00000  Uiso   1.00
C142   C     0.76310   0.67955   0.37569   0.00000  Uiso   1.00
C143   C     0.93772   0.66215   0.46258   0.00000  Uiso   1.00
C144   C     0.53492   0.68234   0.16613   0.00000  Uiso   1.00
C145   C     0.53975   0.71901   0.12388   0.00000  Uiso   1.00
C146   C     0.59194   0.70616   0.07515   0.00000  Uiso   1.00
C147   C     0.66743   0.70416   0.98808   0.00000  Uiso   1.00
C148   C     0.36941   0.64988   0.21629   0.00000  Uiso   1.00
C149   C     0.23505   0.65925   0.21620   0.00000  Uiso   1.00
C150   C     0.14788   0.61906   0.20969   0.00000  Uiso   1.00
C151   C     0.96639   0.56664   0.20050   0.00000  Uiso   1.00
C152   C     0.56588   0.60030   0.21138   0.00000  Uiso   1.00
C153   C     0.64438   0.62461   0.27195   0.00000  Uiso   1.00
C154   C     0.75021   0.60337   0.31748   0.00000  Uiso   1.00
C155   C     0.80884   0.63166   0.36948   0.00000  Uiso   1.00
C156   C     0.58059   0.63454   0.15992   0.00000  Uiso   1.00
C157   C     0.63277   0.62163   0.11125   0.00000  Uiso   1.00
C158   C     0.63769   0.65827   0.06894   0.00000  Uiso   1.00
C159   C     0.41507   0.60207   0.21009   0.00000  Uiso   1.00
C160   C     0.32808   0.56186   0.20357   0.00000  Uiso   1.00
C161   C     0.19362   0.57117   0.20348   0.00000  Uiso   1.00
H162   H     0.44625   0.72554   0.22763   0.00000  Uiso   1.00
H163   H     0.62183   0.73775   0.33489   0.00000  Uiso   1.00
H164   H     0.50439   0.75601   0.12869   0.00000  Uiso   1.00
H165   H     0.19975   0.69625   0.22100   0.00000  Uiso   1.00
H166   H     0.83667   0.73021   0.45106   0.00000  Uiso   1.00
H167   H     0.58900   0.76870   0.01626   0.00000  Uiso   1.00
H168   H     0.94660   0.64269   0.21092   0.00000  Uiso   1.00
H169   H     0.60143   0.56308   0.20655   0.00000  Uiso   1.00
H170   H     0.78553   0.56637   0.31266   0.00000  Uiso   1.00
H171   H     0.66809   0.58463   0.10646   0.00000  Uiso   1.00
H172   H     0.36345   0.52487   0.19877   0.00000  Uiso   1.00
H173   H     0.96954   0.59111   0.43302   0.00000  Uiso   1.00
H174   H     0.72186   0.62960   0.99822   0.00000  Uiso   1.00
H175   H     0.07946   0.50359   0.19288   0.00000  Uiso   1.00
O176   O     0.02144   0.66576   0.51221   0.00000  Uiso   1.00
O177   O     0.69647   0.71626   0.94177   0.00000  Uiso   1.00
O178   O     0.85367   0.55094   0.19716   0.00000  Uiso   1.00
N179   N     0.84266   0.69702   0.43226   0.00000  Uiso   1.00
N180   N     0.61112   0.73300   0.02575   0.00000  Uiso   1.00
N181   N     0.01052   0.61520   0.20772   0.00000  Uiso   1.00
N182   N     0.91415   0.62217   0.42255   0.00000  Uiso   1.00
N183   N     0.68261   0.65816   0.01605   0.00000  Uiso   1.00
N184   N     0.08201   0.54035   0.19802   0.00000  Uiso   1.00
C185   C     0.81248   0.31271   0.14672   0.00000  Uiso   1.00
C186   C     0.93000   0.32827   0.20200   0.00000  Uiso   1.00
C187   C     0.98775   0.29986   0.25396   0.00000  Uiso   1.00
C188   C     0.09440   0.32074   0.29948   0.00000  Uiso   1.00
C189   C     0.26977   0.33766   0.38627   0.00000  Uiso   1.00
C190   C     0.86557   0.31826   0.08998   0.00000  Uiso   1.00
C191   C     0.86912   0.28143   0.04775   0.00000  Uiso   1.00
C192   C     0.92153   0.29388   0.99895   0.00000  Uiso   1.00
C193   C     0.99677   0.29527   0.91180   0.00000  Uiso   1.00
C194   C     0.70130   0.35162   0.14024   0.00000  Uiso   1.00
C195   C     0.56672   0.34285   0.14024   0.00000  Uiso   1.00
C196   C     0.48081   0.38339   0.13375   0.00000  Uiso   1.00
C197   C     0.30101   0.43658   0.12462   0.00000  Uiso   1.00
C198   C     0.89921   0.40031   0.13515   0.00000  Uiso   1.00
C199   C     0.97711   0.37585   0.19572   0.00000  Uiso   1.00
C200   C     0.08370   0.39678   0.24117   0.00000  Uiso   1.00
C201   C     0.14159   0.36841   0.29319   0.00000  Uiso   1.00
C202   C     0.91268   0.36584   0.08370   0.00000  Uiso   1.00
C203   C     0.96508   0.37835   0.03495   0.00000  Uiso   1.00
C204   C     0.96872   0.34155   0.99266   0.00000  Uiso   1.00
C205   C     0.74841   0.39921   0.13396   0.00000  Uiso   1.00
C206   C     0.66269   0.43977   0.12745   0.00000  Uiso   1.00
C207   C     0.52801   0.43106   0.12745   0.00000  Uiso   1.00
H208   H     0.77580   0.27566   0.15160   0.00000  Uiso   1.00
H209   H     0.95127   0.26303   0.25880   0.00000  Uiso   1.00
H210   H     0.83265   0.24461   0.05262   0.00000  Uiso   1.00
H211   H     0.53031   0.30602   0.14510   0.00000  Uiso   1.00
H212   H     0.16661   0.27001   0.37488   0.00000  Uiso   1.00
H213   H     0.91646   0.23117   0.94011   0.00000  Uiso   1.00
H214   H     0.27890   0.36066   0.13513   0.00000  Uiso   1.00
H215   H     0.93588   0.43736   0.13026   0.00000  Uiso   1.00
H216   H     0.12014   0.43361   0.23630   0.00000  Uiso   1.00
H217   H     0.00152   0.41518   0.03011   0.00000  Uiso   1.00
H218   H     0.69918   0.47659   0.12259   0.00000  Uiso   1.00
H219   H     0.30368   0.40845   0.35661   0.00000  Uiso   1.00
H220   H     0.05351   0.36961   0.92183   0.00000  Uiso   1.00
H221   H     0.41596   0.49910   0.11686   0.00000  Uiso   1.00
O222   O     0.35350   0.33384   0.43587   0.00000  Uiso   1.00
O223   O     0.02527   0.28288   0.86546   0.00000  Uiso   1.00
O224   O     0.18882   0.45277   0.12133   0.00000  Uiso   1.00
N225   N     0.17357   0.30312   0.35603   0.00000  Uiso   1.00
N226   N     0.93970   0.26680   0.94955   0.00000  Uiso   1.00
N227   N     0.34363   0.38786   0.13187   0.00000  Uiso   1.00
N228   N     0.24732   0.37761   0.34620   0.00000  Uiso   1.00
N229   N     0.01346   0.34129   0.93972   0.00000  Uiso   1.00
N230   N     0.41739   0.46235   0.12204   0.00000  Uiso   1.00
C231   C     0.48180   0.81168   0.72280   0.00000  Uiso   1.00
C232   C     0.59871   0.82758   0.77816   0.00000  Uiso   1.00
C233   C     0.65719   0.79925   0.83011   0.00000  Uiso   1.00
C234   C     0.76310   0.82045   0.87569   0.00000  Uiso   1.00
C235   C     0.93772   0.83785   0.96258   0.00000  Uiso   1.00
C236   C     0.53492   0.81766   0.66613   0.00000  Uiso   1.00
C237   C     0.53975   0.78099   0.62388   0.00000  Uiso   1.00
C238   C     0.59194   0.79384   0.57515   0.00000  Uiso   1.00
C239   C     0.66743   0.79584   0.48808   0.00000  Uiso   1.00
C240   C     0.36941   0.85012   0.71629   0.00000  Uiso   1.00
C241   C     0.23505   0.84075   0.71620   0.00000  Uiso   1.00
C242   C     0.14788   0.88094   0.70969   0.00000  Uiso   1.00
C243   C     0.96639   0.93336   0.70050   0.00000  Uiso   1.00
C244   C     0.56588   0.89970   0.71138   0.00000  Uiso   1.00
C245   C     0.64438   0.87539   0.77195   0.00000  Uiso   1.00
C246   C     0.75021   0.89663   0.81748   0.00000  Uiso   1.00
C247   C     0.80884   0.86834   0.86948   0.00000  Uiso   1.00
C248   C     0.58059   0.86546   0.65992   0.00000  Uiso   1.00
C249   C     0.63277   0.87837   0.61125   0.00000  Uiso   1.00
C250   C     0.63769   0.84173   0.56894   0.00000  Uiso   1.00
C251   C     0.41507   0.89793   0.71009   0.00000  Uiso   1.00
C252   C     0.32808   0.93814   0.70357   0.00000  Uiso   1.00
C253   C     0.19362   0.92883   0.70348   0.00000  Uiso   1.00
H254   H     0.44625   0.77446   0.72763   0.00000  Uiso   1.00
H255   H     0.62183   0.76225   0.83489   0.00000  Uiso   1.00
H256   H     0.50439   0.74399   0.62869   0.00000  Uiso   1.00
H257   H     0.19975   0.80375   0.72100   0.00000  Uiso   1.00
H258   H     0.83667   0.76979   0.95106   0.00000  Uiso   1.00
H259   H     0.58900   0.73130   0.51626   0.00000  Uiso   1.00
H260   H     0.94660   0.85731   0.71092   0.00000  Uiso   1.00
H261   H     0.60143   0.93692   0.70655   0.00000  Uiso   1.00
H262   H     0.78553   0.93363   0.81266   0.00000  Uiso   1.00
H263   H     0.66809   0.91537   0.60646   0.00000  Uiso   1.00
H264   H     0.36345   0.97513   0.69877   0.00000  Uiso   1.00
H265   H     0.96954   0.90889   0.93302   0.00000  Uiso   1.00
H266   H     0.72186   0.87040   0.49822   0.00000  Uiso   1.00
H267   H     0.07946   0.99641   0.69288   0.00000  Uiso   1.00
O268   O     0.02144   0.83424   0.01221   0.00000  Uiso   1.00
O269   O     0.69647   0.78374   0.44177   0.00000  Uiso   1.00
O270   O     0.85367   0.94906   0.69716   0.00000  Uiso   1.00
N271   N     0.84266   0.80298   0.93226   0.00000  Uiso   1.00
N272   N     0.61112   0.76700   0.52575   0.00000  Uiso   1.00
N273   N     0.01052   0.88480   0.70772   0.00000  Uiso   1.00
N274   N     0.91415   0.87783   0.92255   0.00000  Uiso   1.00
N275   N     0.68261   0.84184   0.51605   0.00000  Uiso   1.00
N276   N     0.08201   0.95965   0.69802   0.00000  Uiso   1.00
C277   C     0.18752   0.81271   0.35328   0.00000  Uiso   1.00
C278   C     0.07000   0.82827   0.29800   0.00000  Uiso   1.00
C279   C     0.01225   0.79986   0.24604   0.00000  Uiso   1.00
C280   C     0.90560   0.82074   0.20052   0.00000  Uiso   1.00
C281   C     0.73023   0.83766   0.11373   0.00000  Uiso   1.00
C282   C     0.13443   0.81826   0.41002   0.00000  Uiso   1.00
C283   C     0.13088   0.78143   0.45225   0.00000  Uiso   1.00
C284   C     0.07847   0.79388   0.50105   0.00000  Uiso   1.00
C285   C     0.00323   0.79527   0.58820   0.00000  Uiso   1.00
C286   C     0.29870   0.85162   0.35976   0.00000  Uiso   1.00
C287   C     0.43328   0.84285   0.35976   0.00000  Uiso   1.00
C288   C     0.51919   0.88339   0.36625   0.00000  Uiso   1.00
C289   C     0.69899   0.93658   0.37538   0.00000  Uiso   1.00
C290   C     0.10079   0.90031   0.36485   0.00000  Uiso   1.00
C291   C     0.02289   0.87585   0.30428   0.00000  Uiso   1.00
C292   C     0.91630   0.89678   0.25883   0.00000  Uiso   1.00
C293   C     0.85841   0.86841   0.20681   0.00000  Uiso   1.00
C294   C     0.08732   0.86584   0.41630   0.00000  Uiso   1.00
C295   C     0.03492   0.87835   0.46505   0.00000  Uiso   1.00
C296   C     0.03128   0.84155   0.50734   0.00000  Uiso   1.00
C297   C     0.25159   0.89921   0.36604   0.00000  Uiso   1.00
C298   C     0.33731   0.93977   0.37255   0.00000  Uiso   1.00
C299   C     0.47199   0.93106   0.37255   0.00000  Uiso   1.00
H300   H     0.22420   0.77566   0.34840   0.00000  Uiso   1.00
H301   H     0.04873   0.76303   0.24120   0.00000  Uiso   1.00
H302   H     0.16735   0.74461   0.44738   0.00000  Uiso   1.00
H303   H     0.46969   0.80602   0.35490   0.00000  Uiso   1.00
H304   H     0.83339   0.77001   0.12512   0.00000  Uiso   1.00
H305   H     0.08354   0.73117   0.55989   0.00000  Uiso   1.00
H306   H     0.72110   0.86066   0.36487   0.00000  Uiso   1.00
H307   H     0.06412   0.93736   0.36974   0.00000  Uiso   1.00
H308   H     0.87986   0.93361   0.26370   0.00000  Uiso   1.00
H309   H     0.99848   0.91518   0.46989   0.00000  Uiso   1.00
H310   H     0.30082   0.97659   0.37741   0.00000  Uiso   1.00
H311   H     0.69632   0.90845   0.14339   0.00000  Uiso   1.00
H312   H     0.94649   0.86961   0.57817   0.00000  Uiso   1.00
H313   H     0.58404   0.99910   0.38314   0.00000  Uiso   1.00
O314   O     0.64650   0.83384   0.06413   0.00000  Uiso   1.00
O315   O     0.97473   0.78288   0.63454   0.00000  Uiso   1.00
O316   O     0.81118   0.95277   0.37867   0.00000  Uiso   1.00
N317   N     0.82643   0.80312   0.14397   0.00000  Uiso   1.00
N318   N     0.06030   0.76680   0.55045   0.00000  Uiso   1.00
N319   N     0.65637   0.88786   0.36813   0.00000  Uiso   1.00
N320   N     0.75268   0.87761   0.15380   0.00000  Uiso   1.00
N321   N     0.98654   0.84129   0.56028   0.00000  Uiso   1.00
N322   N     0.58261   0.96235   0.37796   0.00000  Uiso   1.00
C323   C     0.51820   0.31168   0.77720   0.00000  Uiso   1.00
C324   C     0.40129   0.32758   0.72184   0.00000  Uiso   1.00
C325   C     0.34281   0.29925   0.66989   0.00000  Uiso   1.00
C326   C     0.23690   0.32045   0.62431   0.00000  Uiso   1.00
C327   C     0.06228   0.33785   0.53742   0.00000  Uiso   1.00
C328   C     0.46508   0.31766   0.83387   0.00000  Uiso   1.00
C329   C     0.46025   0.28099   0.87612   0.00000  Uiso   1.00
C330   C     0.40806   0.29384   0.92485   0.00000  Uiso   1.00
C331   C     0.33257   0.29584   0.01192   0.00000  Uiso   1.00
C332   C     0.63059   0.35012   0.78371   0.00000  Uiso   1.00
C333   C     0.76495   0.34075   0.78380   0.00000  Uiso   1.00
C334   C     0.85212   0.38094   0.79031   0.00000  Uiso   1.00
C335   C     0.03361   0.43336   0.79950   0.00000  Uiso   1.00
C336   C     0.43412   0.39970   0.78862   0.00000  Uiso   1.00
C337   C     0.35562   0.37539   0.72805   0.00000  Uiso   1.00
C338   C     0.24979   0.39663   0.68252   0.00000  Uiso   1.00
C339   C     0.19116   0.36834   0.63052   0.00000  Uiso   1.00
C340   C     0.41941   0.36546   0.84008   0.00000  Uiso   1.00
C341   C     0.36723   0.37837   0.88875   0.00000  Uiso   1.00
C342   C     0.36231   0.34173   0.93106   0.00000  Uiso   1.00
C343   C     0.58493   0.39793   0.78991   0.00000  Uiso   1.00
C344   C     0.67192   0.43814   0.79643   0.00000  Uiso   1.00
C345   C     0.80638   0.42883   0.79652   0.00000  Uiso   1.00
H346   H     0.55375   0.27446   0.77237   0.00000  Uiso   1.00
H347   H     0.37817   0.26225   0.66511   0.00000  Uiso   1.00
H348   H     0.49561   0.24399   0.87131   0.00000  Uiso   1.00
H349   H     0.80025   0.30375   0.77900   0.00000  Uiso   1.00
H350   H     0.16333   0.26979   0.54894   0.00000  Uiso   1.00
H351   H     0.41100   0.23130   0.98374   0.00000  Uiso   1.00
H352   H     0.05340   0.35731   0.78908   0.00000  Uiso   1.00
H353   H     0.39857   0.43692   0.79345   0.00000  Uiso   1.00
H354   H     0.21447   0.43363   0.68734   0.00000  Uiso   1.00
H355   H     0.33191   0.41537   0.89354   0.00000  Uiso   1.00
H356   H     0.63655   0.47513   0.80123   0.00000  Uiso   1.00
H357   H     0.03046   0.40889   0.56698   0.00000  Uiso   1.00
H358   H     0.27814   0.37040   0.00178   0.00000  Uiso   1.00
H359   H     0.92054   0.49641   0.80712   0.00000  Uiso   1.00
O360   O     0.97856   0.33424   0.48779   0.00000  Uiso   1.00
O361   O     0.30353   0.28374   0.05823   0.00000  Uiso   1.00
O362   O     0.14633   0.44906   0.80284   0.00000  Uiso   1.00
N363   N     0.15734   0.30298   0.56774   0.00000  Uiso   1.00
N364   N     0.38888   0.26700   0.97425   0.00000  Uiso   1.00
N365   N     0.98948   0.38480   0.79228   0.00000  Uiso   1.00
N366   N     0.08585   0.37783   0.57745   0.00000  Uiso   1.00
N367   N     0.31739   0.34184   0.98395   0.00000  Uiso   1.00
N368   N     0.91799   0.45965   0.80198   0.00000  Uiso   1.00
