data_job_06938
_audit_creation_date              2018-12-19
_audit_creation_method            'Materials Studio'
_symmetry_space_group_name_H-M    'P1'
_symmetry_Int_Tables_number       1
_symmetry_cell_setting            triclinic
loop_
_symmetry_equiv_pos_as_xyz
  x,y,z
_cell_length_a                    19.4832
_cell_length_b                    20.0448
_cell_length_c                    26.1405
_cell_angle_alpha                 91.8797
_cell_angle_beta                  103.7741
_cell_angle_gamma                 66.5958
loop_
_atom_site_label
_atom_site_type_symbol
_atom_site_fract_x
_atom_site_fract_y
_atom_site_fract_z
_atom_site_U_iso_or_equiv
_atom_site_adp_type
_atom_site_occupancy
C1     C     0.57880   0.69559   0.42550   0.00000  Uiso   1.00
C2     C     0.51744   0.74827   0.38073   0.00000  Uiso   1.00
C3     C     0.50187   0.82162   0.37349   0.00000  Uiso   1.00
C4     C     0.44345   0.86053   0.33011   0.00000  Uiso   1.00
C5     C     0.35444   0.94740   0.26592   0.00000  Uiso   1.00
C6     C     0.53655   0.66344   0.45262   0.00000  Uiso   1.00
C7     C     0.53705   0.66545   0.50583   0.00000  Uiso   1.00
C8     C     0.49472   0.63294   0.52297   0.00000  Uiso   1.00
C9     C     0.43541   0.58807   0.57040   0.00000  Uiso   1.00
C10    C     0.63029   0.63304   0.39917   0.00000  Uiso   1.00
C11    C     0.70962   0.60946   0.40744   0.00000  Uiso   1.00
C12    C     0.74622   0.55134   0.37958   0.00000  Uiso   1.00
C13    C     0.83246   0.45925   0.34401   0.00000  Uiso   1.00
C14    C     0.50275   0.63426   0.36134   0.00000  Uiso   1.00
C15    C     0.47614   0.71496   0.34589   0.00000  Uiso   1.00
C16    C     0.41773   0.75376   0.30251   0.00000  Uiso   1.00
C17    C     0.40208   0.82715   0.29520   0.00000  Uiso   1.00
C18    C     0.49524   0.63013   0.41778   0.00000  Uiso   1.00
C19    C     0.45291   0.59760   0.43485   0.00000  Uiso   1.00
C20    C     0.45334   0.59957   0.48806   0.00000  Uiso   1.00
C21    C     0.58899   0.59972   0.36432   0.00000  Uiso   1.00
C22    C     0.62547   0.54162   0.33645   0.00000  Uiso   1.00
C23    C     0.70484   0.51796   0.34467   0.00000  Uiso   1.00
H24    H     0.61096   0.72152   0.45263   0.00000  Uiso   1.00
H25    H     0.53385   0.84738   0.40047   0.00000  Uiso   1.00
H26    H     0.56902   0.69123   0.53279   0.00000  Uiso   1.00
H27    H     0.74156   0.63526   0.43440   0.00000  Uiso   1.00
H28    H     0.43012   0.97223   0.32728   0.00000  Uiso   1.00
H29    H     0.50431   0.64296   0.60628   0.00000  Uiso   1.00
H30    H     0.86815   0.52492   0.39883   0.00000  Uiso   1.00
H31    H     0.47059   0.60833   0.33421   0.00000  Uiso   1.00
H32    H     0.38578   0.72797   0.27555   0.00000  Uiso   1.00
H33    H     0.42095   0.57182   0.40787   0.00000  Uiso   1.00
H34    H     0.59349   0.51585   0.30949   0.00000  Uiso   1.00
H35    H     0.30993   0.87531   0.22590   0.00000  Uiso   1.00
H36    H     0.38413   0.54604   0.50490   0.00000  Uiso   1.00
H37    H     0.74796   0.42801   0.29744   0.00000  Uiso   1.00
O38    O     0.31674   0.00452   0.24015   0.00000  Uiso   1.00
O39    O     0.41410   0.57253   0.60619   0.00000  Uiso   1.00
O40    O     0.89144   0.41767   0.33401   0.00000  Uiso   1.00
N41    N     0.41348   0.93300   0.31147   0.00000  Uiso   1.00
N42    N     0.48284   0.62516   0.57232   0.00000  Uiso   1.00
N43    N     0.82300   0.51479   0.37837   0.00000  Uiso   1.00
N44    N     0.34881   0.88085   0.25691   0.00000  Uiso   1.00
N45    N     0.41817   0.57301   0.51776   0.00000  Uiso   1.00
N46    N     0.75833   0.46264   0.32382   0.00000  Uiso   1.00
C47    C     0.29357   0.39510   0.46465   0.00000  Uiso   1.00
C48    C     0.32702   0.38265   0.41632   0.00000  Uiso   1.00
C49    C     0.40185   0.33663   0.41527   0.00000  Uiso   1.00
C50    C     0.42126   0.33282   0.36717   0.00000  Uiso   1.00
C51    C     0.48137   0.30732   0.29903   0.00000  Uiso   1.00
C52    C     0.26356   0.47696   0.47080   0.00000  Uiso   1.00
C53    C     0.28503   0.51023   0.51556   0.00000  Uiso   1.00
C54    C     0.25101   0.58581   0.51332   0.00000  Uiso   1.00
C55    C     0.21255   0.70672   0.52978   0.00000  Uiso   1.00
C56    C     0.22257   0.37714   0.44956   0.00000  Uiso   1.00
C57    C     0.20954   0.32650   0.47647   0.00000  Uiso   1.00
C58    C     0.14100   0.31806   0.45634   0.00000  Uiso   1.00
C59    C     0.03889   0.28398   0.43983   0.00000  Uiso   1.00
C60    C     0.19499   0.47017   0.38107   0.00000  Uiso   1.00
C61    C     0.27348   0.42343   0.37093   0.00000  Uiso   1.00
C62    C     0.29278   0.41969   0.32281   0.00000  Uiso   1.00
C63    C     0.36762   0.37367   0.32169   0.00000  Uiso   1.00
C64    C     0.21002   0.51773   0.42541   0.00000  Uiso   1.00
C65    C     0.17596   0.59329   0.42310   0.00000  Uiso   1.00
C66    C     0.19737   0.62666   0.46784   0.00000  Uiso   1.00
C67    C     0.16902   0.41792   0.40416   0.00000  Uiso   1.00
C68    C     0.10048   0.40956   0.38400   0.00000  Uiso   1.00
C69    C     0.08736   0.35891   0.41087   0.00000  Uiso   1.00
H70    H     0.33525   0.36336   0.49999   0.00000  Uiso   1.00
H71    H     0.44327   0.30509   0.45041   0.00000  Uiso   1.00
H72    H     0.32646   0.47866   0.55069   0.00000  Uiso   1.00
H73    H     0.25099   0.29495   0.51159   0.00000  Uiso   1.00
H74    H     0.53942   0.25849   0.37543   0.00000  Uiso   1.00
H75    H     0.29310   0.62447   0.58687   0.00000  Uiso   1.00
H76    H     0.13396   0.23710   0.50444   0.00000  Uiso   1.00
H77    H     0.15330   0.50192   0.34573   0.00000  Uiso   1.00
H78    H     0.25134   0.45125   0.28769   0.00000  Uiso   1.00
H79    H     0.13453   0.62482   0.38796   0.00000  Uiso   1.00
H80    H     0.05906   0.44112   0.34887   0.00000  Uiso   1.00
H81    H     0.38364   0.37712   0.24336   0.00000  Uiso   1.00
H82    H     0.13732   0.74311   0.45480   0.00000  Uiso   1.00
H83    H     0.97818   0.35573   0.37236   0.00000  Uiso   1.00
O84    O     0.52931   0.28199   0.27400   0.00000  Uiso   1.00
O85    O     0.20614   0.76215   0.55140   0.00000  Uiso   1.00
O86    O     0.99736   0.25392   0.44325   0.00000  Uiso   1.00
N87    N     0.48930   0.29335   0.35231   0.00000  Uiso   1.00
N88    N     0.25901   0.63552   0.54999   0.00000  Uiso   1.00
N89    N     0.11022   0.27338   0.47293   0.00000  Uiso   1.00
N90    N     0.40548   0.35719   0.28124   0.00000  Uiso   1.00
N91    N     0.17519   0.69936   0.47892   0.00000  Uiso   1.00
N92    N     0.02640   0.33721   0.40186   0.00000  Uiso   1.00
C93    C     0.07861   0.95255   0.37627   0.00000  Uiso   1.00
C94    C     0.06957   0.90247   0.33235   0.00000  Uiso   1.00
C95    C     0.01352   0.87426   0.32093   0.00000  Uiso   1.00
C96    C     0.01499   0.82948   0.27918   0.00000  Uiso   1.00
C97    C     0.99252   0.75411   0.21545   0.00000  Uiso   1.00
C98    C     0.16079   0.91459   0.41006   0.00000  Uiso   1.00
C99    C     0.18143   0.89658   0.46397   0.00000  Uiso   1.00
C100   C     0.25971   0.86201   0.48764   0.00000  Uiso   1.00
C101   C     0.37886   0.80550   0.54455   0.00000  Uiso   1.00
C102   C     0.07559   0.02047   0.34952   0.00000  Uiso   1.00
C103   C     0.02461   0.09149   0.35254   0.00000  Uiso   1.00
C104   C     0.03115   0.14608   0.32525   0.00000  Uiso   1.00
C105   C     0.01802   0.25398   0.28817   0.00000  Uiso   1.00
C106   C     0.18091   0.92320   0.32245   0.00000  Uiso   1.00
C107   C     0.12513   0.88653   0.30312   0.00000  Uiso   1.00
C108   C     0.12669   0.84178   0.26138   0.00000  Uiso   1.00
C109   C     0.07065   0.81351   0.24989   0.00000  Uiso   1.00
C110   C     0.21635   0.89865   0.38083   0.00000  Uiso   1.00
C111   C     0.29461   0.86410   0.40442   0.00000  Uiso   1.00
C112   C     0.31537   0.84604   0.45835   0.00000  Uiso   1.00
C113   C     0.13115   0.00453   0.32029   0.00000  Uiso   1.00
C114   C     0.13778   0.05902   0.29299   0.00000  Uiso   1.00
C115   C     0.08682   0.13011   0.29596   0.00000  Uiso   1.00
H116   H     0.03536   0.96496   0.39904   0.00000  Uiso   1.00
H117   H     0.97053   0.88660   0.34357   0.00000  Uiso   1.00
H118   H     0.13842   0.90892   0.48659   0.00000  Uiso   1.00
H119   H     0.98162   0.10381   0.37517   0.00000  Uiso   1.00
H120   H     0.92318   0.79267   0.26919   0.00000  Uiso   1.00
H121   H     0.27719   0.83977   0.57075   0.00000  Uiso   1.00
H122   H     0.94653   0.25072   0.33581   0.00000  Uiso   1.00
H123   H     0.22417   0.91079   0.29969   0.00000  Uiso   1.00
H124   H     0.16970   0.82946   0.23876   0.00000  Uiso   1.00
H125   H     0.33759   0.85178   0.38178   0.00000  Uiso   1.00
H126   H     0.18079   0.04666   0.27037   0.00000  Uiso   1.00
H127   H     0.08483   0.74629   0.18412   0.00000  Uiso   1.00
H128   H     0.43885   0.79338   0.48569   0.00000  Uiso   1.00
H129   H     0.10819   0.20434   0.25075   0.00000  Uiso   1.00
O130   O     0.96478   0.71694   0.18838   0.00000  Uiso   1.00
O131   O     0.42923   0.77873   0.58402   0.00000  Uiso   1.00
O132   O     0.99541   0.31789   0.27579   0.00000  Uiso   1.00
N133   N     0.96869   0.79293   0.25752   0.00000  Uiso   1.00
N134   N     0.29967   0.83695   0.53947   0.00000  Uiso   1.00
N135   N     0.99055   0.22116   0.31983   0.00000  Uiso   1.00
N136   N     0.05567   0.76797   0.21175   0.00000  Uiso   1.00
N137   N     0.38665   0.81199   0.49369   0.00000  Uiso   1.00
N138   N     0.07753   0.19620   0.27406   0.00000  Uiso   1.00
C139   C     0.76964   0.78938   0.04897   0.00000  Uiso   1.00
C140   C     0.70565   0.83042   0.00074   0.00000  Uiso   1.00
C141   C     0.64048   0.81675   0.97950   0.00000  Uiso   1.00
C142   C     0.58873   0.86033   0.93528   0.00000  Uiso   1.00
C143   C     0.48737   0.91567   0.86377   0.00000  Uiso   1.00
C144   C     0.77533   0.84684   0.08750   0.00000  Uiso   1.00
C145   C     0.76876   0.84698   0.13922   0.00000  Uiso   1.00
C146   C     0.77568   0.90438   0.16804   0.00000  Uiso   1.00
C147   C     0.78255   0.98519   0.23124   0.00000  Uiso   1.00
C148   C     0.84436   0.76060   0.03073   0.00000  Uiso   1.00
C149   C     0.89586   0.68822   0.03473   0.00000  Uiso   1.00
C150   C     0.96091   0.67302   0.01576   0.00000  Uiso   1.00
C151   C     0.07498   0.61991   0.99082   0.00000  Uiso   1.00
C152   C     0.79362   0.89109   0.00819   0.00000  Uiso   1.00
C153   C     0.71867   0.88566   0.97859   0.00000  Uiso   1.00
C154   C     0.66701   0.92928   0.93438   0.00000  Uiso   1.00
C155   C     0.60178   0.91567   0.91309   0.00000  Uiso   1.00
C156   C     0.78835   0.90209   0.06535   0.00000  Uiso   1.00
C157   C     0.79529   0.95950   0.09410   0.00000  Uiso   1.00
C158   C     0.78873   0.95973   0.14585   0.00000  Uiso   1.00
C159   C     0.85739   0.81584   0.00858   0.00000  Uiso   1.00
C160   C     0.92238   0.80075   0.98960   0.00000  Uiso   1.00
C161   C     0.97396   0.72836   0.99357   0.00000  Uiso   1.00
H162   H     0.75950   0.74638   0.06622   0.00000  Uiso   1.00
H163   H     0.63042   0.77400   0.99666   0.00000  Uiso   1.00
H164   H     0.75868   0.80421   0.15635   0.00000  Uiso   1.00
H165   H     0.88576   0.64548   0.05187   0.00000  Uiso   1.00
H166   H     0.49304   0.82900   0.90979   0.00000  Uiso   1.00
H167   H     0.76352   0.89270   0.24651   0.00000  Uiso   1.00
H168   H     0.03149   0.55798   0.02620   0.00000  Uiso   1.00
H169   H     0.80376   0.93410   0.99094   0.00000  Uiso   1.00
H170   H     0.67711   0.97202   0.91725   0.00000  Uiso   1.00
H171   H     0.80537   0.00224   0.07694   0.00000  Uiso   1.00
H172   H     0.93245   0.84351   0.97246   0.00000  Uiso   1.00
H173   H     0.53093   0.98972   0.84533   0.00000  Uiso   1.00
H174   H     0.80142   0.05343   0.18206   0.00000  Uiso   1.00
H175   H     0.06938   0.71871   0.96174   0.00000  Uiso   1.00
O176   O     0.42786   0.93093   0.83045   0.00000  Uiso   1.00
O177   O     0.78274   0.01450   0.27223   0.00000  Uiso   1.00
O178   O     0.13429   0.57536   0.98317   0.00000  Uiso   1.00
N179   N     0.51935   0.86161   0.90472   0.00000  Uiso   1.00
N180   N     0.77222   0.92117   0.21954   0.00000  Uiso   1.00
N181   N     0.02275   0.60824   0.01358   0.00000  Uiso   1.00
N182   N     0.53974   0.94810   0.87004   0.00000  Uiso   1.00
N183   N     0.79261   0.00766   0.18486   0.00000  Uiso   1.00
N184   N     0.04314   0.69473   0.97889   0.00000  Uiso   1.00
C185   C     0.54242   0.29125   0.03200   0.00000  Uiso   1.00
C186   C     0.56590   0.24373   0.98718   0.00000  Uiso   1.00
C187   C     0.63792   0.21825   0.97617   0.00000  Uiso   1.00
C188   C     0.64789   0.17552   0.93344   0.00000  Uiso   1.00
C189   C     0.69347   0.10424   0.86850   0.00000  Uiso   1.00
C190   C     0.51387   0.25007   0.06408   0.00000  Uiso   1.00
C191   C     0.54215   0.22993   0.11773   0.00000  Uiso   1.00
C192   C     0.50832   0.19255   0.13973   0.00000  Uiso   1.00
C193   C     0.47310   0.13116   0.19419   0.00000  Uiso   1.00
C194   C     0.47185   0.35899   0.00616   0.00000  Uiso   1.00
C195   C     0.46478   0.43042   0.01113   0.00000  Uiso   1.00
C196   C     0.39556   0.48475   0.98438   0.00000  Uiso   1.00
C197   C     0.29509   0.59246   0.94891   0.00000  Uiso   1.00
C198   C     0.43204   0.26069   0.97567   0.00000  Uiso   1.00
C199   C     0.50594   0.22713   0.95658   0.00000  Uiso   1.00
C200   C     0.51580   0.18444   0.91385   0.00000  Uiso   1.00
C201   C     0.58783   0.15890   0.90278   0.00000  Uiso   1.00
C202   C     0.45392   0.23347   0.03348   0.00000  Uiso   1.00
C203   C     0.42003   0.19612   0.05540   0.00000  Uiso   1.00
C204   C     0.44826   0.17592   0.10907   0.00000  Uiso   1.00
C205   C     0.41190   0.34239   0.97556   0.00000  Uiso   1.00
C206   C     0.34267   0.39661   0.94880   0.00000  Uiso   1.00
C207   C     0.33550   0.46812   0.95373   0.00000  Uiso   1.00
H208   H     0.58909   0.30417   0.05583   0.00000  Uiso   1.00
H209   H     0.68430   0.23110   0.99987   0.00000  Uiso   1.00
H210   H     0.58854   0.24279   0.14140   0.00000  Uiso   1.00
H211   H     0.51119   0.44325   0.03481   0.00000  Uiso   1.00
H212   H     0.76343   0.14275   0.92434   0.00000  Uiso   1.00
H213   H     0.56150   0.16741   0.22277   0.00000  Uiso   1.00
H214   H     0.39838   0.59013   0.99802   0.00000  Uiso   1.00
H215   H     0.38536   0.24776   0.95185   0.00000  Uiso   1.00
H216   H     0.46940   0.17160   0.89018   0.00000  Uiso   1.00
H217   H     0.37364   0.18329   0.03171   0.00000  Uiso   1.00
H218   H     0.29629   0.38375   0.92513   0.00000  Uiso   1.00
H219   H     0.58901   0.09446   0.83531   0.00000  Uiso   1.00
H220   H     0.38707   0.11912   0.13375   0.00000  Uiso   1.00
H221   H     0.22396   0.54183   0.90899   0.00000  Uiso   1.00
O222   O     0.73518   0.06950   0.84114   0.00000  Uiso   1.00
O223   O     0.47024   0.10187   0.23268   0.00000  Uiso   1.00
O224   O     0.25624   0.65646   0.93780   0.00000  Uiso   1.00
N225   N     0.71084   0.14185   0.91184   0.00000  Uiso   1.00
N226   N     0.52206   0.16490   0.19086   0.00000  Uiso   1.00
N227   N     0.36955   0.56010   0.98074   0.00000  Uiso   1.00
N228   N     0.61699   0.11586   0.86394   0.00000  Uiso   1.00
N229   N     0.42820   0.13891   0.14296   0.00000  Uiso   1.00
N230   N     0.27569   0.53411   0.93284   0.00000  Uiso   1.00
C231   C     0.27287   0.04068   0.04038   0.00000  Uiso   1.00
C232   C     0.27275   0.09068   0.99760   0.00000  Uiso   1.00
C233   C     0.23023   0.16543   0.98998   0.00000  Uiso   1.00
C234   C     0.23809   0.20140   0.94867   0.00000  Uiso   1.00
C235   C     0.23054   0.28475   0.88721   0.00000  Uiso   1.00
C236   C     0.35682   0.00189   0.07091   0.00000  Uiso   1.00
C237   C     0.38496   0.00198   0.12492   0.00000  Uiso   1.00
C238   C     0.46360   0.96319   0.14531   0.00000  Uiso   1.00
C239   C     0.58655   0.90865   0.19766   0.00000  Uiso   1.00
C240   C     0.25044   0.98215   0.01163   0.00000  Uiso   1.00
C241   C     0.18916   0.96562   0.01581   0.00000  Uiso   1.00
C242   C     0.17824   0.91020   0.98630   0.00000  Uiso   1.00
C243   C     0.13603   0.82500   0.94661   0.00000  Uiso   1.00
C244   C     0.36247   0.97163   0.98055   0.00000  Uiso   1.00
C245   C     0.32142   0.05318   0.96511   0.00000  Uiso   1.00
C246   C     0.32936   0.08904   0.92379   0.00000  Uiso   1.00
C247   C     0.28685   0.16383   0.91611   0.00000  Uiso   1.00
C248   C     0.40548   0.96439   0.03841   0.00000  Uiso   1.00
C249   C     0.48409   0.92558   0.05872   0.00000  Uiso   1.00
C250   C     0.51235   0.92562   0.11275   0.00000  Uiso   1.00
C251   C     0.29911   0.94464   0.97913   0.00000  Uiso   1.00
C252   C     0.28829   0.88923   0.94961   0.00000  Uiso   1.00
C253   C     0.22700   0.87263   0.95374   0.00000  Uiso   1.00
H254   H     0.23498   0.06987   0.06568   0.00000  Uiso   1.00
H255   H     0.19258   0.19443   0.01514   0.00000  Uiso   1.00
H256   H     0.34729   0.03100   0.15006   0.00000  Uiso   1.00
H257   H     0.15151   0.99465   0.04096   0.00000  Uiso   1.00
H258   H     0.16704   0.31600   0.94480   0.00000  Uiso   1.00
H259   H     0.49326   0.97136   0.22927   0.00000  Uiso   1.00
H260   H     0.08043   0.89472   0.99922   0.00000  Uiso   1.00
H261   H     0.40036   0.94243   0.95525   0.00000  Uiso   1.00
H262   H     0.36702   0.06000   0.89865   0.00000  Uiso   1.00
H263   H     0.52174   0.89657   0.03356   0.00000  Uiso   1.00
H264   H     0.32596   0.86022   0.92447   0.00000  Uiso   1.00
H265   H     0.30863   0.20689   0.85024   0.00000  Uiso   1.00
H266   H     0.63485   0.86225   0.13472   0.00000  Uiso   1.00
H267   H     0.22202   0.78561   0.90467   0.00000  Uiso   1.00
O268   O     0.21294   0.34109   0.86229   0.00000  Uiso   1.00
O269   O     0.64092   0.88893   0.23551   0.00000  Uiso   1.00
O270   O     0.09930   0.78838   0.93369   0.00000  Uiso   1.00
N271   N     0.20493   0.27418   0.93030   0.00000  Uiso   1.00
N272   N     0.50992   0.95198   0.19627   0.00000  Uiso   1.00
N273   N     0.12397   0.88031   0.98120   0.00000  Uiso   1.00
N274   N     0.28111   0.21547   0.87943   0.00000  Uiso   1.00
N275   N     0.58611   0.89327   0.14539   0.00000  Uiso   1.00
N276   N     0.20016   0.82160   0.93033   0.00000  Uiso   1.00
C277   C     0.85500   0.67635   0.72506   0.00000  Uiso   1.00
C278   C     0.90962   0.62527   0.77283   0.00000  Uiso   1.00
C279   C     0.91161   0.55792   0.78603   0.00000  Uiso   1.00
C280   C     0.96584   0.51948   0.83129   0.00000  Uiso   1.00
C281   C     0.04301   0.43589   0.90074   0.00000  Uiso   1.00
C282   C     0.90617   0.69035   0.69453   0.00000  Uiso   1.00
C283   C     0.90524   0.67773   0.64190   0.00000  Uiso   1.00
C284   C     0.95656   0.69409   0.62125   0.00000  Uiso   1.00
C285   C     0.02833   0.71159   0.56913   0.00000  Uiso   1.00
C286   C     0.81280   0.74873   0.74682   0.00000  Uiso   1.00
C287   C     0.73336   0.78520   0.73815   0.00000  Uiso   1.00
C288   C     0.70607   0.85072   0.76152   0.00000  Uiso   1.00
C289   C     0.63288   0.95886   0.79059   0.00000  Uiso   1.00
C290   C     0.94778   0.72785   0.78197   0.00000  Uiso   1.00
C291   C     0.96002   0.65324   0.80373   0.00000  Uiso   1.00
C292   C     0.01426   0.61490   0.84899   0.00000  Uiso   1.00
C293   C     0.01632   0.54750   0.86226   0.00000  Uiso   1.00
C294   C     0.95656   0.71832   0.72543   0.00000  Uiso   1.00
C295   C     0.00789   0.73471   0.70486   0.00000  Uiso   1.00
C296   C     0.00704   0.72211   0.65221   0.00000  Uiso   1.00
C297   C     0.86319   0.77670   0.77773   0.00000  Uiso   1.00
C298   C     0.83602   0.84218   0.80111   0.00000  Uiso   1.00
C299   C     0.75656   0.87875   0.79248   0.00000  Uiso   1.00
H300   H     0.81577   0.65457   0.70100   0.00000  Uiso   1.00
H301   H     0.87260   0.53628   0.76210   0.00000  Uiso   1.00
H302   H     0.86623   0.65608   0.61799   0.00000  Uiso   1.00
H303   H     0.69439   0.76354   0.71423   0.00000  Uiso   1.00
H304   H     0.95785   0.41747   0.84346   0.00000  Uiso   1.00
H305   H     0.94440   0.67009   0.53959   0.00000  Uiso   1.00
H306   H     0.58203   0.89668   0.74253   0.00000  Uiso   1.00
H307   H     0.98702   0.74964   0.80603   0.00000  Uiso   1.00
H308   H     0.05325   0.63656   0.87290   0.00000  Uiso   1.00
H309   H     0.04688   0.75636   0.72879   0.00000  Uiso   1.00
H310   H     0.87504   0.86381   0.82503   0.00000  Uiso   1.00
H311   H     0.10448   0.49885   0.93339   0.00000  Uiso   1.00
H312   H     0.09102   0.75148   0.62952   0.00000  Uiso   1.00
H313   H     0.72866   0.97807   0.83246   0.00000  Uiso   1.00
O314   O     0.07166   0.38205   0.93051   0.00000  Uiso   1.00
O315   O     0.05400   0.71350   0.53184   0.00000  Uiso   1.00
O316   O     0.57858   0.01077   0.79809   0.00000  Uiso   1.00
N317   N     0.98326   0.45214   0.85545   0.00000  Uiso   1.00
N318   N     0.97069   0.68833   0.57136   0.00000  Uiso   1.00
N319   N     0.63191   0.90017   0.76108   0.00000  Uiso   1.00
N320   N     0.06216   0.49594   0.90384   0.00000  Uiso   1.00
N321   N     0.04959   0.73212   0.61975   0.00000  Uiso   1.00
N322   N     0.71080   0.94397   0.80947   0.00000  Uiso   1.00
C323   C     0.01451   0.06305   0.70561   0.00000  Uiso   1.00
C324   C     0.00184   0.02415   0.74941   0.00000  Uiso   1.00
C325   C     0.94023   0.05216   0.77289   0.00000  Uiso   1.00
C326   C     0.93911   0.00803   0.81226   0.00000  Uiso   1.00
C327   C     0.91053   0.95821   0.87792   0.00000  Uiso   1.00
C328   C     0.02143   0.01270   0.66036   0.00000  Uiso   1.00
C329   C     0.97630   0.03109   0.60897   0.00000  Uiso   1.00
C330   C     0.99168   0.97732   0.57337   0.00000  Uiso   1.00
C331   C     0.99356   0.90975   0.50077   0.00000  Uiso   1.00
C332   C     0.09397   0.06444   0.72636   0.00000  Uiso   1.00
C333   C     0.10983   0.12633   0.73045   0.00000  Uiso   1.00
C334   C     0.18629   0.11612   0.75040   0.00000  Uiso   1.00
C335   C     0.30079   0.12888   0.78027   0.00000  Uiso   1.00
C336   C     0.12209   0.93487   0.73376   0.00000  Uiso   1.00
C337   C     0.06027   0.95453   0.76470   0.00000  Uiso   1.00
C338   C     0.05925   0.91034   0.80404   0.00000  Uiso   1.00
C339   C     0.99765   0.93828   0.82758   0.00000  Uiso   1.00
C340   C     0.07986   0.94308   0.67565   0.00000  Uiso   1.00
C341   C     0.09532   0.88928   0.64012   0.00000  Uiso   1.00
C342   C     0.05022   0.90757   0.58869   0.00000  Uiso   1.00
C343   C     0.15240   0.99482   0.74165   0.00000  Uiso   1.00
C344   C     0.22885   0.98451   0.76160   0.00000  Uiso   1.00
C345   C     0.24483   0.04637   0.76572   0.00000  Uiso   1.00
H346   H     0.96902   0.11725   0.69370   0.00000  Uiso   1.00
H347   H     0.89502   0.10604   0.76104   0.00000  Uiso   1.00
H348   H     0.93109   0.08498   0.59715   0.00000  Uiso   1.00
H349   H     0.06460   0.18020   0.71861   0.00000  Uiso   1.00
H350   H     0.83873   0.06290   0.84243   0.00000  Uiso   1.00
H351   H     0.91481   0.01849   0.49685   0.00000  Uiso   1.00
H352   H     0.19634   0.21929   0.75297   0.00000  Uiso   1.00
H353   H     0.16758   0.88066   0.74567   0.00000  Uiso   1.00
H354   H     0.10448   0.85647   0.81586   0.00000  Uiso   1.00
H355   H     0.14055   0.83540   0.65197   0.00000  Uiso   1.00
H356   H     0.27406   0.93063   0.77343   0.00000  Uiso   1.00
H357   H     0.00873   0.86034   0.88692   0.00000  Uiso   1.00
H358   H     0.08481   0.81593   0.54134   0.00000  Uiso   1.00
H359   H     0.36634   0.01673   0.79746   0.00000  Uiso   1.00
O360   O     0.87862   0.94996   0.90990   0.00000  Uiso   1.00
O361   O     0.97844   0.89171   0.45651   0.00000  Uiso   1.00
O362   O     0.34780   0.15515   0.79253   0.00000  Uiso   1.00
N363   N     0.88741   0.01855   0.84328   0.00000  Uiso   1.00
N364   N     0.95853   0.97703   0.52018   0.00000  Uiso   1.00
N365   N     0.22174   0.16476   0.75961   0.00000  Uiso   1.00
N366   N     0.97888   0.90956   0.86722   0.00000  Uiso   1.00
N367   N     0.05000   0.86803   0.54412   0.00000  Uiso   1.00
N368   N     0.31322   0.05576   0.78356   0.00000  Uiso   1.00
C369   C     0.25827   0.50033   0.65266   0.00000  Uiso   1.00
C370   C     0.24898   0.54892   0.69884   0.00000  Uiso   1.00
C371   C     0.26901   0.60832   0.70640   0.00000  Uiso   1.00
C372   C     0.25595   0.64576   0.75114   0.00000  Uiso   1.00
C373   C     0.24635   0.72445   0.81738   0.00000  Uiso   1.00
C374   C     0.17831   0.50240   0.62738   0.00000  Uiso   1.00
C375   C     0.13893   0.52268   0.57486   0.00000  Uiso   1.00
C376   C     0.06639   0.52095   0.55944   0.00000  Uiso   1.00
C377   C     0.94710   0.52738   0.51472   0.00000  Uiso   1.00
C378   C     0.30722   0.42285   0.67698   0.00000  Uiso   1.00
C379   C     0.37622   0.37624   0.66616   0.00000  Uiso   1.00
C380   C     0.41220   0.30752   0.69249   0.00000  Uiso   1.00
C381   C     0.49306   0.19043   0.72479   0.00000  Uiso   1.00
C382   C     0.19949   0.46118   0.71866   0.00000  Uiso   1.00
C383   C     0.21705   0.52765   0.73468   0.00000  Uiso   1.00
C384   C     0.20397   0.56501   0.77942   0.00000  Uiso   1.00
C385   C     0.22397   0.62445   0.78705   0.00000  Uiso   1.00
C386   C     0.14638   0.48114   0.66322   0.00000  Uiso   1.00
C387   C     0.07389   0.47937   0.64788   0.00000  Uiso   1.00
C388   C     0.03440   0.49965   0.59535   0.00000  Uiso   1.00
C389   C     0.27530   0.40159   0.71283   0.00000  Uiso   1.00
C390   C     0.31118   0.33292   0.73918   0.00000  Uiso   1.00
C391   C     0.38022   0.28621   0.72840   0.00000  Uiso   1.00
H392   H     0.28312   0.51689   0.62475   0.00000  Uiso   1.00
H393   H     0.29371   0.62477   0.67865   0.00000  Uiso   1.00
H394   H     0.16366   0.53913   0.54713   0.00000  Uiso   1.00
H395   H     0.40091   0.39271   0.63841   0.00000  Uiso   1.00
H396   H     0.29133   0.73500   0.75421   0.00000  Uiso   1.00
H397   H     0.01712   0.55442   0.47688   0.00000  Uiso   1.00
H398   H     0.51741   0.24566   0.66938   0.00000  Uiso   1.00
H399   H     0.17463   0.44463   0.74656   0.00000  Uiso   1.00
H400   H     0.17926   0.54854   0.80715   0.00000  Uiso   1.00
H401   H     0.04920   0.46291   0.67563   0.00000  Uiso   1.00
H402   H     0.28645   0.31649   0.76692   0.00000  Uiso   1.00
H403   H     0.19844   0.67314   0.85851   0.00000  Uiso   1.00
H404   H     0.92423   0.49255   0.58117   0.00000  Uiso   1.00
H405   H     0.42452   0.18379   0.77367   0.00000  Uiso   1.00
O406   O     0.24987   0.77374   0.84401   0.00000  Uiso   1.00
O407   O     0.89012   0.53681   0.48016   0.00000  Uiso   1.00
O408   O     0.54649   0.13173   0.73271   0.00000  Uiso   1.00
N409   N     0.26885   0.70617   0.77045   0.00000  Uiso   1.00
N410   N     0.01247   0.53735   0.51116   0.00000  Uiso   1.00
N411   N     0.48019   0.24868   0.69112   0.00000  Uiso   1.00
N412   N     0.21886   0.67288   0.82657   0.00000  Uiso   1.00
N413   N     0.96249   0.50406   0.56728   0.00000  Uiso   1.00
N414   N     0.43021   0.21539   0.74724   0.00000  Uiso   1.00
C415   C     0.65748   0.64310   0.08327   0.00000  Uiso   1.00
C416   C     0.72475   0.61554   0.13207   0.00000  Uiso   1.00
C417   C     0.78462   0.63872   0.14577   0.00000  Uiso   1.00
C418   C     0.84065   0.60681   0.19198   0.00000  Uiso   1.00
C419   C     0.94570   0.57208   0.26297   0.00000  Uiso   1.00
C420   C     0.65848   0.57594   0.05378   0.00000  Uiso   1.00
C421   C     0.66262   0.56583   0.00164   0.00000  Uiso   1.00
C422   C     0.66285   0.50059   0.98194   0.00000  Uiso   1.00
C423   C     0.66496   0.40440   0.93137   0.00000  Uiso   1.00
C424   C     0.58442   0.67074   0.10350   0.00000  Uiso   1.00
C425   C     0.52628   0.74034   0.09316   0.00000  Uiso   1.00
C426   C     0.46414   0.75491   0.11531   0.00000  Uiso   1.00
C427   C     0.35127   0.80592   0.14193   0.00000  Uiso   1.00
C428   C     0.65049   0.54521   0.14097   0.00000  Uiso   1.00
C429   C     0.72096   0.56237   0.16341   0.00000  Uiso   1.00
C430   C     0.77690   0.53042   0.20961   0.00000  Uiso   1.00
C431   C     0.83685   0.55355   0.22338   0.00000  Uiso   1.00
C432   C     0.65469   0.52277   0.08511   0.00000  Uiso   1.00
C433   C     0.65490   0.45753   0.06548   0.00000  Uiso   1.00
C434   C     0.65905   0.44733   0.01333   0.00000  Uiso   1.00
C435   C     0.58063   0.61757   0.13484   0.00000  Uiso   1.00
C436   C     0.51856   0.63204   0.15700   0.00000  Uiso   1.00
C437   C     0.46035   0.70165   0.14670   0.00000  Uiso   1.00
H438   H     0.66043   0.68449   0.05887   0.00000  Uiso   1.00
H439   H     0.78754   0.67986   0.12150   0.00000  Uiso   1.00
H440   H     0.66555   0.60699   0.97740   0.00000  Uiso   1.00
H441   H     0.52924   0.78147   0.06890   0.00000  Uiso   1.00
H442   H     0.92682   0.65127   0.20476   0.00000  Uiso   1.00
H443   H     0.66956   0.49762   0.90090   0.00000  Uiso   1.00
H444   H     0.38211   0.86555   0.09385   0.00000  Uiso   1.00
H445   H     0.64754   0.50381   0.16537   0.00000  Uiso   1.00
H446   H     0.77395   0.48927   0.23386   0.00000  Uiso   1.00
H447   H     0.65196   0.41640   0.08975   0.00000  Uiso   1.00
H448   H     0.51565   0.59088   0.18125   0.00000  Uiso   1.00
H449   H     0.91579   0.49657   0.29595   0.00000  Uiso   1.00
H450   H     0.65853   0.34293   0.99208   0.00000  Uiso   1.00
H451   H     0.37109   0.71085   0.18504   0.00000  Uiso   1.00
O452   O     0.00470   0.56759   0.29347   0.00000  Uiso   1.00
O453   O     0.66718   0.36603   0.89481   0.00000  Uiso   1.00
O454   O     0.29006   0.84874   0.14797   0.00000  Uiso   1.00
N455   N     0.90686   0.61686   0.21683   0.00000  Uiso   1.00
N456   N     0.66636   0.47321   0.93274   0.00000  Uiso   1.00
N457   N     0.39761   0.81719   0.11312   0.00000  Uiso   1.00
N458   N     0.90093   0.53363   0.26590   0.00000  Uiso   1.00
N459   N     0.66042   0.38997   0.98180   0.00000  Uiso   1.00
N460   N     0.39168   0.73395   0.16219   0.00000  Uiso   1.00
C461   C     0.87057   0.15839   0.04091   0.00000  Uiso   1.00
C462   C     0.85887   0.20442   0.08823   0.00000  Uiso   1.00
C463   C     0.79072   0.23549   0.10448   0.00000  Uiso   1.00
C464   C     0.79179   0.27569   0.14872   0.00000  Uiso   1.00
C465   C     0.76343   0.34586   0.21807   0.00000  Uiso   1.00
C466   C     0.89945   0.19571   0.00613   0.00000  Uiso   1.00
C467   C     0.86542   0.21944   0.95335   0.00000  Uiso   1.00
C468   C     0.90067   0.25229   0.92847   0.00000  Uiso   1.00
C469   C     0.93534   0.30888   0.87035   0.00000  Uiso   1.00
C470   C     0.93776   0.08610   0.06241   0.00000  Uiso   1.00
C471   C     0.93595   0.01767   0.05695   0.00000  Uiso   1.00
C472   C     0.00345   0.95824   0.07945   0.00000  Uiso   1.00
C473   C     0.09761   0.84466   0.10872   0.00000  Uiso   1.00
C474   C     0.99367   0.17451   0.09057   0.00000  Uiso   1.00
C475   C     0.92573   0.21318   0.11520   0.00000  Uiso   1.00
C476   C     0.92691   0.25333   0.15943   0.00000  Uiso   1.00
C477   C     0.85877   0.28446   0.17574   0.00000  Uiso   1.00
C478   C     0.96631   0.20446   0.03310   0.00000  Uiso   1.00
C479   C     0.00162   0.23728   0.00829   0.00000  Uiso   1.00
C480   C     0.96765   0.26106   0.95550   0.00000  Uiso   1.00
C481   C     0.00462   0.09486   0.08939   0.00000  Uiso   1.00
C482   C     0.07214   0.03552   0.11190   0.00000  Uiso   1.00
C483   C     0.07044   0.96701   0.10647   0.00000  Uiso   1.00
H484   H     0.81852   0.15157   0.01991   0.00000  Uiso   1.00
H485   H     0.73898   0.22871   0.08359   0.00000  Uiso   1.00
H486   H     0.81368   0.21265   0.93248   0.00000  Uiso   1.00
H487   H     0.88420   0.01092   0.03607   0.00000  Uiso   1.00
H488   H     0.68028   0.31811   0.16608   0.00000  Uiso   1.00
H489   H     0.83781   0.28423   0.84746   0.00000  Uiso   1.00
H490   H     0.98650   0.85884   0.06589   0.00000  Uiso   1.00
H491   H     0.04573   0.18133   0.11157   0.00000  Uiso   1.00
H492   H     0.97866   0.26010   0.18029   0.00000  Uiso   1.00
H493   H     0.05336   0.24405   0.02918   0.00000  Uiso   1.00
H494   H     0.12387   0.04231   0.13277   0.00000  Uiso   1.00
H495   H     0.87481   0.34360   0.24457   0.00000  Uiso   1.00
H496   H     0.03234   0.30971   0.92594   0.00000  Uiso   1.00
H497   H     0.18103   0.88432   0.14437   0.00000  Uiso   1.00
O498   O     0.72932   0.38215   0.24886   0.00000  Uiso   1.00
O499   O     0.93599   0.33769   0.83084   0.00000  Uiso   1.00
O500   O     0.13108   0.77959   0.11742   0.00000  Uiso   1.00
N501   N     0.73527   0.31329   0.17513   0.00000  Uiso   1.00
N502   N     0.88254   0.28162   0.87723   0.00000  Uiso   1.00
N503   N     0.02157   0.88391   0.08144   0.00000  Uiso   1.00
N504   N     0.83994   0.32700   0.21736   0.00000  Uiso   1.00
N505   N     0.98722   0.29533   0.91947   0.00000  Uiso   1.00
N506   N     0.12624   0.89762   0.12367   0.00000  Uiso   1.00
C507   C     0.20187   0.38963   0.13935   0.00000  Uiso   1.00
C508   C     0.21998   0.33837   0.18711   0.00000  Uiso   1.00
C509   C     0.27669   0.26804   0.19722   0.00000  Uiso   1.00
C510   C     0.28415   0.22998   0.24305   0.00000  Uiso   1.00
C511   C     0.31949   0.14561   0.31195   0.00000  Uiso   1.00
C512   C     0.11658   0.41131   0.11301   0.00000  Uiso   1.00
C513   C     0.08634   0.40232   0.06082   0.00000  Uiso   1.00
C514   C     0.00676   0.42567   0.04429   0.00000  Uiso   1.00
C515   C     0.88155   0.45460   0.99815   0.00000  Uiso   1.00
C516   C     0.20903   0.45860   0.16138   0.00000  Uiso   1.00
C517   C     0.25651   0.48939   0.14985   0.00000  Uiso   1.00
C518   C     0.25474   0.55258   0.17402   0.00000  Uiso   1.00
C519   C     0.27308   0.65494   0.20298   0.00000  Uiso   1.00
C520   C     0.11429   0.44710   0.20277   0.00000  Uiso   1.00
C521   C     0.17241   0.36958   0.22155   0.00000  Uiso   1.00
C522   C     0.17979   0.33162   0.26739   0.00000  Uiso   1.00
C523   C     0.23650   0.26125   0.27756   0.00000  Uiso   1.00
C524   C     0.06901   0.44252   0.14746   0.00000  Uiso   1.00
C525   C     0.98945   0.46590   0.13100   0.00000  Uiso   1.00
C526   C     0.95910   0.45694   0.07880   0.00000  Uiso   1.00
C527   C     0.16146   0.48982   0.19583   0.00000  Uiso   1.00
C528   C     0.15961   0.55297   0.22002   0.00000  Uiso   1.00
C529   C     0.20709   0.58385   0.20853   0.00000  Uiso   1.00
H530   H     0.23890   0.36533   0.11252   0.00000  Uiso   1.00
H531   H     0.31349   0.24389   0.17054   0.00000  Uiso   1.00
H532   H     0.12317   0.37816   0.03417   0.00000  Uiso   1.00
H533   H     0.29331   0.46522   0.12319   0.00000  Uiso   1.00
H534   H     0.37518   0.12302   0.25005   0.00000  Uiso   1.00
H535   H     0.97389   0.40615   0.96251   0.00000  Uiso   1.00
H536   H     0.33266   0.58973   0.15020   0.00000  Uiso   1.00
H537   H     0.07725   0.47141   0.22959   0.00000  Uiso   1.00
H538   H     0.14297   0.35579   0.29404   0.00000  Uiso   1.00
H539   H     0.95265   0.49006   0.15767   0.00000  Uiso   1.00
H540   H     0.12280   0.57712   0.24668   0.00000  Uiso   1.00
H541   H     0.23678   0.21384   0.35028   0.00000  Uiso   1.00
H542   H     0.83549   0.49697   0.06273   0.00000  Uiso   1.00
H543   H     0.19426   0.68055   0.25044   0.00000  Uiso   1.00
O544   O     0.35211   0.09045   0.34044   0.00000  Uiso   1.00
O545   O     0.82563   0.46192   0.96319   0.00000  Uiso   1.00
O546   O     0.29634   0.70277   0.20945   0.00000  Uiso   1.00
N547   N     0.33360   0.16027   0.26480   0.00000  Uiso   1.00
N548   N     0.95841   0.42496   0.99597   0.00000  Uiso   1.00
N549   N     0.29382   0.59661   0.17144   0.00000  Uiso   1.00
N550   N     0.25913   0.20914   0.31874   0.00000  Uiso   1.00
N551   N     0.88394   0.47383   0.04990   0.00000  Uiso   1.00
N552   N     0.21935   0.64548   0.22537   0.00000  Uiso   1.00
