data_job_05116
_audit_creation_date              2018-12-19
_audit_creation_method            'Materials Studio'
_symmetry_space_group_name_H-M    'P1'
_symmetry_Int_Tables_number       1
_symmetry_cell_setting            triclinic
loop_
_symmetry_equiv_pos_as_xyz
  x,y,z
_cell_length_a                    23.2254
_cell_length_b                    10.2687
_cell_length_c                    25.8244
_cell_angle_alpha                 90.0000
_cell_angle_beta                  110.8950
_cell_angle_gamma                 90.0000
loop_
_atom_site_label
_atom_site_type_symbol
_atom_site_fract_x
_atom_site_fract_y
_atom_site_fract_z
_atom_site_U_iso_or_equiv
_atom_site_adp_type
_atom_site_occupancy
C1     C     0.94998   0.24133   0.64996   0.00000  Uiso   1.00
C2     C     0.92220   0.24639   0.58684   0.00000  Uiso   1.00
C3     C     0.93781   0.33459   0.55331   0.00000  Uiso   1.00
C4     C     0.90710   0.32313   0.49651   0.00000  Uiso   1.00
C5     C     0.87074   0.34567   0.40192   0.00000  Uiso   1.00
C6     C     0.89593   0.25229   0.67011   0.00000  Uiso   1.00
C7     C     0.88947   0.34545   0.70659   0.00000  Uiso   1.00
C8     C     0.83666   0.33893   0.71990   0.00000  Uiso   1.00
C9     C     0.75954   0.37058   0.75461   0.00000  Uiso   1.00
C10    C     0.97541   0.10387   0.66466   0.00000  Uiso   1.00
C11    C     0.03577   0.07224   0.69657   0.00000  Uiso   1.00
C12    C     0.04987   0.94077   0.70530   0.00000  Uiso   1.00
C13    C     0.09615   0.74198   0.73155   0.00000  Uiso   1.00
C14    C     0.86768   0.06411   0.60872   0.00000  Uiso   1.00
C15    C     0.87749   0.15013   0.56444   0.00000  Uiso   1.00
C16    C     0.84675   0.13852   0.50768   0.00000  Uiso   1.00
C17    C     0.86232   0.22670   0.47407   0.00000  Uiso   1.00
C18    C     0.85123   0.15603   0.64771   0.00000  Uiso   1.00
C19    C     0.79841   0.14938   0.66097   0.00000  Uiso   1.00
C20    C     0.79187   0.24250   0.69746   0.00000  Uiso   1.00
C21    C     0.93071   0.00761   0.64226   0.00000  Uiso   1.00
C22    C     0.94471   0.87617   0.65094   0.00000  Uiso   1.00
C23    C     0.00509   0.84434   0.68286   0.00000  Uiso   1.00
H24    H     0.98478   0.31627   0.66740   0.00000  Uiso   1.00
H25    H     0.97241   0.40908   0.57066   0.00000  Uiso   1.00
H26    H     0.92408   0.41992   0.72392   0.00000  Uiso   1.00
H27    H     0.07036   0.14675   0.71390   0.00000  Uiso   1.00
H28    H     0.93895   0.46956   0.45353   0.00000  Uiso   1.00
H29    H     0.83706   0.49238   0.77671   0.00000  Uiso   1.00
H30    H     0.14552   0.91636   0.75558   0.00000  Uiso   1.00
H31    H     0.83287   0.98917   0.59128   0.00000  Uiso   1.00
H32    H     0.81216   0.06402   0.49036   0.00000  Uiso   1.00
H33    H     0.76383   0.07487   0.64363   0.00000  Uiso   1.00
H34    H     0.91011   0.80171   0.63360   0.00000  Uiso   1.00
H35    H     0.80889   0.18950   0.38836   0.00000  Uiso   1.00
H36    H     0.70700   0.21233   0.71155   0.00000  Uiso   1.00
H37    H     0.01545   0.63631   0.69041   0.00000  Uiso   1.00
O38    O     0.86302   0.38470   0.35593   0.00000  Uiso   1.00
O39    O     0.72935   0.41464   0.77995   0.00000  Uiso   1.00
O40    O     0.13403   0.65892   0.75221   0.00000  Uiso   1.00
N41    N     0.91119   0.39335   0.45204   0.00000  Uiso   1.00
N42    N     0.81593   0.41471   0.75419   0.00000  Uiso   1.00
N43    N     0.10430   0.87618   0.73444   0.00000  Uiso   1.00
N44    N     0.84121   0.24266   0.41697   0.00000  Uiso   1.00
N45    N     0.74594   0.26401   0.71912   0.00000  Uiso   1.00
N46    N     0.03431   0.72549   0.69937   0.00000  Uiso   1.00
C47    C     0.44998   0.74133   0.64996   0.00000  Uiso   1.00
C48    C     0.42220   0.74639   0.58684   0.00000  Uiso   1.00
C49    C     0.43781   0.83459   0.55331   0.00000  Uiso   1.00
C50    C     0.40710   0.82313   0.49651   0.00000  Uiso   1.00
C51    C     0.37074   0.84567   0.40192   0.00000  Uiso   1.00
C52    C     0.39593   0.75229   0.67011   0.00000  Uiso   1.00
C53    C     0.38947   0.84545   0.70659   0.00000  Uiso   1.00
C54    C     0.33666   0.83893   0.71990   0.00000  Uiso   1.00
C55    C     0.25954   0.87058   0.75461   0.00000  Uiso   1.00
C56    C     0.47541   0.60387   0.66466   0.00000  Uiso   1.00
C57    C     0.53577   0.57224   0.69657   0.00000  Uiso   1.00
C58    C     0.54987   0.44077   0.70530   0.00000  Uiso   1.00
C59    C     0.59615   0.24198   0.73155   0.00000  Uiso   1.00
C60    C     0.36768   0.56411   0.60872   0.00000  Uiso   1.00
C61    C     0.37749   0.65013   0.56444   0.00000  Uiso   1.00
C62    C     0.34675   0.63852   0.50768   0.00000  Uiso   1.00
C63    C     0.36232   0.72670   0.47407   0.00000  Uiso   1.00
C64    C     0.35123   0.65603   0.64771   0.00000  Uiso   1.00
C65    C     0.29841   0.64938   0.66097   0.00000  Uiso   1.00
C66    C     0.29187   0.74250   0.69746   0.00000  Uiso   1.00
C67    C     0.43071   0.50761   0.64226   0.00000  Uiso   1.00
C68    C     0.44471   0.37617   0.65094   0.00000  Uiso   1.00
C69    C     0.50509   0.34434   0.68286   0.00000  Uiso   1.00
H70    H     0.48478   0.81627   0.66740   0.00000  Uiso   1.00
H71    H     0.47241   0.90908   0.57066   0.00000  Uiso   1.00
H72    H     0.42408   0.91992   0.72392   0.00000  Uiso   1.00
H73    H     0.57036   0.64675   0.71390   0.00000  Uiso   1.00
H74    H     0.43895   0.96956   0.45353   0.00000  Uiso   1.00
H75    H     0.33706   0.99238   0.77671   0.00000  Uiso   1.00
H76    H     0.64552   0.41636   0.75558   0.00000  Uiso   1.00
H77    H     0.33287   0.48917   0.59128   0.00000  Uiso   1.00
H78    H     0.31216   0.56402   0.49036   0.00000  Uiso   1.00
H79    H     0.26383   0.57487   0.64363   0.00000  Uiso   1.00
H80    H     0.41011   0.30171   0.63360   0.00000  Uiso   1.00
H81    H     0.30889   0.68950   0.38836   0.00000  Uiso   1.00
H82    H     0.20700   0.71233   0.71155   0.00000  Uiso   1.00
H83    H     0.51545   0.13631   0.69041   0.00000  Uiso   1.00
O84    O     0.36302   0.88470   0.35593   0.00000  Uiso   1.00
O85    O     0.22935   0.91464   0.77995   0.00000  Uiso   1.00
O86    O     0.63403   0.15892   0.75221   0.00000  Uiso   1.00
N87    N     0.41119   0.89335   0.45204   0.00000  Uiso   1.00
N88    N     0.31593   0.91471   0.75419   0.00000  Uiso   1.00
N89    N     0.60430   0.37618   0.73444   0.00000  Uiso   1.00
N90    N     0.34121   0.74266   0.41697   0.00000  Uiso   1.00
N91    N     0.24594   0.76401   0.71912   0.00000  Uiso   1.00
N92    N     0.53431   0.22549   0.69937   0.00000  Uiso   1.00
C93    C     0.05002   0.24133   0.85004   0.00000  Uiso   1.00
C94    C     0.07780   0.24639   0.91316   0.00000  Uiso   1.00
C95    C     0.06219   0.33459   0.94669   0.00000  Uiso   1.00
C96    C     0.09290   0.32313   0.00349   0.00000  Uiso   1.00
C97    C     0.12926   0.34567   0.09808   0.00000  Uiso   1.00
C98    C     0.10407   0.25229   0.82989   0.00000  Uiso   1.00
C99    C     0.11053   0.34545   0.79341   0.00000  Uiso   1.00
C100   C     0.16334   0.33893   0.78010   0.00000  Uiso   1.00
C101   C     0.24046   0.37058   0.74539   0.00000  Uiso   1.00
C102   C     0.02459   0.10387   0.83534   0.00000  Uiso   1.00
C103   C     0.96423   0.07224   0.80343   0.00000  Uiso   1.00
C104   C     0.95013   0.94077   0.79470   0.00000  Uiso   1.00
C105   C     0.90385   0.74198   0.76845   0.00000  Uiso   1.00
C106   C     0.13232   0.06411   0.89128   0.00000  Uiso   1.00
C107   C     0.12251   0.15013   0.93556   0.00000  Uiso   1.00
C108   C     0.15325   0.13852   0.99232   0.00000  Uiso   1.00
C109   C     0.13768   0.22670   0.02593   0.00000  Uiso   1.00
C110   C     0.14877   0.15603   0.85229   0.00000  Uiso   1.00
C111   C     0.20159   0.14938   0.83903   0.00000  Uiso   1.00
C112   C     0.20813   0.24250   0.80254   0.00000  Uiso   1.00
C113   C     0.06929   0.00761   0.85774   0.00000  Uiso   1.00
C114   C     0.05529   0.87617   0.84906   0.00000  Uiso   1.00
C115   C     0.99491   0.84434   0.81714   0.00000  Uiso   1.00
H116   H     0.01522   0.31627   0.83260   0.00000  Uiso   1.00
H117   H     0.02759   0.40908   0.92934   0.00000  Uiso   1.00
H118   H     0.07592   0.41992   0.77608   0.00000  Uiso   1.00
H119   H     0.92964   0.14675   0.78610   0.00000  Uiso   1.00
H120   H     0.06105   0.46956   0.04647   0.00000  Uiso   1.00
H121   H     0.16294   0.49238   0.72329   0.00000  Uiso   1.00
H122   H     0.85448   0.91636   0.74442   0.00000  Uiso   1.00
H123   H     0.16713   0.98917   0.90872   0.00000  Uiso   1.00
H124   H     0.18784   0.06402   0.00964   0.00000  Uiso   1.00
H125   H     0.23617   0.07487   0.85637   0.00000  Uiso   1.00
H126   H     0.08989   0.80171   0.86640   0.00000  Uiso   1.00
H127   H     0.19111   0.18950   0.11164   0.00000  Uiso   1.00
H128   H     0.29300   0.21233   0.78845   0.00000  Uiso   1.00
H129   H     0.98455   0.63631   0.80959   0.00000  Uiso   1.00
O130   O     0.13698   0.38470   0.14407   0.00000  Uiso   1.00
O131   O     0.27065   0.41464   0.72005   0.00000  Uiso   1.00
O132   O     0.86597   0.65892   0.74779   0.00000  Uiso   1.00
N133   N     0.08881   0.39335   0.04796   0.00000  Uiso   1.00
N134   N     0.18407   0.41471   0.74581   0.00000  Uiso   1.00
N135   N     0.89570   0.87618   0.76556   0.00000  Uiso   1.00
N136   N     0.15879   0.24266   0.08303   0.00000  Uiso   1.00
N137   N     0.25406   0.26401   0.78088   0.00000  Uiso   1.00
N138   N     0.96569   0.72549   0.80063   0.00000  Uiso   1.00
C139   C     0.55002   0.74133   0.85004   0.00000  Uiso   1.00
C140   C     0.57780   0.74639   0.91316   0.00000  Uiso   1.00
C141   C     0.56219   0.83459   0.94669   0.00000  Uiso   1.00
C142   C     0.59290   0.82313   0.00349   0.00000  Uiso   1.00
C143   C     0.62926   0.84567   0.09808   0.00000  Uiso   1.00
C144   C     0.60407   0.75229   0.82989   0.00000  Uiso   1.00
C145   C     0.61053   0.84545   0.79341   0.00000  Uiso   1.00
C146   C     0.66334   0.83893   0.78010   0.00000  Uiso   1.00
C147   C     0.74046   0.87058   0.74539   0.00000  Uiso   1.00
C148   C     0.52459   0.60387   0.83534   0.00000  Uiso   1.00
C149   C     0.46423   0.57224   0.80343   0.00000  Uiso   1.00
C150   C     0.45013   0.44077   0.79470   0.00000  Uiso   1.00
C151   C     0.40385   0.24198   0.76845   0.00000  Uiso   1.00
C152   C     0.63232   0.56411   0.89128   0.00000  Uiso   1.00
C153   C     0.62251   0.65013   0.93556   0.00000  Uiso   1.00
C154   C     0.65325   0.63852   0.99232   0.00000  Uiso   1.00
C155   C     0.63768   0.72670   0.02593   0.00000  Uiso   1.00
C156   C     0.64877   0.65603   0.85229   0.00000  Uiso   1.00
C157   C     0.70159   0.64938   0.83903   0.00000  Uiso   1.00
C158   C     0.70813   0.74250   0.80254   0.00000  Uiso   1.00
C159   C     0.56929   0.50761   0.85774   0.00000  Uiso   1.00
C160   C     0.55529   0.37617   0.84906   0.00000  Uiso   1.00
C161   C     0.49491   0.34434   0.81714   0.00000  Uiso   1.00
H162   H     0.51522   0.81627   0.83260   0.00000  Uiso   1.00
H163   H     0.52759   0.90908   0.92934   0.00000  Uiso   1.00
H164   H     0.57592   0.91992   0.77608   0.00000  Uiso   1.00
H165   H     0.42964   0.64675   0.78610   0.00000  Uiso   1.00
H166   H     0.56105   0.96956   0.04647   0.00000  Uiso   1.00
H167   H     0.66294   0.99238   0.72329   0.00000  Uiso   1.00
H168   H     0.35448   0.41636   0.74442   0.00000  Uiso   1.00
H169   H     0.66713   0.48917   0.90872   0.00000  Uiso   1.00
H170   H     0.68784   0.56402   0.00964   0.00000  Uiso   1.00
H171   H     0.73617   0.57487   0.85637   0.00000  Uiso   1.00
H172   H     0.58989   0.30171   0.86640   0.00000  Uiso   1.00
H173   H     0.69111   0.68950   0.11164   0.00000  Uiso   1.00
H174   H     0.79300   0.71233   0.78845   0.00000  Uiso   1.00
H175   H     0.48455   0.13631   0.80959   0.00000  Uiso   1.00
O176   O     0.63698   0.88470   0.14407   0.00000  Uiso   1.00
O177   O     0.77065   0.91464   0.72005   0.00000  Uiso   1.00
O178   O     0.36597   0.15892   0.74779   0.00000  Uiso   1.00
N179   N     0.58881   0.89335   0.04796   0.00000  Uiso   1.00
N180   N     0.68407   0.91471   0.74581   0.00000  Uiso   1.00
N181   N     0.39570   0.37618   0.76556   0.00000  Uiso   1.00
N182   N     0.65879   0.74266   0.08303   0.00000  Uiso   1.00
N183   N     0.75406   0.76401   0.78088   0.00000  Uiso   1.00
N184   N     0.46569   0.22549   0.80063   0.00000  Uiso   1.00
C185   C     0.05002   0.75867   0.35004   0.00000  Uiso   1.00
C186   C     0.07780   0.75361   0.41316   0.00000  Uiso   1.00
C187   C     0.06219   0.66541   0.44669   0.00000  Uiso   1.00
C188   C     0.09290   0.67687   0.50349   0.00000  Uiso   1.00
C189   C     0.12926   0.65433   0.59808   0.00000  Uiso   1.00
C190   C     0.10407   0.74771   0.32989   0.00000  Uiso   1.00
C191   C     0.11053   0.65455   0.29341   0.00000  Uiso   1.00
C192   C     0.16334   0.66107   0.28010   0.00000  Uiso   1.00
C193   C     0.24046   0.62942   0.24539   0.00000  Uiso   1.00
C194   C     0.02459   0.89613   0.33534   0.00000  Uiso   1.00
C195   C     0.96423   0.92776   0.30343   0.00000  Uiso   1.00
C196   C     0.95013   0.05923   0.29470   0.00000  Uiso   1.00
C197   C     0.90385   0.25802   0.26845   0.00000  Uiso   1.00
C198   C     0.13232   0.93589   0.39128   0.00000  Uiso   1.00
C199   C     0.12251   0.84987   0.43556   0.00000  Uiso   1.00
C200   C     0.15325   0.86148   0.49232   0.00000  Uiso   1.00
C201   C     0.13768   0.77330   0.52593   0.00000  Uiso   1.00
C202   C     0.14877   0.84397   0.35229   0.00000  Uiso   1.00
C203   C     0.20159   0.85062   0.33903   0.00000  Uiso   1.00
C204   C     0.20813   0.75750   0.30254   0.00000  Uiso   1.00
C205   C     0.06929   0.99239   0.35774   0.00000  Uiso   1.00
C206   C     0.05529   0.12383   0.34906   0.00000  Uiso   1.00
C207   C     0.99491   0.15566   0.31714   0.00000  Uiso   1.00
H208   H     0.01522   0.68373   0.33260   0.00000  Uiso   1.00
H209   H     0.02759   0.59092   0.42934   0.00000  Uiso   1.00
H210   H     0.07592   0.58008   0.27608   0.00000  Uiso   1.00
H211   H     0.92964   0.85325   0.28610   0.00000  Uiso   1.00
H212   H     0.06105   0.53044   0.54647   0.00000  Uiso   1.00
H213   H     0.16294   0.50762   0.22329   0.00000  Uiso   1.00
H214   H     0.85448   0.08364   0.24442   0.00000  Uiso   1.00
H215   H     0.16713   0.01083   0.40872   0.00000  Uiso   1.00
H216   H     0.18784   0.93598   0.50964   0.00000  Uiso   1.00
H217   H     0.23617   0.92513   0.35637   0.00000  Uiso   1.00
H218   H     0.08989   0.19829   0.36640   0.00000  Uiso   1.00
H219   H     0.19111   0.81050   0.61164   0.00000  Uiso   1.00
H220   H     0.29300   0.78767   0.28845   0.00000  Uiso   1.00
H221   H     0.98455   0.36369   0.30959   0.00000  Uiso   1.00
O222   O     0.13698   0.61530   0.64407   0.00000  Uiso   1.00
O223   O     0.27065   0.58536   0.22005   0.00000  Uiso   1.00
O224   O     0.86597   0.34108   0.24779   0.00000  Uiso   1.00
N225   N     0.08881   0.60665   0.54796   0.00000  Uiso   1.00
N226   N     0.18407   0.58529   0.24581   0.00000  Uiso   1.00
N227   N     0.89570   0.12382   0.26556   0.00000  Uiso   1.00
N228   N     0.15879   0.75734   0.58303   0.00000  Uiso   1.00
N229   N     0.25406   0.73599   0.28088   0.00000  Uiso   1.00
N230   N     0.96569   0.27451   0.30063   0.00000  Uiso   1.00
C231   C     0.55002   0.25867   0.35004   0.00000  Uiso   1.00
C232   C     0.57780   0.25361   0.41316   0.00000  Uiso   1.00
C233   C     0.56219   0.16541   0.44669   0.00000  Uiso   1.00
C234   C     0.59290   0.17687   0.50349   0.00000  Uiso   1.00
C235   C     0.62926   0.15433   0.59808   0.00000  Uiso   1.00
C236   C     0.60407   0.24771   0.32989   0.00000  Uiso   1.00
C237   C     0.61053   0.15455   0.29341   0.00000  Uiso   1.00
C238   C     0.66334   0.16107   0.28010   0.00000  Uiso   1.00
C239   C     0.74046   0.12942   0.24539   0.00000  Uiso   1.00
C240   C     0.52459   0.39613   0.33534   0.00000  Uiso   1.00
C241   C     0.46423   0.42776   0.30343   0.00000  Uiso   1.00
C242   C     0.45013   0.55923   0.29470   0.00000  Uiso   1.00
C243   C     0.40385   0.75802   0.26845   0.00000  Uiso   1.00
C244   C     0.63232   0.43589   0.39128   0.00000  Uiso   1.00
C245   C     0.62251   0.34987   0.43556   0.00000  Uiso   1.00
C246   C     0.65325   0.36148   0.49232   0.00000  Uiso   1.00
C247   C     0.63768   0.27330   0.52593   0.00000  Uiso   1.00
C248   C     0.64877   0.34397   0.35229   0.00000  Uiso   1.00
C249   C     0.70159   0.35062   0.33903   0.00000  Uiso   1.00
C250   C     0.70813   0.25750   0.30254   0.00000  Uiso   1.00
C251   C     0.56929   0.49239   0.35774   0.00000  Uiso   1.00
C252   C     0.55529   0.62383   0.34906   0.00000  Uiso   1.00
C253   C     0.49491   0.65566   0.31714   0.00000  Uiso   1.00
H254   H     0.51522   0.18373   0.33260   0.00000  Uiso   1.00
H255   H     0.52759   0.09092   0.42934   0.00000  Uiso   1.00
H256   H     0.57592   0.08008   0.27608   0.00000  Uiso   1.00
H257   H     0.42964   0.35325   0.28610   0.00000  Uiso   1.00
H258   H     0.56105   0.03044   0.54647   0.00000  Uiso   1.00
H259   H     0.66294   0.00762   0.22329   0.00000  Uiso   1.00
H260   H     0.35448   0.58364   0.24442   0.00000  Uiso   1.00
H261   H     0.66713   0.51083   0.40872   0.00000  Uiso   1.00
H262   H     0.68784   0.43598   0.50964   0.00000  Uiso   1.00
H263   H     0.73617   0.42513   0.35637   0.00000  Uiso   1.00
H264   H     0.58989   0.69829   0.36640   0.00000  Uiso   1.00
H265   H     0.69111   0.31050   0.61164   0.00000  Uiso   1.00
H266   H     0.79300   0.28767   0.28845   0.00000  Uiso   1.00
H267   H     0.48455   0.86369   0.30959   0.00000  Uiso   1.00
O268   O     0.63698   0.11530   0.64407   0.00000  Uiso   1.00
O269   O     0.77065   0.08536   0.22005   0.00000  Uiso   1.00
O270   O     0.36597   0.84108   0.24779   0.00000  Uiso   1.00
N271   N     0.58881   0.10665   0.54796   0.00000  Uiso   1.00
N272   N     0.68407   0.08529   0.24581   0.00000  Uiso   1.00
N273   N     0.39570   0.62382   0.26556   0.00000  Uiso   1.00
N274   N     0.65879   0.25734   0.58303   0.00000  Uiso   1.00
N275   N     0.75406   0.23599   0.28088   0.00000  Uiso   1.00
N276   N     0.46569   0.77451   0.30063   0.00000  Uiso   1.00
C277   C     0.94998   0.75867   0.14996   0.00000  Uiso   1.00
C278   C     0.92220   0.75361   0.08684   0.00000  Uiso   1.00
C279   C     0.93781   0.66541   0.05331   0.00000  Uiso   1.00
C280   C     0.90710   0.67687   0.99651   0.00000  Uiso   1.00
C281   C     0.87074   0.65433   0.90192   0.00000  Uiso   1.00
C282   C     0.89593   0.74771   0.17011   0.00000  Uiso   1.00
C283   C     0.88947   0.65455   0.20659   0.00000  Uiso   1.00
C284   C     0.83666   0.66107   0.21990   0.00000  Uiso   1.00
C285   C     0.75954   0.62942   0.25461   0.00000  Uiso   1.00
C286   C     0.97541   0.89613   0.16466   0.00000  Uiso   1.00
C287   C     0.03577   0.92776   0.19657   0.00000  Uiso   1.00
C288   C     0.04987   0.05923   0.20530   0.00000  Uiso   1.00
C289   C     0.09615   0.25802   0.23155   0.00000  Uiso   1.00
C290   C     0.86768   0.93589   0.10872   0.00000  Uiso   1.00
C291   C     0.87749   0.84987   0.06444   0.00000  Uiso   1.00
C292   C     0.84675   0.86148   0.00768   0.00000  Uiso   1.00
C293   C     0.86232   0.77330   0.97407   0.00000  Uiso   1.00
C294   C     0.85123   0.84397   0.14771   0.00000  Uiso   1.00
C295   C     0.79841   0.85062   0.16097   0.00000  Uiso   1.00
C296   C     0.79187   0.75750   0.19746   0.00000  Uiso   1.00
C297   C     0.93071   0.99239   0.14226   0.00000  Uiso   1.00
C298   C     0.94471   0.12383   0.15094   0.00000  Uiso   1.00
C299   C     0.00509   0.15566   0.18286   0.00000  Uiso   1.00
H300   H     0.98478   0.68373   0.16740   0.00000  Uiso   1.00
H301   H     0.97241   0.59092   0.07066   0.00000  Uiso   1.00
H302   H     0.92408   0.58008   0.22392   0.00000  Uiso   1.00
H303   H     0.07036   0.85325   0.21390   0.00000  Uiso   1.00
H304   H     0.93895   0.53044   0.95353   0.00000  Uiso   1.00
H305   H     0.83706   0.50762   0.27671   0.00000  Uiso   1.00
H306   H     0.14552   0.08364   0.25558   0.00000  Uiso   1.00
H307   H     0.83287   0.01083   0.09128   0.00000  Uiso   1.00
H308   H     0.81216   0.93598   0.99036   0.00000  Uiso   1.00
H309   H     0.76383   0.92513   0.14363   0.00000  Uiso   1.00
H310   H     0.91011   0.19829   0.13360   0.00000  Uiso   1.00
H311   H     0.80889   0.81050   0.88836   0.00000  Uiso   1.00
H312   H     0.70700   0.78767   0.21155   0.00000  Uiso   1.00
H313   H     0.01545   0.36369   0.19041   0.00000  Uiso   1.00
O314   O     0.86302   0.61530   0.85593   0.00000  Uiso   1.00
O315   O     0.72935   0.58536   0.27995   0.00000  Uiso   1.00
O316   O     0.13403   0.34108   0.25221   0.00000  Uiso   1.00
N317   N     0.91119   0.60665   0.95204   0.00000  Uiso   1.00
N318   N     0.81593   0.58529   0.25419   0.00000  Uiso   1.00
N319   N     0.10430   0.12382   0.23444   0.00000  Uiso   1.00
N320   N     0.84121   0.75734   0.91697   0.00000  Uiso   1.00
N321   N     0.74594   0.73599   0.21912   0.00000  Uiso   1.00
N322   N     0.03431   0.27451   0.19937   0.00000  Uiso   1.00
C323   C     0.44998   0.25867   0.14996   0.00000  Uiso   1.00
C324   C     0.42220   0.25361   0.08684   0.00000  Uiso   1.00
C325   C     0.43781   0.16541   0.05331   0.00000  Uiso   1.00
C326   C     0.40710   0.17687   0.99651   0.00000  Uiso   1.00
C327   C     0.37074   0.15433   0.90192   0.00000  Uiso   1.00
C328   C     0.39593   0.24771   0.17011   0.00000  Uiso   1.00
C329   C     0.38947   0.15455   0.20659   0.00000  Uiso   1.00
C330   C     0.33666   0.16107   0.21990   0.00000  Uiso   1.00
C331   C     0.25954   0.12942   0.25461   0.00000  Uiso   1.00
C332   C     0.47541   0.39613   0.16466   0.00000  Uiso   1.00
C333   C     0.53577   0.42776   0.19657   0.00000  Uiso   1.00
C334   C     0.54987   0.55923   0.20530   0.00000  Uiso   1.00
C335   C     0.59615   0.75802   0.23155   0.00000  Uiso   1.00
C336   C     0.36768   0.43589   0.10872   0.00000  Uiso   1.00
C337   C     0.37749   0.34987   0.06444   0.00000  Uiso   1.00
C338   C     0.34675   0.36148   0.00768   0.00000  Uiso   1.00
C339   C     0.36232   0.27330   0.97407   0.00000  Uiso   1.00
C340   C     0.35123   0.34397   0.14771   0.00000  Uiso   1.00
C341   C     0.29841   0.35062   0.16097   0.00000  Uiso   1.00
C342   C     0.29187   0.25750   0.19746   0.00000  Uiso   1.00
C343   C     0.43071   0.49239   0.14226   0.00000  Uiso   1.00
C344   C     0.44471   0.62383   0.15094   0.00000  Uiso   1.00
C345   C     0.50509   0.65566   0.18286   0.00000  Uiso   1.00
H346   H     0.48478   0.18373   0.16740   0.00000  Uiso   1.00
H347   H     0.47241   0.09092   0.07066   0.00000  Uiso   1.00
H348   H     0.42408   0.08008   0.22392   0.00000  Uiso   1.00
H349   H     0.57036   0.35325   0.21390   0.00000  Uiso   1.00
H350   H     0.43895   0.03044   0.95353   0.00000  Uiso   1.00
H351   H     0.33706   0.00762   0.27671   0.00000  Uiso   1.00
H352   H     0.64552   0.58364   0.25558   0.00000  Uiso   1.00
H353   H     0.33287   0.51083   0.09128   0.00000  Uiso   1.00
H354   H     0.31216   0.43598   0.99036   0.00000  Uiso   1.00
H355   H     0.26383   0.42513   0.14363   0.00000  Uiso   1.00
H356   H     0.41011   0.69829   0.13360   0.00000  Uiso   1.00
H357   H     0.30889   0.31050   0.88836   0.00000  Uiso   1.00
H358   H     0.20700   0.28767   0.21155   0.00000  Uiso   1.00
H359   H     0.51545   0.86369   0.19041   0.00000  Uiso   1.00
O360   O     0.36302   0.11530   0.85593   0.00000  Uiso   1.00
O361   O     0.22935   0.08536   0.27995   0.00000  Uiso   1.00
O362   O     0.63403   0.84108   0.25221   0.00000  Uiso   1.00
N363   N     0.41119   0.10665   0.95204   0.00000  Uiso   1.00
N364   N     0.31593   0.08529   0.25419   0.00000  Uiso   1.00
N365   N     0.60430   0.62382   0.23444   0.00000  Uiso   1.00
N366   N     0.34121   0.25734   0.91697   0.00000  Uiso   1.00
N367   N     0.24594   0.23599   0.21912   0.00000  Uiso   1.00
N368   N     0.53431   0.77451   0.19937   0.00000  Uiso   1.00
