data_job_01075
_audit_creation_date              2018-12-19
_audit_creation_method            'Materials Studio'
_symmetry_space_group_name_H-M    'P1'
_symmetry_Int_Tables_number       1
_symmetry_cell_setting            triclinic
loop_
_symmetry_equiv_pos_as_xyz
  x,y,z
_cell_length_a                    20.2267
_cell_length_b                    13.7313
_cell_length_c                    16.7018
_cell_angle_alpha                 90.0000
_cell_angle_beta                  89.3500
_cell_angle_gamma                 90.0000
loop_
_atom_site_label
_atom_site_type_symbol
_atom_site_fract_x
_atom_site_fract_y
_atom_site_fract_z
_atom_site_U_iso_or_equiv
_atom_site_adp_type
_atom_site_occupancy
C1     C     0.70115   0.97323   0.71674   0.00000  Uiso   1.00
C2     C     0.75439   0.92637   0.76792   0.00000  Uiso   1.00
C3     C     0.81533   0.96700   0.78557   0.00000  Uiso   1.00
C4     C     0.85713   0.91253   0.83341   0.00000  Uiso   1.00
C5     C     0.94263   0.85370   0.90842   0.00000  Uiso   1.00
C6     C     0.68676   0.90075   0.64999   0.00000  Uiso   1.00
C7     C     0.69084   0.91984   0.56849   0.00000  Uiso   1.00
C8     C     0.67569   0.84381   0.51705   0.00000  Uiso   1.00
C9     C     0.65616   0.74523   0.40898   0.00000  Uiso   1.00
C10    C     0.63889   0.97678   0.76901   0.00000  Uiso   1.00
C11    C     0.60271   0.05980   0.78756   0.00000  Uiso   1.00
C12    C     0.54725   0.04778   0.83631   0.00000  Uiso   1.00
C13    C     0.45340   0.06725   0.91303   0.00000  Uiso   1.00
C14    C     0.66699   0.80426   0.77032   0.00000  Uiso   1.00
C15    C     0.73584   0.83458   0.79702   0.00000  Uiso   1.00
C16    C     0.77755   0.78004   0.84485   0.00000  Uiso   1.00
C17    C     0.83854   0.82058   0.86257   0.00000  Uiso   1.00
C18    C     0.66821   0.80897   0.67909   0.00000  Uiso   1.00
C19    C     0.65305   0.73289   0.62777   0.00000  Uiso   1.00
C20    C     0.65711   0.75186   0.54621   0.00000  Uiso   1.00
C21    C     0.62034   0.88500   0.79811   0.00000  Uiso   1.00
C22    C     0.56493   0.87285   0.84684   0.00000  Uiso   1.00
C23    C     0.52867   0.95584   0.86547   0.00000  Uiso   1.00
H24    H     0.71559   0.04469   0.69408   0.00000  Uiso   1.00
H25    H     0.82968   0.03802   0.76303   0.00000  Uiso   1.00
H26    H     0.70519   0.99088   0.54598   0.00000  Uiso   1.00
H27    H     0.61708   0.13082   0.76503   0.00000  Uiso   1.00
H28    H     0.94799   0.99014   0.85229   0.00000  Uiso   1.00
H29    H     0.68548   0.89075   0.39464   0.00000  Uiso   1.00
H30    H     0.49968   0.18584   0.85653   0.00000  Uiso   1.00
H31    H     0.65255   0.73280   0.79297   0.00000  Uiso   1.00
H32    H     0.76318   0.70902   0.86736   0.00000  Uiso   1.00
H33    H     0.63869   0.66188   0.65031   0.00000  Uiso   1.00
H34    H     0.55058   0.80181   0.86935   0.00000  Uiso   1.00
H35    H     0.89401   0.72311   0.93696   0.00000  Uiso   1.00
H36    H     0.63151   0.62372   0.47931   0.00000  Uiso   1.00
H37    H     0.44571   0.91880   0.94120   0.00000  Uiso   1.00
O38    O     0.99492   0.84660   0.94175   0.00000  Uiso   1.00
O39    O     0.65051   0.71621   0.34133   0.00000  Uiso   1.00
O40    O     0.40676   0.10335   0.94732   0.00000  Uiso   1.00
N41    N     0.92010   0.93057   0.86202   0.00000  Uiso   1.00
N42    N     0.67468   0.83764   0.43414   0.00000  Uiso   1.00
N43    N     0.50097   0.11351   0.86595   0.00000  Uiso   1.00
N44    N     0.89105   0.78688   0.90758   0.00000  Uiso   1.00
N45    N     0.64564   0.69395   0.47971   0.00000  Uiso   1.00
N46    N     0.47192   0.96983   0.91152   0.00000  Uiso   1.00
C47    C     0.20115   0.47323   0.71674   0.00000  Uiso   1.00
C48    C     0.25439   0.42637   0.76792   0.00000  Uiso   1.00
C49    C     0.31533   0.46700   0.78557   0.00000  Uiso   1.00
C50    C     0.35713   0.41253   0.83341   0.00000  Uiso   1.00
C51    C     0.44263   0.35370   0.90842   0.00000  Uiso   1.00
C52    C     0.18676   0.40075   0.64999   0.00000  Uiso   1.00
C53    C     0.19084   0.41984   0.56849   0.00000  Uiso   1.00
C54    C     0.17569   0.34381   0.51705   0.00000  Uiso   1.00
C55    C     0.15616   0.24523   0.40898   0.00000  Uiso   1.00
C56    C     0.13889   0.47678   0.76901   0.00000  Uiso   1.00
C57    C     0.10271   0.55980   0.78756   0.00000  Uiso   1.00
C58    C     0.04725   0.54778   0.83631   0.00000  Uiso   1.00
C59    C     0.95340   0.56725   0.91303   0.00000  Uiso   1.00
C60    C     0.16699   0.30426   0.77032   0.00000  Uiso   1.00
C61    C     0.23584   0.33458   0.79702   0.00000  Uiso   1.00
C62    C     0.27755   0.28004   0.84485   0.00000  Uiso   1.00
C63    C     0.33854   0.32058   0.86257   0.00000  Uiso   1.00
C64    C     0.16821   0.30897   0.67909   0.00000  Uiso   1.00
C65    C     0.15305   0.23289   0.62777   0.00000  Uiso   1.00
C66    C     0.15711   0.25186   0.54621   0.00000  Uiso   1.00
C67    C     0.12034   0.38500   0.79811   0.00000  Uiso   1.00
C68    C     0.06493   0.37285   0.84684   0.00000  Uiso   1.00
C69    C     0.02867   0.45584   0.86547   0.00000  Uiso   1.00
H70    H     0.21559   0.54469   0.69408   0.00000  Uiso   1.00
H71    H     0.32968   0.53802   0.76303   0.00000  Uiso   1.00
H72    H     0.20519   0.49088   0.54598   0.00000  Uiso   1.00
H73    H     0.11708   0.63082   0.76503   0.00000  Uiso   1.00
H74    H     0.44799   0.49014   0.85229   0.00000  Uiso   1.00
H75    H     0.18548   0.39075   0.39464   0.00000  Uiso   1.00
H76    H     0.99968   0.68584   0.85653   0.00000  Uiso   1.00
H77    H     0.15255   0.23280   0.79297   0.00000  Uiso   1.00
H78    H     0.26318   0.20902   0.86736   0.00000  Uiso   1.00
H79    H     0.13869   0.16188   0.65031   0.00000  Uiso   1.00
H80    H     0.05058   0.30181   0.86935   0.00000  Uiso   1.00
H81    H     0.39401   0.22311   0.93696   0.00000  Uiso   1.00
H82    H     0.13151   0.12372   0.47931   0.00000  Uiso   1.00
H83    H     0.94571   0.41880   0.94120   0.00000  Uiso   1.00
O84    O     0.49492   0.34660   0.94175   0.00000  Uiso   1.00
O85    O     0.15051   0.21621   0.34133   0.00000  Uiso   1.00
O86    O     0.90676   0.60335   0.94732   0.00000  Uiso   1.00
N87    N     0.42010   0.43057   0.86202   0.00000  Uiso   1.00
N88    N     0.17468   0.33764   0.43414   0.00000  Uiso   1.00
N89    N     0.00097   0.61351   0.86595   0.00000  Uiso   1.00
N90    N     0.39105   0.28688   0.90758   0.00000  Uiso   1.00
N91    N     0.14564   0.19395   0.47971   0.00000  Uiso   1.00
N92    N     0.97192   0.46983   0.91152   0.00000  Uiso   1.00
C93    C     0.29885   0.97323   0.78326   0.00000  Uiso   1.00
C94    C     0.24561   0.92637   0.73208   0.00000  Uiso   1.00
C95    C     0.18467   0.96700   0.71443   0.00000  Uiso   1.00
C96    C     0.14287   0.91253   0.66659   0.00000  Uiso   1.00
C97    C     0.05737   0.85370   0.59158   0.00000  Uiso   1.00
C98    C     0.31324   0.90075   0.85001   0.00000  Uiso   1.00
C99    C     0.30916   0.91984   0.93151   0.00000  Uiso   1.00
C100   C     0.32431   0.84381   0.98295   0.00000  Uiso   1.00
C101   C     0.34384   0.74523   0.09102   0.00000  Uiso   1.00
C102   C     0.36111   0.97678   0.73099   0.00000  Uiso   1.00
C103   C     0.39729   0.05980   0.71244   0.00000  Uiso   1.00
C104   C     0.45275   0.04778   0.66369   0.00000  Uiso   1.00
C105   C     0.54660   0.06725   0.58697   0.00000  Uiso   1.00
C106   C     0.33301   0.80426   0.72968   0.00000  Uiso   1.00
C107   C     0.26416   0.83458   0.70298   0.00000  Uiso   1.00
C108   C     0.22245   0.78004   0.65515   0.00000  Uiso   1.00
C109   C     0.16146   0.82058   0.63743   0.00000  Uiso   1.00
C110   C     0.33179   0.80897   0.82091   0.00000  Uiso   1.00
C111   C     0.34695   0.73289   0.87223   0.00000  Uiso   1.00
C112   C     0.34289   0.75186   0.95379   0.00000  Uiso   1.00
C113   C     0.37966   0.88500   0.70189   0.00000  Uiso   1.00
C114   C     0.43507   0.87285   0.65316   0.00000  Uiso   1.00
C115   C     0.47133   0.95584   0.63453   0.00000  Uiso   1.00
H116   H     0.28441   0.04469   0.80592   0.00000  Uiso   1.00
H117   H     0.17032   0.03802   0.73697   0.00000  Uiso   1.00
H118   H     0.29481   0.99088   0.95402   0.00000  Uiso   1.00
H119   H     0.38292   0.13082   0.73497   0.00000  Uiso   1.00
H120   H     0.05201   0.99014   0.64771   0.00000  Uiso   1.00
H121   H     0.31452   0.89075   0.10536   0.00000  Uiso   1.00
H122   H     0.50032   0.18584   0.64347   0.00000  Uiso   1.00
H123   H     0.34745   0.73280   0.70703   0.00000  Uiso   1.00
H124   H     0.23682   0.70902   0.63264   0.00000  Uiso   1.00
H125   H     0.36131   0.66188   0.84969   0.00000  Uiso   1.00
H126   H     0.44942   0.80181   0.63065   0.00000  Uiso   1.00
H127   H     0.10599   0.72311   0.56304   0.00000  Uiso   1.00
H128   H     0.36849   0.62372   0.02069   0.00000  Uiso   1.00
H129   H     0.55429   0.91880   0.55880   0.00000  Uiso   1.00
O130   O     0.00508   0.84660   0.55825   0.00000  Uiso   1.00
O131   O     0.34949   0.71621   0.15867   0.00000  Uiso   1.00
O132   O     0.59324   0.10335   0.55268   0.00000  Uiso   1.00
N133   N     0.07990   0.93057   0.63798   0.00000  Uiso   1.00
N134   N     0.32532   0.83764   0.06586   0.00000  Uiso   1.00
N135   N     0.49903   0.11351   0.63405   0.00000  Uiso   1.00
N136   N     0.10895   0.78688   0.59242   0.00000  Uiso   1.00
N137   N     0.35436   0.69395   0.02029   0.00000  Uiso   1.00
N138   N     0.52808   0.96983   0.58848   0.00000  Uiso   1.00
C139   C     0.79885   0.47323   0.78326   0.00000  Uiso   1.00
C140   C     0.74561   0.42637   0.73208   0.00000  Uiso   1.00
C141   C     0.68467   0.46700   0.71443   0.00000  Uiso   1.00
C142   C     0.64287   0.41253   0.66659   0.00000  Uiso   1.00
C143   C     0.55737   0.35370   0.59158   0.00000  Uiso   1.00
C144   C     0.81324   0.40075   0.85001   0.00000  Uiso   1.00
C145   C     0.80916   0.41984   0.93151   0.00000  Uiso   1.00
C146   C     0.82431   0.34381   0.98295   0.00000  Uiso   1.00
C147   C     0.84384   0.24523   0.09102   0.00000  Uiso   1.00
C148   C     0.86111   0.47678   0.73099   0.00000  Uiso   1.00
C149   C     0.89729   0.55980   0.71244   0.00000  Uiso   1.00
C150   C     0.95275   0.54778   0.66369   0.00000  Uiso   1.00
C151   C     0.04660   0.56725   0.58697   0.00000  Uiso   1.00
C152   C     0.83301   0.30426   0.72968   0.00000  Uiso   1.00
C153   C     0.76416   0.33458   0.70298   0.00000  Uiso   1.00
C154   C     0.72245   0.28004   0.65515   0.00000  Uiso   1.00
C155   C     0.66146   0.32058   0.63743   0.00000  Uiso   1.00
C156   C     0.83179   0.30897   0.82091   0.00000  Uiso   1.00
C157   C     0.84695   0.23289   0.87223   0.00000  Uiso   1.00
C158   C     0.84289   0.25186   0.95379   0.00000  Uiso   1.00
C159   C     0.87966   0.38500   0.70189   0.00000  Uiso   1.00
C160   C     0.93507   0.37285   0.65316   0.00000  Uiso   1.00
C161   C     0.97133   0.45584   0.63453   0.00000  Uiso   1.00
H162   H     0.78441   0.54469   0.80592   0.00000  Uiso   1.00
H163   H     0.67032   0.53802   0.73697   0.00000  Uiso   1.00
H164   H     0.79481   0.49088   0.95402   0.00000  Uiso   1.00
H165   H     0.88292   0.63082   0.73497   0.00000  Uiso   1.00
H166   H     0.55201   0.49014   0.64771   0.00000  Uiso   1.00
H167   H     0.81452   0.39075   0.10536   0.00000  Uiso   1.00
H168   H     0.00032   0.68584   0.64347   0.00000  Uiso   1.00
H169   H     0.84745   0.23280   0.70703   0.00000  Uiso   1.00
H170   H     0.73682   0.20902   0.63264   0.00000  Uiso   1.00
H171   H     0.86131   0.16188   0.84969   0.00000  Uiso   1.00
H172   H     0.94942   0.30181   0.63065   0.00000  Uiso   1.00
H173   H     0.60599   0.22311   0.56304   0.00000  Uiso   1.00
H174   H     0.86849   0.12372   0.02069   0.00000  Uiso   1.00
H175   H     0.05429   0.41880   0.55880   0.00000  Uiso   1.00
O176   O     0.50508   0.34660   0.55825   0.00000  Uiso   1.00
O177   O     0.84949   0.21621   0.15867   0.00000  Uiso   1.00
O178   O     0.09324   0.60335   0.55268   0.00000  Uiso   1.00
N179   N     0.57990   0.43057   0.63798   0.00000  Uiso   1.00
N180   N     0.82532   0.33764   0.06586   0.00000  Uiso   1.00
N181   N     0.99903   0.61351   0.63405   0.00000  Uiso   1.00
N182   N     0.60895   0.28688   0.59242   0.00000  Uiso   1.00
N183   N     0.85436   0.19395   0.02029   0.00000  Uiso   1.00
N184   N     0.02808   0.46983   0.58848   0.00000  Uiso   1.00
C185   C     0.29885   0.02677   0.28326   0.00000  Uiso   1.00
C186   C     0.24561   0.07363   0.23208   0.00000  Uiso   1.00
C187   C     0.18467   0.03300   0.21443   0.00000  Uiso   1.00
C188   C     0.14287   0.08747   0.16659   0.00000  Uiso   1.00
C189   C     0.05737   0.14630   0.09158   0.00000  Uiso   1.00
C190   C     0.31324   0.09925   0.35001   0.00000  Uiso   1.00
C191   C     0.30916   0.08016   0.43151   0.00000  Uiso   1.00
C192   C     0.32431   0.15619   0.48295   0.00000  Uiso   1.00
C193   C     0.34384   0.25477   0.59102   0.00000  Uiso   1.00
C194   C     0.36111   0.02322   0.23099   0.00000  Uiso   1.00
C195   C     0.39729   0.94020   0.21244   0.00000  Uiso   1.00
C196   C     0.45275   0.95222   0.16369   0.00000  Uiso   1.00
C197   C     0.54660   0.93275   0.08697   0.00000  Uiso   1.00
C198   C     0.33301   0.19574   0.22968   0.00000  Uiso   1.00
C199   C     0.26416   0.16542   0.20298   0.00000  Uiso   1.00
C200   C     0.22245   0.21996   0.15515   0.00000  Uiso   1.00
C201   C     0.16146   0.17942   0.13743   0.00000  Uiso   1.00
C202   C     0.33179   0.19103   0.32091   0.00000  Uiso   1.00
C203   C     0.34695   0.26711   0.37223   0.00000  Uiso   1.00
C204   C     0.34289   0.24814   0.45379   0.00000  Uiso   1.00
C205   C     0.37966   0.11500   0.20189   0.00000  Uiso   1.00
C206   C     0.43507   0.12715   0.15316   0.00000  Uiso   1.00
C207   C     0.47133   0.04416   0.13453   0.00000  Uiso   1.00
H208   H     0.28441   0.95531   0.30592   0.00000  Uiso   1.00
H209   H     0.17032   0.96198   0.23697   0.00000  Uiso   1.00
H210   H     0.29481   0.00912   0.45402   0.00000  Uiso   1.00
H211   H     0.38292   0.86918   0.23497   0.00000  Uiso   1.00
H212   H     0.05201   0.00986   0.14771   0.00000  Uiso   1.00
H213   H     0.31452   0.10925   0.60536   0.00000  Uiso   1.00
H214   H     0.50032   0.81416   0.14347   0.00000  Uiso   1.00
H215   H     0.34745   0.26720   0.20703   0.00000  Uiso   1.00
H216   H     0.23682   0.29098   0.13264   0.00000  Uiso   1.00
H217   H     0.36131   0.33812   0.34969   0.00000  Uiso   1.00
H218   H     0.44942   0.19819   0.13065   0.00000  Uiso   1.00
H219   H     0.10599   0.27689   0.06304   0.00000  Uiso   1.00
H220   H     0.36849   0.37628   0.52069   0.00000  Uiso   1.00
H221   H     0.55429   0.08120   0.05880   0.00000  Uiso   1.00
O222   O     0.00508   0.15340   0.05825   0.00000  Uiso   1.00
O223   O     0.34949   0.28379   0.65867   0.00000  Uiso   1.00
O224   O     0.59324   0.89665   0.05268   0.00000  Uiso   1.00
N225   N     0.07990   0.06943   0.13798   0.00000  Uiso   1.00
N226   N     0.32532   0.16236   0.56586   0.00000  Uiso   1.00
N227   N     0.49903   0.88649   0.13405   0.00000  Uiso   1.00
N228   N     0.10895   0.21312   0.09242   0.00000  Uiso   1.00
N229   N     0.35436   0.30605   0.52029   0.00000  Uiso   1.00
N230   N     0.52808   0.03017   0.08848   0.00000  Uiso   1.00
C231   C     0.79885   0.52677   0.28326   0.00000  Uiso   1.00
C232   C     0.74561   0.57363   0.23208   0.00000  Uiso   1.00
C233   C     0.68467   0.53300   0.21443   0.00000  Uiso   1.00
C234   C     0.64287   0.58747   0.16659   0.00000  Uiso   1.00
C235   C     0.55737   0.64630   0.09158   0.00000  Uiso   1.00
C236   C     0.81324   0.59925   0.35001   0.00000  Uiso   1.00
C237   C     0.80916   0.58016   0.43151   0.00000  Uiso   1.00
C238   C     0.82431   0.65619   0.48295   0.00000  Uiso   1.00
C239   C     0.84384   0.75477   0.59102   0.00000  Uiso   1.00
C240   C     0.86111   0.52322   0.23099   0.00000  Uiso   1.00
C241   C     0.89729   0.44020   0.21244   0.00000  Uiso   1.00
C242   C     0.95275   0.45222   0.16369   0.00000  Uiso   1.00
C243   C     0.04660   0.43275   0.08697   0.00000  Uiso   1.00
C244   C     0.83301   0.69574   0.22968   0.00000  Uiso   1.00
C245   C     0.76416   0.66542   0.20298   0.00000  Uiso   1.00
C246   C     0.72245   0.71996   0.15515   0.00000  Uiso   1.00
C247   C     0.66146   0.67942   0.13743   0.00000  Uiso   1.00
C248   C     0.83179   0.69103   0.32091   0.00000  Uiso   1.00
C249   C     0.84695   0.76711   0.37223   0.00000  Uiso   1.00
C250   C     0.84289   0.74814   0.45379   0.00000  Uiso   1.00
C251   C     0.87966   0.61500   0.20189   0.00000  Uiso   1.00
C252   C     0.93507   0.62715   0.15316   0.00000  Uiso   1.00
C253   C     0.97133   0.54416   0.13453   0.00000  Uiso   1.00
H254   H     0.78441   0.45531   0.30592   0.00000  Uiso   1.00
H255   H     0.67032   0.46198   0.23697   0.00000  Uiso   1.00
H256   H     0.79481   0.50912   0.45402   0.00000  Uiso   1.00
H257   H     0.88292   0.36918   0.23497   0.00000  Uiso   1.00
H258   H     0.55201   0.50986   0.14771   0.00000  Uiso   1.00
H259   H     0.81452   0.60925   0.60536   0.00000  Uiso   1.00
H260   H     0.00032   0.31416   0.14347   0.00000  Uiso   1.00
H261   H     0.84745   0.76720   0.20703   0.00000  Uiso   1.00
H262   H     0.73682   0.79098   0.13264   0.00000  Uiso   1.00
H263   H     0.86131   0.83812   0.34969   0.00000  Uiso   1.00
H264   H     0.94942   0.69819   0.13065   0.00000  Uiso   1.00
H265   H     0.60599   0.77689   0.06304   0.00000  Uiso   1.00
H266   H     0.86849   0.87628   0.52069   0.00000  Uiso   1.00
H267   H     0.05429   0.58120   0.05880   0.00000  Uiso   1.00
O268   O     0.50508   0.65340   0.05825   0.00000  Uiso   1.00
O269   O     0.84949   0.78379   0.65867   0.00000  Uiso   1.00
O270   O     0.09324   0.39665   0.05268   0.00000  Uiso   1.00
N271   N     0.57990   0.56943   0.13798   0.00000  Uiso   1.00
N272   N     0.82532   0.66236   0.56586   0.00000  Uiso   1.00
N273   N     0.99903   0.38649   0.13405   0.00000  Uiso   1.00
N274   N     0.60895   0.71312   0.09242   0.00000  Uiso   1.00
N275   N     0.85436   0.80605   0.52029   0.00000  Uiso   1.00
N276   N     0.02808   0.53017   0.08848   0.00000  Uiso   1.00
C277   C     0.70115   0.02677   0.21674   0.00000  Uiso   1.00
C278   C     0.75439   0.07363   0.26792   0.00000  Uiso   1.00
C279   C     0.81533   0.03300   0.28557   0.00000  Uiso   1.00
C280   C     0.85713   0.08747   0.33341   0.00000  Uiso   1.00
C281   C     0.94263   0.14630   0.40842   0.00000  Uiso   1.00
C282   C     0.68676   0.09925   0.14999   0.00000  Uiso   1.00
C283   C     0.69084   0.08016   0.06849   0.00000  Uiso   1.00
C284   C     0.67569   0.15619   0.01705   0.00000  Uiso   1.00
C285   C     0.65616   0.25477   0.90898   0.00000  Uiso   1.00
C286   C     0.63889   0.02322   0.26901   0.00000  Uiso   1.00
C287   C     0.60271   0.94020   0.28756   0.00000  Uiso   1.00
C288   C     0.54725   0.95222   0.33631   0.00000  Uiso   1.00
C289   C     0.45340   0.93275   0.41303   0.00000  Uiso   1.00
C290   C     0.66699   0.19574   0.27032   0.00000  Uiso   1.00
C291   C     0.73584   0.16542   0.29702   0.00000  Uiso   1.00
C292   C     0.77755   0.21996   0.34485   0.00000  Uiso   1.00
C293   C     0.83854   0.17942   0.36257   0.00000  Uiso   1.00
C294   C     0.66821   0.19103   0.17909   0.00000  Uiso   1.00
C295   C     0.65305   0.26711   0.12777   0.00000  Uiso   1.00
C296   C     0.65711   0.24814   0.04621   0.00000  Uiso   1.00
C297   C     0.62034   0.11500   0.29811   0.00000  Uiso   1.00
C298   C     0.56493   0.12715   0.34684   0.00000  Uiso   1.00
C299   C     0.52867   0.04416   0.36547   0.00000  Uiso   1.00
H300   H     0.71559   0.95531   0.19408   0.00000  Uiso   1.00
H301   H     0.82968   0.96198   0.26303   0.00000  Uiso   1.00
H302   H     0.70519   0.00912   0.04598   0.00000  Uiso   1.00
H303   H     0.61708   0.86918   0.26503   0.00000  Uiso   1.00
H304   H     0.94799   0.00986   0.35229   0.00000  Uiso   1.00
H305   H     0.68548   0.10925   0.89464   0.00000  Uiso   1.00
H306   H     0.49968   0.81416   0.35653   0.00000  Uiso   1.00
H307   H     0.65255   0.26720   0.29297   0.00000  Uiso   1.00
H308   H     0.76318   0.29098   0.36736   0.00000  Uiso   1.00
H309   H     0.63869   0.33812   0.15031   0.00000  Uiso   1.00
H310   H     0.55058   0.19819   0.36935   0.00000  Uiso   1.00
H311   H     0.89401   0.27689   0.43696   0.00000  Uiso   1.00
H312   H     0.63151   0.37628   0.97931   0.00000  Uiso   1.00
H313   H     0.44571   0.08120   0.44120   0.00000  Uiso   1.00
O314   O     0.99492   0.15340   0.44175   0.00000  Uiso   1.00
O315   O     0.65051   0.28379   0.84133   0.00000  Uiso   1.00
O316   O     0.40676   0.89665   0.44732   0.00000  Uiso   1.00
N317   N     0.92010   0.06943   0.36202   0.00000  Uiso   1.00
N318   N     0.67468   0.16236   0.93414   0.00000  Uiso   1.00
N319   N     0.50097   0.88649   0.36595   0.00000  Uiso   1.00
N320   N     0.89105   0.21312   0.40758   0.00000  Uiso   1.00
N321   N     0.64564   0.30605   0.97971   0.00000  Uiso   1.00
N322   N     0.47192   0.03017   0.41152   0.00000  Uiso   1.00
C323   C     0.20115   0.52677   0.21674   0.00000  Uiso   1.00
C324   C     0.25439   0.57363   0.26792   0.00000  Uiso   1.00
C325   C     0.31533   0.53300   0.28557   0.00000  Uiso   1.00
C326   C     0.35713   0.58747   0.33341   0.00000  Uiso   1.00
C327   C     0.44263   0.64630   0.40842   0.00000  Uiso   1.00
C328   C     0.18676   0.59925   0.14999   0.00000  Uiso   1.00
C329   C     0.19084   0.58016   0.06849   0.00000  Uiso   1.00
C330   C     0.17569   0.65619   0.01705   0.00000  Uiso   1.00
C331   C     0.15616   0.75477   0.90898   0.00000  Uiso   1.00
C332   C     0.13889   0.52322   0.26901   0.00000  Uiso   1.00
C333   C     0.10271   0.44020   0.28756   0.00000  Uiso   1.00
C334   C     0.04725   0.45222   0.33631   0.00000  Uiso   1.00
C335   C     0.95340   0.43275   0.41303   0.00000  Uiso   1.00
C336   C     0.16699   0.69574   0.27032   0.00000  Uiso   1.00
C337   C     0.23584   0.66542   0.29702   0.00000  Uiso   1.00
C338   C     0.27755   0.71996   0.34485   0.00000  Uiso   1.00
C339   C     0.33854   0.67942   0.36257   0.00000  Uiso   1.00
C340   C     0.16821   0.69103   0.17909   0.00000  Uiso   1.00
C341   C     0.15305   0.76711   0.12777   0.00000  Uiso   1.00
C342   C     0.15711   0.74814   0.04621   0.00000  Uiso   1.00
C343   C     0.12034   0.61500   0.29811   0.00000  Uiso   1.00
C344   C     0.06493   0.62715   0.34684   0.00000  Uiso   1.00
C345   C     0.02867   0.54416   0.36547   0.00000  Uiso   1.00
H346   H     0.21559   0.45531   0.19408   0.00000  Uiso   1.00
H347   H     0.32968   0.46198   0.26303   0.00000  Uiso   1.00
H348   H     0.20519   0.50912   0.04598   0.00000  Uiso   1.00
H349   H     0.11708   0.36918   0.26503   0.00000  Uiso   1.00
H350   H     0.44799   0.50986   0.35229   0.00000  Uiso   1.00
H351   H     0.18548   0.60925   0.89464   0.00000  Uiso   1.00
H352   H     0.99968   0.31416   0.35653   0.00000  Uiso   1.00
H353   H     0.15255   0.76720   0.29297   0.00000  Uiso   1.00
H354   H     0.26318   0.79098   0.36736   0.00000  Uiso   1.00
H355   H     0.13869   0.83812   0.15031   0.00000  Uiso   1.00
H356   H     0.05058   0.69819   0.36935   0.00000  Uiso   1.00
H357   H     0.39401   0.77689   0.43696   0.00000  Uiso   1.00
H358   H     0.13151   0.87628   0.97931   0.00000  Uiso   1.00
H359   H     0.94571   0.58120   0.44120   0.00000  Uiso   1.00
O360   O     0.49492   0.65340   0.44175   0.00000  Uiso   1.00
O361   O     0.15051   0.78379   0.84133   0.00000  Uiso   1.00
O362   O     0.90676   0.39665   0.44732   0.00000  Uiso   1.00
N363   N     0.42010   0.56943   0.36202   0.00000  Uiso   1.00
N364   N     0.17468   0.66236   0.93414   0.00000  Uiso   1.00
N365   N     0.00097   0.38649   0.36595   0.00000  Uiso   1.00
N366   N     0.39105   0.71312   0.40758   0.00000  Uiso   1.00
N367   N     0.14564   0.80605   0.97971   0.00000  Uiso   1.00
N368   N     0.97192   0.53017   0.41152   0.00000  Uiso   1.00
