data_job_03551
_audit_creation_date              2018-12-19
_audit_creation_method            'Materials Studio'
_symmetry_space_group_name_H-M    'P1'
_symmetry_Int_Tables_number       1
_symmetry_cell_setting            triclinic
loop_
_symmetry_equiv_pos_as_xyz
  x,y,z
_cell_length_a                    11.9357
_cell_length_b                    12.3617
_cell_length_c                    29.5356
_cell_angle_alpha                 90.0000
_cell_angle_beta                  121.3737
_cell_angle_gamma                 90.0000
loop_
_atom_site_label
_atom_site_type_symbol
_atom_site_fract_x
_atom_site_fract_y
_atom_site_fract_z
_atom_site_U_iso_or_equiv
_atom_site_adp_type
_atom_site_occupancy
C1     C     0.51082   0.96260   0.88095   0.00000  Uiso   1.00
C2     C     0.39295   0.03842   0.85834   0.00000  Uiso   1.00
C3     C     0.38308   0.13025   0.88308   0.00000  Uiso   1.00
C4     C     0.26711   0.18880   0.85585   0.00000  Uiso   1.00
C5     C     0.09963   0.31140   0.82838   0.00000  Uiso   1.00
C6     C     0.45865   0.85019   0.88130   0.00000  Uiso   1.00
C7     C     0.50403   0.78375   0.92533   0.00000  Uiso   1.00
C8     C     0.44337   0.68384   0.91742   0.00000  Uiso   1.00
C9     C     0.37796   0.51417   0.92558   0.00000  Uiso   1.00
C10    C     0.55175   0.95856   0.83994   0.00000  Uiso   1.00
C11    C     0.67542   0.98320   0.84920   0.00000  Uiso   1.00
C12    C     0.69316   0.97451   0.80646   0.00000  Uiso   1.00
C13    C     0.77229   0.97309   0.75040   0.00000  Uiso   1.00
C14    C     0.32243   0.90331   0.78860   0.00000  Uiso   1.00
C15    C     0.29062   0.00621   0.80818   0.00000  Uiso   1.00
C16    C     0.17464   0.06465   0.78090   0.00000  Uiso   1.00
C17    C     0.16460   0.15655   0.80559   0.00000  Uiso   1.00
C18    C     0.35632   0.81799   0.83113   0.00000  Uiso   1.00
C19    C     0.29559   0.71815   0.82315   0.00000  Uiso   1.00
C20    C     0.34086   0.65158   0.86716   0.00000  Uiso   1.00
C21    C     0.44942   0.92636   0.78977   0.00000  Uiso   1.00
C22    C     0.46698   0.91761   0.74701   0.00000  Uiso   1.00
C23    C     0.59064   0.94224   0.75621   0.00000  Uiso   1.00
H24    H     0.59048   0.98766   0.92001   0.00000  Uiso   1.00
H25    H     0.46228   0.15513   0.92191   0.00000  Uiso   1.00
H26    H     0.58323   0.80868   0.96415   0.00000  Uiso   1.00
H27    H     0.75458   0.00812   0.88802   0.00000  Uiso   1.00
H28    H     0.27500   0.32658   0.90190   0.00000  Uiso   1.00
H29    H     0.53005   0.59606   0.99096   0.00000  Uiso   1.00
H30    H     0.89139   0.01659   0.83043   0.00000  Uiso   1.00
H31    H     0.24276   0.87824   0.74954   0.00000  Uiso   1.00
H32    H     0.09547   0.03971   0.74208   0.00000  Uiso   1.00
H33    H     0.21641   0.69326   0.78432   0.00000  Uiso   1.00
H34    H     0.38777   0.89269   0.70820   0.00000  Uiso   1.00
H35    H     0.97728   0.23290   0.75594   0.00000  Uiso   1.00
H36    H     0.23233   0.50237   0.84501   0.00000  Uiso   1.00
H37    H     0.59367   0.92291   0.68448   0.00000  Uiso   1.00
O38    O     0.03551   0.38791   0.82710   0.00000  Uiso   1.00
O39    O     0.37014   0.42949   0.94394   0.00000  Uiso   1.00
O40    O     0.84420   0.98123   0.73334   0.00000  Uiso   1.00
N41    N     0.22516   0.28239   0.86856   0.00000  Uiso   1.00
N42    N     0.46359   0.59940   0.95183   0.00000  Uiso   1.00
N43    N     0.80143   0.99253   0.80176   0.00000  Uiso   1.00
N44    N     0.06496   0.23198   0.79003   0.00000  Uiso   1.00
N45    N     0.30339   0.54899   0.87330   0.00000  Uiso   1.00
N46    N     0.64123   0.94212   0.72323   0.00000  Uiso   1.00
C47    C     0.48918   0.46260   0.61905   0.00000  Uiso   1.00
C48    C     0.60705   0.53842   0.64166   0.00000  Uiso   1.00
C49    C     0.61692   0.63025   0.61692   0.00000  Uiso   1.00
C50    C     0.73289   0.68880   0.64415   0.00000  Uiso   1.00
C51    C     0.90037   0.81140   0.67162   0.00000  Uiso   1.00
C52    C     0.54135   0.35019   0.61870   0.00000  Uiso   1.00
C53    C     0.49597   0.28375   0.57467   0.00000  Uiso   1.00
C54    C     0.55663   0.18384   0.58258   0.00000  Uiso   1.00
C55    C     0.62204   0.01417   0.57442   0.00000  Uiso   1.00
C56    C     0.44825   0.45856   0.66006   0.00000  Uiso   1.00
C57    C     0.32458   0.48320   0.65080   0.00000  Uiso   1.00
C58    C     0.30684   0.47451   0.69354   0.00000  Uiso   1.00
C59    C     0.22771   0.47309   0.74960   0.00000  Uiso   1.00
C60    C     0.67757   0.40331   0.71140   0.00000  Uiso   1.00
C61    C     0.70938   0.50621   0.69182   0.00000  Uiso   1.00
C62    C     0.82536   0.56465   0.71910   0.00000  Uiso   1.00
C63    C     0.83540   0.65655   0.69441   0.00000  Uiso   1.00
C64    C     0.64368   0.31799   0.66887   0.00000  Uiso   1.00
C65    C     0.70441   0.21815   0.67685   0.00000  Uiso   1.00
C66    C     0.65914   0.15158   0.63284   0.00000  Uiso   1.00
C67    C     0.55058   0.42636   0.71023   0.00000  Uiso   1.00
C68    C     0.53302   0.41761   0.75299   0.00000  Uiso   1.00
C69    C     0.40936   0.44224   0.74379   0.00000  Uiso   1.00
H70    H     0.40952   0.48766   0.57999   0.00000  Uiso   1.00
H71    H     0.53772   0.65513   0.57809   0.00000  Uiso   1.00
H72    H     0.41677   0.30868   0.53585   0.00000  Uiso   1.00
H73    H     0.24542   0.50812   0.61198   0.00000  Uiso   1.00
H74    H     0.72500   0.82658   0.59810   0.00000  Uiso   1.00
H75    H     0.46995   0.09606   0.50904   0.00000  Uiso   1.00
H76    H     0.10861   0.51659   0.66957   0.00000  Uiso   1.00
H77    H     0.75724   0.37824   0.75046   0.00000  Uiso   1.00
H78    H     0.90453   0.53971   0.75792   0.00000  Uiso   1.00
H79    H     0.78359   0.19326   0.71568   0.00000  Uiso   1.00
H80    H     0.61223   0.39269   0.79180   0.00000  Uiso   1.00
H81    H     0.02272   0.73290   0.74406   0.00000  Uiso   1.00
H82    H     0.76767   0.00237   0.65499   0.00000  Uiso   1.00
H83    H     0.40633   0.42291   0.81552   0.00000  Uiso   1.00
O84    O     0.96449   0.88791   0.67290   0.00000  Uiso   1.00
O85    O     0.62986   0.92949   0.55606   0.00000  Uiso   1.00
O86    O     0.15580   0.48123   0.76666   0.00000  Uiso   1.00
N87    N     0.77484   0.78239   0.63144   0.00000  Uiso   1.00
N88    N     0.53641   0.09940   0.54817   0.00000  Uiso   1.00
N89    N     0.19857   0.49253   0.69824   0.00000  Uiso   1.00
N90    N     0.93504   0.73198   0.70997   0.00000  Uiso   1.00
N91    N     0.69661   0.04899   0.62670   0.00000  Uiso   1.00
N92    N     0.35877   0.44212   0.77677   0.00000  Uiso   1.00
C93    C     0.48918   0.03740   0.11905   0.00000  Uiso   1.00
C94    C     0.60705   0.96158   0.14166   0.00000  Uiso   1.00
C95    C     0.61692   0.86975   0.11692   0.00000  Uiso   1.00
C96    C     0.73289   0.81120   0.14415   0.00000  Uiso   1.00
C97    C     0.90037   0.68860   0.17162   0.00000  Uiso   1.00
C98    C     0.54135   0.14981   0.11870   0.00000  Uiso   1.00
C99    C     0.49597   0.21625   0.07467   0.00000  Uiso   1.00
C100   C     0.55663   0.31616   0.08258   0.00000  Uiso   1.00
C101   C     0.62204   0.48583   0.07442   0.00000  Uiso   1.00
C102   C     0.44825   0.04144   0.16006   0.00000  Uiso   1.00
C103   C     0.32458   0.01680   0.15080   0.00000  Uiso   1.00
C104   C     0.30684   0.02549   0.19354   0.00000  Uiso   1.00
C105   C     0.22771   0.02691   0.24960   0.00000  Uiso   1.00
C106   C     0.67757   0.09669   0.21140   0.00000  Uiso   1.00
C107   C     0.70938   0.99379   0.19182   0.00000  Uiso   1.00
C108   C     0.82536   0.93535   0.21910   0.00000  Uiso   1.00
C109   C     0.83540   0.84345   0.19441   0.00000  Uiso   1.00
C110   C     0.64368   0.18201   0.16887   0.00000  Uiso   1.00
C111   C     0.70441   0.28185   0.17685   0.00000  Uiso   1.00
C112   C     0.65914   0.34842   0.13284   0.00000  Uiso   1.00
C113   C     0.55058   0.07364   0.21023   0.00000  Uiso   1.00
C114   C     0.53302   0.08239   0.25299   0.00000  Uiso   1.00
C115   C     0.40936   0.05776   0.24379   0.00000  Uiso   1.00
H116   H     0.40952   0.01234   0.07999   0.00000  Uiso   1.00
H117   H     0.53772   0.84487   0.07809   0.00000  Uiso   1.00
H118   H     0.41677   0.19132   0.03585   0.00000  Uiso   1.00
H119   H     0.24542   0.99188   0.11198   0.00000  Uiso   1.00
H120   H     0.72500   0.67342   0.09810   0.00000  Uiso   1.00
H121   H     0.46995   0.40394   0.00904   0.00000  Uiso   1.00
H122   H     0.10861   0.98341   0.16957   0.00000  Uiso   1.00
H123   H     0.75724   0.12176   0.25046   0.00000  Uiso   1.00
H124   H     0.90453   0.96029   0.25792   0.00000  Uiso   1.00
H125   H     0.78359   0.30674   0.21568   0.00000  Uiso   1.00
H126   H     0.61223   0.10731   0.29180   0.00000  Uiso   1.00
H127   H     0.02272   0.76710   0.24406   0.00000  Uiso   1.00
H128   H     0.76767   0.49763   0.15499   0.00000  Uiso   1.00
H129   H     0.40633   0.07709   0.31552   0.00000  Uiso   1.00
O130   O     0.96449   0.61209   0.17290   0.00000  Uiso   1.00
O131   O     0.62986   0.57051   0.05606   0.00000  Uiso   1.00
O132   O     0.15580   0.01877   0.26666   0.00000  Uiso   1.00
N133   N     0.77484   0.71761   0.13144   0.00000  Uiso   1.00
N134   N     0.53641   0.40060   0.04817   0.00000  Uiso   1.00
N135   N     0.19857   0.00747   0.19824   0.00000  Uiso   1.00
N136   N     0.93504   0.76802   0.20997   0.00000  Uiso   1.00
N137   N     0.69661   0.45101   0.12670   0.00000  Uiso   1.00
N138   N     0.35877   0.05788   0.27677   0.00000  Uiso   1.00
C139   C     0.51082   0.53740   0.38095   0.00000  Uiso   1.00
C140   C     0.39295   0.46158   0.35834   0.00000  Uiso   1.00
C141   C     0.38308   0.36975   0.38308   0.00000  Uiso   1.00
C142   C     0.26711   0.31120   0.35585   0.00000  Uiso   1.00
C143   C     0.09963   0.18860   0.32838   0.00000  Uiso   1.00
C144   C     0.45865   0.64981   0.38130   0.00000  Uiso   1.00
C145   C     0.50403   0.71625   0.42533   0.00000  Uiso   1.00
C146   C     0.44337   0.81616   0.41742   0.00000  Uiso   1.00
C147   C     0.37796   0.98583   0.42558   0.00000  Uiso   1.00
C148   C     0.55175   0.54144   0.33994   0.00000  Uiso   1.00
C149   C     0.67542   0.51680   0.34920   0.00000  Uiso   1.00
C150   C     0.69316   0.52549   0.30646   0.00000  Uiso   1.00
C151   C     0.77229   0.52691   0.25040   0.00000  Uiso   1.00
C152   C     0.32243   0.59669   0.28860   0.00000  Uiso   1.00
C153   C     0.29062   0.49379   0.30818   0.00000  Uiso   1.00
C154   C     0.17464   0.43535   0.28090   0.00000  Uiso   1.00
C155   C     0.16460   0.34345   0.30559   0.00000  Uiso   1.00
C156   C     0.35632   0.68201   0.33113   0.00000  Uiso   1.00
C157   C     0.29559   0.78185   0.32315   0.00000  Uiso   1.00
C158   C     0.34086   0.84842   0.36716   0.00000  Uiso   1.00
C159   C     0.44942   0.57364   0.28977   0.00000  Uiso   1.00
C160   C     0.46698   0.58239   0.24701   0.00000  Uiso   1.00
C161   C     0.59064   0.55776   0.25621   0.00000  Uiso   1.00
H162   H     0.59048   0.51234   0.42001   0.00000  Uiso   1.00
H163   H     0.46228   0.34487   0.42191   0.00000  Uiso   1.00
H164   H     0.58323   0.69132   0.46415   0.00000  Uiso   1.00
H165   H     0.75458   0.49188   0.38802   0.00000  Uiso   1.00
H166   H     0.27500   0.17342   0.40190   0.00000  Uiso   1.00
H167   H     0.53005   0.90394   0.49096   0.00000  Uiso   1.00
H168   H     0.89139   0.48341   0.33043   0.00000  Uiso   1.00
H169   H     0.24276   0.62176   0.24954   0.00000  Uiso   1.00
H170   H     0.09547   0.46029   0.24208   0.00000  Uiso   1.00
H171   H     0.21641   0.80674   0.28432   0.00000  Uiso   1.00
H172   H     0.38777   0.60731   0.20820   0.00000  Uiso   1.00
H173   H     0.97728   0.26710   0.25594   0.00000  Uiso   1.00
H174   H     0.23233   0.99763   0.34501   0.00000  Uiso   1.00
H175   H     0.59367   0.57709   0.18448   0.00000  Uiso   1.00
O176   O     0.03551   0.11209   0.32710   0.00000  Uiso   1.00
O177   O     0.37014   0.07051   0.44394   0.00000  Uiso   1.00
O178   O     0.84420   0.51877   0.23334   0.00000  Uiso   1.00
N179   N     0.22516   0.21761   0.36856   0.00000  Uiso   1.00
N180   N     0.46359   0.90060   0.45183   0.00000  Uiso   1.00
N181   N     0.80143   0.50747   0.30176   0.00000  Uiso   1.00
N182   N     0.06496   0.26802   0.29003   0.00000  Uiso   1.00
N183   N     0.30339   0.95101   0.37330   0.00000  Uiso   1.00
N184   N     0.64123   0.55788   0.22323   0.00000  Uiso   1.00
