data_job_06618
_audit_creation_date              2018-12-19
_audit_creation_method            'Materials Studio'
_symmetry_space_group_name_H-M    'P1'
_symmetry_Int_Tables_number       1
_symmetry_cell_setting            triclinic
loop_
_symmetry_equiv_pos_as_xyz
  x,y,z
_cell_length_a                    21.5305
_cell_length_b                    21.4406
_cell_length_c                    21.1745
_cell_angle_alpha                 114.2550
_cell_angle_beta                  100.9220
_cell_angle_gamma                 106.2960
loop_
_atom_site_label
_atom_site_type_symbol
_atom_site_fract_x
_atom_site_fract_y
_atom_site_fract_z
_atom_site_U_iso_or_equiv
_atom_site_adp_type
_atom_site_occupancy
C1     C     0.43447   0.84731   0.53739   0.00000  Uiso   1.00
C2     C     0.35702   0.80012   0.50553   0.00000  Uiso   1.00
C3     C     0.30622   0.81766   0.47472   0.00000  Uiso   1.00
C4     C     0.23833   0.76721   0.44867   0.00000  Uiso   1.00
C5     C     0.12057   0.70394   0.39854   0.00000  Uiso   1.00
C6     C     0.45859   0.86237   0.61672   0.00000  Uiso   1.00
C7     C     0.49319   0.93226   0.67938   0.00000  Uiso   1.00
C8     C     0.51081   0.93421   0.74693   0.00000  Uiso   1.00
C9     C     0.55078   0.96758   0.86941   0.00000  Uiso   1.00
C10    C     0.46709   0.79666   0.49577   0.00000  Uiso   1.00
C11    C     0.50885   0.81131   0.45675   0.00000  Uiso   1.00
C12    C     0.53364   0.75795   0.42248   0.00000  Uiso   1.00
C13    C     0.58681   0.68930   0.35717   0.00000  Uiso   1.00
C14    C     0.40425   0.72652   0.54594   0.00000  Uiso   1.00
C15    C     0.34061   0.73451   0.51018   0.00000  Uiso   1.00
C16    C     0.27278   0.68402   0.48417   0.00000  Uiso   1.00
C17    C     0.22189   0.70148   0.45332   0.00000  Uiso   1.00
C18    C     0.44218   0.79677   0.62136   0.00000  Uiso   1.00
C19    C     0.45976   0.79861   0.68884   0.00000  Uiso   1.00
C20    C     0.49437   0.86848   0.75158   0.00000  Uiso   1.00
C21    C     0.45067   0.73105   0.50041   0.00000  Uiso   1.00
C22    C     0.47541   0.67766   0.46620   0.00000  Uiso   1.00
C23    C     0.51720   0.69222   0.42714   0.00000  Uiso   1.00
H24    H     0.44725   0.89839   0.53377   0.00000  Uiso   1.00
H25    H     0.31894   0.86844   0.47114   0.00000  Uiso   1.00
H26    H     0.50589   0.98302   0.67577   0.00000  Uiso   1.00
H27    H     0.52154   0.86208   0.45317   0.00000  Uiso   1.00
H28    H     0.16944   0.80632   0.40377   0.00000  Uiso   1.00
H29    H     0.56365   0.04791   0.83523   0.00000  Uiso   1.00
H30    H     0.59667   0.79290   0.36584   0.00000  Uiso   1.00
H31    H     0.39147   0.67544   0.54955   0.00000  Uiso   1.00
H32    H     0.26010   0.63325   0.48778   0.00000  Uiso   1.00
H33    H     0.44705   0.74783   0.69241   0.00000  Uiso   1.00
H34    H     0.46270   0.62690   0.46981   0.00000  Uiso   1.00
H35    H     0.12169   0.61543   0.41727   0.00000  Uiso   1.00
H36    H     0.51590   0.85702   0.84874   0.00000  Uiso   1.00
H37    H     0.54891   0.60201   0.37935   0.00000  Uiso   1.00
O38    O     0.06015   0.68716   0.36962   0.00000  Uiso   1.00
O39    O     0.57735   0.00412   0.93569   0.00000  Uiso   1.00
O40    O     0.62066   0.66955   0.31986   0.00000  Uiso   1.00
N41    N     0.17623   0.76718   0.41541   0.00000  Uiso   1.00
N42    N     0.54479   0.99305   0.81881   0.00000  Uiso   1.00
N43    N     0.57567   0.75465   0.37998   0.00000  Uiso   1.00
N44    N     0.15054   0.66446   0.42268   0.00000  Uiso   1.00
N45    N     0.51909   0.89033   0.82608   0.00000  Uiso   1.00
N46    N     0.54997   0.65193   0.38725   0.00000  Uiso   1.00
C47    C     0.56976   0.36059   0.60736   0.00000  Uiso   1.00
C48    C     0.53043   0.27799   0.58051   0.00000  Uiso   1.00
C49    C     0.50994   0.24797   0.62377   0.00000  Uiso   1.00
C50    C     0.47449   0.17103   0.58882   0.00000  Uiso   1.00
C51    C     0.41564   0.04965   0.55862   0.00000  Uiso   1.00
C52    C     0.63480   0.36662   0.58736   0.00000  Uiso   1.00
C53    C     0.70207   0.41112   0.63637   0.00000  Uiso   1.00
C54    C     0.75447   0.40880   0.60718   0.00000  Uiso   1.00
C55    C     0.85766   0.42506   0.58760   0.00000  Uiso   1.00
C56    C     0.52587   0.38012   0.55898   0.00000  Uiso   1.00
C57    C     0.50156   0.43599   0.58414   0.00000  Uiso   1.00
C58    C     0.46226   0.44504   0.53106   0.00000  Uiso   1.00
C59    C     0.39632   0.48226   0.46742   0.00000  Uiso   1.00
C60    C     0.54323   0.27734   0.46838   0.00000  Uiso   1.00
C61    C     0.51602   0.23277   0.50502   0.00000  Uiso   1.00
C62    C     0.48058   0.15586   0.47000   0.00000  Uiso   1.00
C63    C     0.46004   0.12574   0.51320   0.00000  Uiso   1.00
C64    C     0.62039   0.32140   0.51187   0.00000  Uiso   1.00
C65    C     0.67271   0.31902   0.48260   0.00000  Uiso   1.00
C66    C     0.74003   0.36350   0.53156   0.00000  Uiso   1.00
C67    C     0.51146   0.33490   0.48349   0.00000  Uiso   1.00
C68    C     0.47220   0.34388   0.43037   0.00000  Uiso   1.00
C69    C     0.44782   0.39975   0.45544   0.00000  Uiso   1.00
H70    H     0.58099   0.39579   0.66614   0.00000  Uiso   1.00
H71    H     0.52111   0.28298   0.68219   0.00000  Uiso   1.00
H72    H     0.71320   0.44611   0.69478   0.00000  Uiso   1.00
H73    H     0.51273   0.47096   0.64256   0.00000  Uiso   1.00
H74    H     0.44840   0.13796   0.66670   0.00000  Uiso   1.00
H75    H     0.85343   0.48195   0.69325   0.00000  Uiso   1.00
H76    H     0.43068   0.53437   0.58313   0.00000  Uiso   1.00
H77    H     0.53201   0.24214   0.40961   0.00000  Uiso   1.00
H78    H     0.46944   0.12089   0.41158   0.00000  Uiso   1.00
H79    H     0.66153   0.28402   0.42418   0.00000  Uiso   1.00
H80    H     0.46105   0.30888   0.37196   0.00000  Uiso   1.00
H81    H     0.40646   0.00640   0.44706   0.00000  Uiso   1.00
H82    H     0.81149   0.35040   0.47362   0.00000  Uiso   1.00
H83    H     0.38874   0.40281   0.36350   0.00000  Uiso   1.00
O84    O     0.38717   0.99519   0.56281   0.00000  Uiso   1.00
O85    O     0.91856   0.44651   0.59765   0.00000  Uiso   1.00
O86    O     0.36392   0.51527   0.45317   0.00000  Uiso   1.00
N87    N     0.44710   0.12364   0.61473   0.00000  Uiso   1.00
N88    N     0.82578   0.44524   0.63956   0.00000  Uiso   1.00
N89    N     0.43057   0.49426   0.53661   0.00000  Uiso   1.00
N90    N     0.42453   0.05285   0.49655   0.00000  Uiso   1.00
N91    N     0.80321   0.37445   0.52138   0.00000  Uiso   1.00
N92    N     0.40800   0.42347   0.41843   0.00000  Uiso   1.00
C93    C     0.87739   0.74175   0.22400   0.00000  Uiso   1.00
C94    C     0.81611   0.68460   0.15315   0.00000  Uiso   1.00
C95    C     0.81997   0.64455   0.08433   0.00000  Uiso   1.00
C96    C     0.75800   0.59495   0.02641   0.00000  Uiso   1.00
C97    C     0.67250   0.50763   0.91477   0.00000  Uiso   1.00
C98    C     0.86572   0.81385   0.25226   0.00000  Uiso   1.00
C99    C     0.91130   0.88247   0.26677   0.00000  Uiso   1.00
C100   C     0.89109   0.94166   0.29229   0.00000  Uiso   1.00
C101   C     0.88264   0.05501   0.33457   0.00000  Uiso   1.00
C102   C     0.87020   0.71525   0.27998   0.00000  Uiso   1.00
C103   C     0.91956   0.70099   0.31782   0.00000  Uiso   1.00
C104   C     0.90313   0.67719   0.36670   0.00000  Uiso   1.00
C105   C     0.90164   0.63745   0.45202   0.00000  Uiso   1.00
C106   C     0.76044   0.72487   0.24352   0.00000  Uiso   1.00
C107   C     0.75259   0.67543   0.16375   0.00000  Uiso   1.00
C108   C     0.69059   0.62587   0.10592   0.00000  Uiso   1.00
C109   C     0.69436   0.58576   0.03703   0.00000  Uiso   1.00
C110   C     0.80220   0.80468   0.26286   0.00000  Uiso   1.00
C111   C     0.78192   0.86378   0.28837   0.00000  Uiso   1.00
C112   C     0.82746   0.93247   0.30291   0.00000  Uiso   1.00
C113   C     0.80668   0.70608   0.29058   0.00000  Uiso   1.00
C114   C     0.79017   0.68230   0.33941   0.00000  Uiso   1.00
C115   C     0.83949   0.66800   0.37732   0.00000  Uiso   1.00
H116   H     0.92684   0.74890   0.21575   0.00000  Uiso   1.00
H117   H     0.86914   0.65167   0.07614   0.00000  Uiso   1.00
H118   H     0.96046   0.88955   0.25857   0.00000  Uiso   1.00
H119   H     0.96871   0.70809   0.30960   0.00000  Uiso   1.00
H120   H     0.77716   0.53985   0.92603   0.00000  Uiso   1.00
H121   H     0.96971   0.04143   0.31071   0.00000  Uiso   1.00
H122   H     0.98712   0.65880   0.41833   0.00000  Uiso   1.00
H123   H     0.71099   0.71773   0.25178   0.00000  Uiso   1.00
H124   H     0.64144   0.61879   0.11414   0.00000  Uiso   1.00
H125   H     0.73276   0.85667   0.29657   0.00000  Uiso   1.00
H126   H     0.74101   0.67521   0.34760   0.00000  Uiso   1.00
H127   H     0.59234   0.51317   0.95687   0.00000  Uiso   1.00
H128   H     0.78490   0.01475   0.34156   0.00000  Uiso   1.00
H129   H     0.80230   0.63212   0.44917   0.00000  Uiso   1.00
O130   O     0.64290   0.46200   0.85026   0.00000  Uiso   1.00
O131   O     0.89553   0.12006   0.35496   0.00000  Uiso   1.00
O132   O     0.91836   0.61806   0.49614   0.00000  Uiso   1.00
N133   N     0.74321   0.54714   0.95218   0.00000  Uiso   1.00
N134   N     0.92323   0.01608   0.31182   0.00000  Uiso   1.00
N135   N     0.93951   0.65838   0.41245   0.00000  Uiso   1.00
N136   N     0.64376   0.53278   0.96878   0.00000  Uiso   1.00
N137   N     0.82378   0.00172   0.32842   0.00000  Uiso   1.00
N138   N     0.84006   0.64402   0.42905   0.00000  Uiso   1.00
C139   C     0.94720   0.16990   0.15494   0.00000  Uiso   1.00
C140   C     0.87114   0.11954   0.12858   0.00000  Uiso   1.00
C141   C     0.84432   0.06675   0.14887   0.00000  Uiso   1.00
C142   C     0.77332   0.02632   0.11873   0.00000  Uiso   1.00
C143   C     0.66169   0.94634   0.08524   0.00000  Uiso   1.00
C144   C     0.95161   0.24969   0.18950   0.00000  Uiso   1.00
C145   C     0.99247   0.30633   0.26100   0.00000  Uiso   1.00
C146   C     0.98923   0.37547   0.28214   0.00000  Uiso   1.00
C147   C     0.00258   0.49756   0.34320   0.00000  Uiso   1.00
C148   C     0.96511   0.15560   0.08534   0.00000  Uiso   1.00
C149   C     0.01733   0.13314   0.06927   0.00000  Uiso   1.00
C150   C     0.02546   0.12308   0.00271   0.00000  Uiso   1.00
C151   C     0.05977   0.09907   0.90205   0.00000  Uiso   1.00
C152   C     0.86879   0.19199   0.06533   0.00000  Uiso   1.00
C153   C     0.82855   0.13154   0.07991   0.00000  Uiso   1.00
C154   C     0.75757   0.09119   0.04973   0.00000  Uiso   1.00
C155   C     0.73066   0.03834   0.06997   0.00000  Uiso   1.00
C156   C     0.90902   0.26169   0.14083   0.00000  Uiso   1.00
C157   C     0.90572   0.33077   0.16187   0.00000  Uiso   1.00
C158   C     0.94656   0.38749   0.23338   0.00000  Uiso   1.00
C159   C     0.92252   0.16760   0.03666   0.00000  Uiso   1.00
C160   C     0.93057   0.15758   0.97013   0.00000  Uiso   1.00
C161   C     0.98279   0.13510   0.95396   0.00000  Uiso   1.00
H162   H     0.98036   0.16056   0.19283   0.00000  Uiso   1.00
H163   H     0.87730   0.05748   0.18654   0.00000  Uiso   1.00
H164   H     0.02543   0.29703   0.29865   0.00000  Uiso   1.00
H165   H     0.05028   0.12386   0.10694   0.00000  Uiso   1.00
H166   H     0.74426   0.94851   0.15813   0.00000  Uiso   1.00
H167   H     0.05662   0.45362   0.39451   0.00000  Uiso   1.00
H168   H     0.10902   0.08846   0.99026   0.00000  Uiso   1.00
H169   H     0.83563   0.20133   0.02744   0.00000  Uiso   1.00
H170   H     0.72462   0.10048   0.01207   0.00000  Uiso   1.00
H171   H     0.87275   0.34003   0.12419   0.00000  Uiso   1.00
H172   H     0.89760   0.16687   0.93248   0.00000  Uiso   1.00
H173   H     0.62034   0.98342   0.01652   0.00000  Uiso   1.00
H174   H     0.93270   0.48852   0.25291   0.00000  Uiso   1.00
H175   H     0.98510   0.12336   0.84865   0.00000  Uiso   1.00
O176   O     0.61188   0.89891   0.08022   0.00000  Uiso   1.00
O177   O     0.02170   0.56159   0.39034   0.00000  Uiso   1.00
O178   O     0.09045   0.08251   0.85997   0.00000  Uiso   1.00
N179   N     0.73033   0.97056   0.12690   0.00000  Uiso   1.00
N180   N     0.02236   0.44280   0.34790   0.00000  Uiso   1.00
N181   N     0.07136   0.10143   0.96997   0.00000  Uiso   1.00
N182   N     0.66365   0.98934   0.05070   0.00000  Uiso   1.00
N183   N     0.95568   0.46158   0.27171   0.00000  Uiso   1.00
N184   N     0.00468   0.12021   0.89378   0.00000  Uiso   1.00
C185   C     0.02447   0.33614   0.80350   0.00000  Uiso   1.00
C186   C     0.01294   0.31086   0.72203   0.00000  Uiso   1.00
C187   C     0.00998   0.35418   0.68856   0.00000  Uiso   1.00
C188   C     0.99902   0.32079   0.61341   0.00000  Uiso   1.00
C189   C     0.98233   0.29281   0.49302   0.00000  Uiso   1.00
C190   C     0.08749   0.32327   0.83239   0.00000  Uiso   1.00
C191   C     0.14719   0.37703   0.89172   0.00000  Uiso   1.00
C192   C     0.19898   0.35409   0.90947   0.00000  Uiso   1.00
C193   C     0.29800   0.34536   0.96045   0.00000  Uiso   1.00
C194   C     0.96327   0.28086   0.80540   0.00000  Uiso   1.00
C195   C     0.91854   0.29897   0.84206   0.00000  Uiso   1.00
C196   C     0.86576   0.24032   0.83710   0.00000  Uiso   1.00
C197   C     0.77192   0.16576   0.84618   0.00000  Uiso   1.00
C198   C     0.01029   0.19980   0.72953   0.00000  Uiso   1.00
C199   C     0.00524   0.23680   0.68185   0.00000  Uiso   1.00
C200   C     0.99428   0.20334   0.60673   0.00000  Uiso   1.00
C201   C     0.99130   0.24660   0.57316   0.00000  Uiso   1.00
C202   C     0.07978   0.24922   0.79221   0.00000  Uiso   1.00
C203   C     0.13150   0.22619   0.80988   0.00000  Uiso   1.00
C204   C     0.19127   0.27990   0.86922   0.00000  Uiso   1.00
C205   C     0.95556   0.20681   0.76522   0.00000  Uiso   1.00
C206   C     0.90285   0.14812   0.76021   0.00000  Uiso   1.00
C207   C     0.85805   0.16614   0.79685   0.00000  Uiso   1.00
H208   H     0.03047   0.39379   0.83478   0.00000  Uiso   1.00
H209   H     0.01595   0.41149   0.71968   0.00000  Uiso   1.00
H210   H     0.15313   0.43433   0.92280   0.00000  Uiso   1.00
H211   H     0.92452   0.35628   0.87314   0.00000  Uiso   1.00
H212   H     0.99647   0.39846   0.57435   0.00000  Uiso   1.00
H213   H     0.28573   0.44662   0.00267   0.00000  Uiso   1.00
H214   H     0.80365   0.28204   0.89795   0.00000  Uiso   1.00
H215   H     0.00429   0.14214   0.69826   0.00000  Uiso   1.00
H216   H     0.98833   0.14603   0.57565   0.00000  Uiso   1.00
H217   H     0.12552   0.16887   0.77878   0.00000  Uiso   1.00
H218   H     0.89690   0.09082   0.72912   0.00000  Uiso   1.00
H219   H     0.97406   0.18300   0.45746   0.00000  Uiso   1.00
H220   H     0.26332   0.23116   0.88578   0.00000  Uiso   1.00
H221   H     0.78124   0.06658   0.78106   0.00000  Uiso   1.00
O222   O     0.97526   0.29784   0.43772   0.00000  Uiso   1.00
O223   O     0.35475   0.36102   0.99967   0.00000  Uiso   1.00
O224   O     0.72228   0.14509   0.86227   0.00000  Uiso   1.00
N225   N     0.99337   0.34721   0.56366   0.00000  Uiso   1.00
N226   N     0.26382   0.39224   0.96411   0.00000  Uiso   1.00
N227   N     0.81313   0.23837   0.86622   0.00000  Uiso   1.00
N228   N     0.98131   0.23128   0.50076   0.00000  Uiso   1.00
N229   N     0.25176   0.27631   0.90121   0.00000  Uiso   1.00
N230   N     0.80107   0.12244   0.80332   0.00000  Uiso   1.00
C231   C     0.38852   0.83640   0.03318   0.00000  Uiso   1.00
C232   C     0.34177   0.75820   0.96941   0.00000  Uiso   1.00
C233   C     0.36177   0.69946   0.93942   0.00000  Uiso   1.00
C234   C     0.31130   0.63230   0.88131   0.00000  Uiso   1.00
C235   C     0.24905   0.51209   0.78643   0.00000  Uiso   1.00
C236   C     0.35455   0.85101   0.09178   0.00000  Uiso   1.00
C237   C     0.38530   0.87031   0.16467   0.00000  Uiso   1.00
C238   C     0.34558   0.88129   0.20957   0.00000  Uiso   1.00
C239   C     0.30319   0.90521   0.30469   0.00000  Uiso   1.00
C240   C     0.38343   0.88986   0.00420   0.00000  Uiso   1.00
C241   C     0.43846   0.94184   0.00347   0.00000  Uiso   1.00
C242   C     0.42307   0.98554   0.97465   0.00000  Uiso   1.00
C243   C     0.42552   0.06979   0.93378   0.00000  Uiso   1.00
C244   C     0.26332   0.82161   0.98332   0.00000  Uiso   1.00
C245   C     0.27377   0.75017   0.94233   0.00000  Uiso   1.00
C246   C     0.22326   0.68309   0.88425   0.00000  Uiso   1.00
C247   C     0.24317   0.62425   0.85417   0.00000  Uiso   1.00
C248   C     0.28655   0.84298   0.06470   0.00000  Uiso   1.00
C249   C     0.24678   0.85394   0.10950   0.00000  Uiso   1.00
C250   C     0.27746   0.87324   0.18244   0.00000  Uiso   1.00
C251   C     0.31543   0.88183   0.97711   0.00000  Uiso   1.00
C252   C     0.29995   0.92546   0.94829   0.00000  Uiso   1.00
C253   C     0.35494   0.97749   0.94752   0.00000  Uiso   1.00
H254   H     0.44146   0.84266   0.05427   0.00000  Uiso   1.00
H255   H     0.41440   0.70570   0.96040   0.00000  Uiso   1.00
H256   H     0.43792   0.87653   0.18562   0.00000  Uiso   1.00
H257   H     0.49108   0.94804   0.02443   0.00000  Uiso   1.00
H258   H     0.35440   0.55029   0.84439   0.00000  Uiso   1.00
H259   H     0.40401   0.91052   0.31928   0.00000  Uiso   1.00
H260   H     0.51611   0.06133   0.97940   0.00000  Uiso   1.00
H261   H     0.21038   0.81536   0.96224   0.00000  Uiso   1.00
H262   H     0.17064   0.67689   0.86330   0.00000  Uiso   1.00
H263   H     0.19416   0.84772   0.08853   0.00000  Uiso   1.00
H264   H     0.24732   0.91923   0.92734   0.00000  Uiso   1.00
H265   H     0.15656   0.52691   0.76559   0.00000  Uiso   1.00
H266   H     0.20617   0.88714   0.24048   0.00000  Uiso   1.00
H267   H     0.31826   0.03794   0.90059   0.00000  Uiso   1.00
O268   O     0.23350   0.44800   0.74159   0.00000  Uiso   1.00
O269   O     0.29859   0.92062   0.36463   0.00000  Uiso   1.00
O270   O     0.44566   0.11846   0.91870   0.00000  Uiso   1.00
N271   N     0.31330   0.56379   0.83941   0.00000  Uiso   1.00
N272   N     0.35967   0.90058   0.28341   0.00000  Uiso   1.00
N273   N     0.46448   0.04158   0.96566   0.00000  Uiso   1.00
N274   N     0.20684   0.55121   0.79701   0.00000  Uiso   1.00
N275   N     0.25322   0.88800   0.24100   0.00000  Uiso   1.00
N276   N     0.35802   0.02900   0.92325   0.00000  Uiso   1.00
C277   C     0.68445   0.25241   0.17440   0.00000  Uiso   1.00
C278   C     0.74437   0.31034   0.24623   0.00000  Uiso   1.00
C279   C     0.79612   0.29718   0.28197   0.00000  Uiso   1.00
C280   C     0.84632   0.35755   0.34706   0.00000  Uiso   1.00
C281   C     0.93961   0.43672   0.45427   0.00000  Uiso   1.00
C282   C     0.68816   0.28320   0.12122   0.00000  Uiso   1.00
C283   C     0.69263   0.24722   0.05185   0.00000  Uiso   1.00
C284   C     0.69550   0.28474   0.01170   0.00000  Uiso   1.00
C285   C     0.70147   0.32174   0.92481   0.00000  Uiso   1.00
C286   C     0.61886   0.25320   0.19140   0.00000  Uiso   1.00
C287   C     0.56506   0.19198   0.18102   0.00000  Uiso   1.00
C288   C     0.50957   0.20424   0.19994   0.00000  Uiso   1.00
C289   C     0.40795   0.19467   0.22202   0.00000  Uiso   1.00
C290   C     0.68158   0.38302   0.22643   0.00000  Uiso   1.00
C291   C     0.74281   0.38128   0.27448   0.00000  Uiso   1.00
C292   C     0.79294   0.44168   0.33953   0.00000  Uiso   1.00
C293   C     0.84475   0.42862   0.37537   0.00000  Uiso   1.00
C294   C     0.68660   0.35414   0.14947   0.00000  Uiso   1.00
C295   C     0.68945   0.39172   0.10941   0.00000  Uiso   1.00
C296   C     0.69393   0.35581   0.04001   0.00000  Uiso   1.00
C297   C     0.61730   0.32414   0.21966   0.00000  Uiso   1.00
C298   C     0.56188   0.33649   0.23859   0.00000  Uiso   1.00
C299   C     0.50801   0.27531   0.22825   0.00000  Uiso   1.00
H300   H     0.68567   0.19718   0.15239   0.00000  Uiso   1.00
H301   H     0.79732   0.24228   0.26008   0.00000  Uiso   1.00
H302   H     0.69383   0.19232   0.02999   0.00000  Uiso   1.00
H303   H     0.56629   0.13710   0.15915   0.00000  Uiso   1.00
H304   H     0.92042   0.32357   0.39192   0.00000  Uiso   1.00
H305   H     0.70220   0.21821   0.90676   0.00000  Uiso   1.00
H306   H     0.43324   0.10176   0.17911   0.00000  Uiso   1.00
H307   H     0.68036   0.43825   0.24843   0.00000  Uiso   1.00
H308   H     0.79172   0.49658   0.36139   0.00000  Uiso   1.00
H309   H     0.68823   0.44661   0.13130   0.00000  Uiso   1.00
H310   H     0.56069   0.39139   0.26046   0.00000  Uiso   1.00
H311   H     0.91588   0.52997   0.47414   0.00000  Uiso   1.00
H312   H     0.69765   0.42461   0.98898   0.00000  Uiso   1.00
H313   H     0.42870   0.30816   0.26134   0.00000  Uiso   1.00
O314   O     0.99151   0.46079   0.50560   0.00000  Uiso   1.00
O315   O     0.70520   0.32256   0.86908   0.00000  Uiso   1.00
O316   O     0.35234   0.16979   0.22641   0.00000  Uiso   1.00
N317   N     0.90406   0.36413   0.39578   0.00000  Uiso   1.00
N318   N     0.70005   0.26564   0.94218   0.00000  Uiso   1.00
N319   N     0.44859   0.15677   0.19680   0.00000  Uiso   1.00
N320   N     0.90162   0.47520   0.44002   0.00000  Uiso   1.00
N321   N     0.69760   0.37670   0.98643   0.00000  Uiso   1.00
N322   N     0.44614   0.26783   0.24104   0.00000  Uiso   1.00
C323   C     0.38815   0.62615   0.11976   0.00000  Uiso   1.00
C324   C     0.44433   0.70465   0.16988   0.00000  Uiso   1.00
C325   C     0.50174   0.73631   0.15542   0.00000  Uiso   1.00
C326   C     0.54712   0.80884   0.20822   0.00000  Uiso   1.00
C327   C     0.63610   0.92475   0.27616   0.00000  Uiso   1.00
C328   C     0.32026   0.63571   0.10475   0.00000  Uiso   1.00
C329   C     0.27336   0.60941   0.03553   0.00000  Uiso   1.00
C330   C     0.21429   0.62390   0.03351   0.00000  Uiso   1.00
C331   C     0.11064   0.63274   0.00032   0.00000  Uiso   1.00
C332   C     0.38512   0.58777   0.16651   0.00000  Uiso   1.00
C333   C     0.39273   0.52115   0.14923   0.00000  Uiso   1.00
C334   C     0.38826   0.49526   0.19920   0.00000  Uiso   1.00
C335   C     0.38531   0.42967   0.26192   0.00000  Uiso   1.00
C336   C     0.36663   0.69864   0.23923   0.00000  Uiso   1.00
C337   C     0.43264   0.74402   0.23477   0.00000  Uiso   1.00
C338   C     0.47794   0.81652   0.28760   0.00000  Uiso   1.00
C339   C     0.53541   0.84829   0.27323   0.00000  Uiso   1.00
C340   C     0.30857   0.67509   0.16963   0.00000  Uiso   1.00
C341   C     0.24956   0.68962   0.16771   0.00000  Uiso   1.00
C342   C     0.20258   0.66335   0.09851   0.00000  Uiso   1.00
C343   C     0.37343   0.62715   0.23141   0.00000  Uiso   1.00
C344   C     0.36893   0.60136   0.28141   0.00000  Uiso   1.00
C345   C     0.37655   0.53471   0.26420   0.00000  Uiso   1.00
H346   H     0.39725   0.59549   0.06923   0.00000  Uiso   1.00
H347   H     0.51077   0.70582   0.10520   0.00000  Uiso   1.00
H348   H     0.28242   0.57893   0.98533   0.00000  Uiso   1.00
H349   H     0.40178   0.49069   0.09900   0.00000  Uiso   1.00
H350   H     0.63146   0.84552   0.17367   0.00000  Uiso   1.00
H351   H     0.14996   0.57794   0.92092   0.00000  Uiso   1.00
H352   H     0.40165   0.39186   0.16063   0.00000  Uiso   1.00
H353   H     0.35753   0.72930   0.28975   0.00000  Uiso   1.00
H354   H     0.46888   0.84698   0.33781   0.00000  Uiso   1.00
H355   H     0.24053   0.72009   0.21794   0.00000  Uiso   1.00
H356   H     0.35989   0.63184   0.33162   0.00000  Uiso   1.00
H357   H     0.59746   0.96009   0.36247   0.00000  Uiso   1.00
H358   H     0.11596   0.69251   0.10971   0.00000  Uiso   1.00
H359   H     0.36765   0.50643   0.34943   0.00000  Uiso   1.00
O360   O     0.68841   0.97781   0.29570   0.00000  Uiso   1.00
O361   O     0.05670   0.62674   0.96409   0.00000  Uiso   1.00
O362   O     0.38692   0.38261   0.27859   0.00000  Uiso   1.00
N363   N     0.60818   0.85633   0.21152   0.00000  Uiso   1.00
N364   N     0.15802   0.60617   0.97520   0.00000  Uiso   1.00
N365   N     0.39331   0.43219   0.19930   0.00000  Uiso   1.00
N366   N     0.58989   0.91798   0.31311   0.00000  Uiso   1.00
N367   N     0.13972   0.66782   0.07680   0.00000  Uiso   1.00
N368   N     0.37502   0.49384   0.30090   0.00000  Uiso   1.00
C369   C     0.21858   0.26437   0.62269   0.00000  Uiso   1.00
C370   C     0.29042   0.30667   0.68170   0.00000  Uiso   1.00
C371   C     0.30483   0.33884   0.75743   0.00000  Uiso   1.00
C372   C     0.37393   0.37508   0.80221   0.00000  Uiso   1.00
C373   C     0.47745   0.44014   0.89840   0.00000  Uiso   1.00
C374   C     0.21520   0.18759   0.57158   0.00000  Uiso   1.00
C375   C     0.16637   0.11964   0.55472   0.00000  Uiso   1.00
C376   C     0.17214   0.05564   0.50681   0.00000  Uiso   1.00
C377   C     0.15886   0.93583   0.43199   0.00000  Uiso   1.00
C378   C     0.21666   0.30373   0.57700   0.00000  Uiso   1.00
C379   C     0.16904   0.33342   0.56467   0.00000  Uiso   1.00
C380   C     0.17604   0.36719   0.52129   0.00000  Uiso   1.00
C381   C     0.16502   0.42770   0.45489   0.00000  Uiso   1.00
C382   C     0.31567   0.27151   0.56756   0.00000  Uiso   1.00
C383   C     0.34315   0.31055   0.65175   0.00000  Uiso   1.00
C384   C     0.41225   0.34675   0.69643   0.00000  Uiso   1.00
C385   C     0.42676   0.37897   0.77222   0.00000  Uiso   1.00
C386   C     0.26794   0.19147   0.54164   0.00000  Uiso   1.00
C387   C     0.27378   0.12755   0.49373   0.00000  Uiso   1.00
C388   C     0.22497   0.05953   0.47681   0.00000  Uiso   1.00
C389   C     0.26940   0.30762   0.54705   0.00000  Uiso   1.00
C390   C     0.27646   0.34133   0.50368   0.00000  Uiso   1.00
C391   C     0.22887   0.37107   0.49129   0.00000  Uiso   1.00
H392   H     0.17753   0.26134   0.64599   0.00000  Uiso   1.00
H393   H     0.26401   0.33582   0.78058   0.00000  Uiso   1.00
H394   H     0.12556   0.11666   0.57790   0.00000  Uiso   1.00
H395   H     0.12824   0.33041   0.58785   0.00000  Uiso   1.00
H396   H     0.38314   0.42009   0.91658   0.00000  Uiso   1.00
H397   H     0.09120   0.95797   0.48920   0.00000  Uiso   1.00
H398   H     0.09685   0.40870   0.51018   0.00000  Uiso   1.00
H399   H     0.35673   0.27453   0.54424   0.00000  Uiso   1.00
H400   H     0.45305   0.34974   0.67325   0.00000  Uiso   1.00
H401   H     0.31460   0.13058   0.47057   0.00000  Uiso   1.00
H402   H     0.31728   0.34433   0.48052   0.00000  Uiso   1.00
H403   H     0.53657   0.43138   0.82947   0.00000  Uiso   1.00
H404   H     0.24463   0.96926   0.40209   0.00000  Uiso   1.00
H405   H     0.25029   0.41999   0.42307   0.00000  Uiso   1.00
O406   O     0.51998   0.47495   0.95972   0.00000  Uiso   1.00
O407   O     0.13696   0.86867   0.39901   0.00000  Uiso   1.00
O408   O     0.14438   0.46002   0.42654   0.00000  Uiso   1.00
N409   N     0.40603   0.41244   0.87837   0.00000  Uiso   1.00
N410   N     0.13309   0.98038   0.47881   0.00000  Uiso   1.00
N411   N     0.13837   0.40176   0.49841   0.00000  Uiso   1.00
N412   N     0.48860   0.41852   0.83150   0.00000  Uiso   1.00
N413   N     0.21566   0.98646   0.43194   0.00000  Uiso   1.00
N414   N     0.22093   0.40784   0.45153   0.00000  Uiso   1.00
C415   C     0.10422   0.82638   0.59660   0.00000  Uiso   1.00
C416   C     0.17133   0.89567   0.64448   0.00000  Uiso   1.00
C417   C     0.22692   0.91644   0.62260   0.00000  Uiso   1.00
C418   C     0.28358   0.98180   0.67457   0.00000  Uiso   1.00
C419   C     0.38764   0.08284   0.73808   0.00000  Uiso   1.00
C420   C     0.09611   0.78336   0.63880   0.00000  Uiso   1.00
C421   C     0.08845   0.70970   0.61215   0.00000  Uiso   1.00
C422   C     0.08177   0.68052   0.65933   0.00000  Uiso   1.00
C423   C     0.06900   0.60718   0.71401   0.00000  Uiso   1.00
C424   C     0.04644   0.85432   0.59641   0.00000  Uiso   1.00
C425   C     0.99700   0.84031   0.53412   0.00000  Uiso   1.00
C426   C     0.94850   0.87086   0.54561   0.00000  Uiso   1.00
C427   C     0.85862   0.90769   0.53448   0.00000  Uiso   1.00
C428   C     0.10598   0.90552   0.72777   0.00000  Uiso   1.00
C429   C     0.17228   0.93866   0.71573   0.00000  Uiso   1.00
C430   C     0.22887   0.00400   0.76774   0.00000  Uiso   1.00
C431   C     0.28453   0.02487   0.74594   0.00000  Uiso   1.00
C432   C     0.09706   0.82635   0.71005   0.00000  Uiso   1.00
C433   C     0.09039   0.79726   0.75728   0.00000  Uiso   1.00
C434   C     0.08273   0.72358   0.73071   0.00000  Uiso   1.00
C435   C     0.04739   0.89731   0.66766   0.00000  Uiso   1.00
C436   C     0.99895   0.92788   0.67925   0.00000  Uiso   1.00
C437   C     0.94946   0.91392   0.61699   0.00000  Uiso   1.00
H438   H     0.10348   0.79291   0.54113   0.00000  Uiso   1.00
H439   H     0.22616   0.88316   0.56746   0.00000  Uiso   1.00
H440   H     0.08770   0.67645   0.55700   0.00000  Uiso   1.00
H441   H     0.99628   0.80704   0.47899   0.00000  Uiso   1.00
H442   H     0.36261   0.00216   0.62809   0.00000  Uiso   1.00
H443   H     0.07064   0.56630   0.60603   0.00000  Uiso   1.00
H444   H     0.87785   0.84168   0.44151   0.00000  Uiso   1.00
H445   H     0.10672   0.93898   0.78325   0.00000  Uiso   1.00
H446   H     0.22959   0.03726   0.82287   0.00000  Uiso   1.00
H447   H     0.09113   0.83055   0.81241   0.00000  Uiso   1.00
H448   H     0.99971   0.96114   0.73440   0.00000  Uiso   1.00
H449   H     0.36540   0.12723   0.83539   0.00000  Uiso   1.00
H450   H     0.07342   0.69137   0.81333   0.00000  Uiso   1.00
H451   H     0.88064   0.96675   0.64881   0.00000  Uiso   1.00
O452   O     0.44478   0.12669   0.75344   0.00000  Uiso   1.00
O453   O     0.06171   0.55486   0.72449   0.00000  Uiso   1.00
O454   O     0.80878   0.91615   0.50865   0.00000  Uiso   1.00
N455   N     0.34640   0.01812   0.67143   0.00000  Uiso   1.00
N456   N     0.07343   0.61062   0.65081   0.00000  Uiso   1.00
N457   N     0.89318   0.86805   0.49700   0.00000  Uiso   1.00
N458   N     0.34790   0.08542   0.78298   0.00000  Uiso   1.00
N459   N     0.07493   0.67792   0.76236   0.00000  Uiso   1.00
N460   N     0.89468   0.93535   0.60855   0.00000  Uiso   1.00
C461   C     0.79382   0.71623   0.87158   0.00000  Uiso   1.00
C462   C     0.85232   0.74035   0.94105   0.00000  Uiso   1.00
C463   C     0.89636   0.70478   0.94602   0.00000  Uiso   1.00
C464   C     0.94657   0.73555   0.01453   0.00000  Uiso   1.00
C465   C     0.03649   0.76323   0.11310   0.00000  Uiso   1.00
C466   C     0.72862   0.70565   0.89153   0.00000  Uiso   1.00
C467   C     0.66864   0.64089   0.85486   0.00000  Uiso   1.00
C468   C     0.61472   0.64245   0.88168   0.00000  Uiso   1.00
C469   C     0.51257   0.61627   0.90333   0.00000  Uiso   1.00
C470   C     0.80795   0.78350   0.85947   0.00000  Uiso   1.00
C471   C     0.81466   0.78420   0.79583   0.00000  Uiso   1.00
C472   C     0.82752   0.85130   0.79565   0.00000  Uiso   1.00
C473   C     0.84855   0.94600   0.76752   0.00000  Uiso   1.00
C474   C     0.80468   0.83414   0.98440   0.00000  Uiso   1.00
C475   C     0.85822   0.80440   0.00233   0.00000  Uiso   1.00
C476   C     0.90838   0.83523   0.07086   0.00000  Uiso   1.00
C477   C     0.95249   0.79971   0.07593   0.00000  Uiso   1.00
C478   C     0.73452   0.76969   0.95281   0.00000  Uiso   1.00
C479   C     0.68067   0.77134   0.97969   0.00000  Uiso   1.00
C480   C     0.62063   0.70661   0.94308   0.00000  Uiso   1.00
C481   C     0.81386   0.84754   0.92075   0.00000  Uiso   1.00
C482   C     0.82669   0.91465   0.92067   0.00000  Uiso   1.00
C483   C     0.83343   0.91546   0.85705   0.00000  Uiso   1.00
H484   H     0.78922   0.66637   0.82386   0.00000  Uiso   1.00
H485   H     0.89177   0.65521   0.89858   0.00000  Uiso   1.00
H486   H     0.66409   0.59134   0.80743   0.00000  Uiso   1.00
H487   H     0.81009   0.73463   0.74842   0.00000  Uiso   1.00
H488   H     0.00806   0.67107   0.00846   0.00000  Uiso   1.00
H489   H     0.52797   0.53640   0.81624   0.00000  Uiso   1.00
H490   H     0.83585   0.83854   0.69180   0.00000  Uiso   1.00
H491   H     0.80928   0.88401   0.03212   0.00000  Uiso   1.00
H492   H     0.91294   0.88479   0.11827   0.00000  Uiso   1.00
H493   H     0.68525   0.82092   0.02712   0.00000  Uiso   1.00
H494   H     0.83126   0.96420   0.96810   0.00000  Uiso   1.00
H495   H     0.02523   0.85740   0.18677   0.00000  Uiso   1.00
H496   H     0.54514   0.72273   0.99455   0.00000  Uiso   1.00
H497   H     0.85302   0.02488   0.87010   0.00000  Uiso   1.00
O498   O     0.08446   0.76081   0.15053   0.00000  Uiso   1.00
O499   O     0.45460   0.58414   0.89834   0.00000  Uiso   1.00
O500   O     0.85853   0.98054   0.73508   0.00000  Uiso   1.00
N501   N     0.99788   0.71482   0.03860   0.00000  Uiso   1.00
N502   N     0.54903   0.58891   0.85889   0.00000  Uiso   1.00
N503   N     0.83685   0.87139   0.74254   0.00000  Uiso   1.00
N504   N     0.00713   0.81509   0.13454   0.00000  Uiso   1.00
N505   N     0.55827   0.68918   0.95484   0.00000  Uiso   1.00
N506   N     0.84610   0.97165   0.83848   0.00000  Uiso   1.00
C507   C     0.65976   0.14909   0.56894   0.00000  Uiso   1.00
C508   C     0.71046   0.22461   0.63440   0.00000  Uiso   1.00
C509   C     0.69293   0.27927   0.68088   0.00000  Uiso   1.00
C510   C     0.74689   0.34452   0.73758   0.00000  Uiso   1.00
C511   C     0.81511   0.46026   0.83771   0.00000  Uiso   1.00
C512   C     0.67882   0.14491   0.50195   0.00000  Uiso   1.00
C513   C     0.63468   0.13254   0.43705   0.00000  Uiso   1.00
C514   C     0.66200   0.13068   0.38225   0.00000  Uiso   1.00
C515   C     0.68109   0.12262   0.27672   0.00000  Uiso   1.00
C516   C     0.67705   0.09054   0.58285   0.00000  Uiso   1.00
C517   C     0.63141   0.03245   0.58596   0.00000  Uiso   1.00
C518   C     0.65724   0.98481   0.59926   0.00000  Uiso   1.00
C519   C     0.67357   0.89234   0.61934   0.00000  Uiso   1.00
C520   C     0.78677   0.16775   0.58701   0.00000  Uiso   1.00
C521   C     0.77945   0.23475   0.64421   0.00000  Uiso   1.00
C522   C     0.83345   0.29992   0.70087   0.00000  Uiso   1.00
C523   C     0.81600   0.35467   0.74742   0.00000  Uiso   1.00
C524   C     0.74780   0.15505   0.51176   0.00000  Uiso   1.00
C525   C     0.77520   0.15320   0.45704   0.00000  Uiso   1.00
C526   C     0.73111   0.14084   0.39208   0.00000  Uiso   1.00
C527   C     0.74603   0.10068   0.59266   0.00000  Uiso   1.00
C528   C     0.77193   0.05311   0.60595   0.00000  Uiso   1.00
C529   C     0.72635   0.99496   0.60909   0.00000  Uiso   1.00
H530   H     0.60606   0.14119   0.56130   0.00000  Uiso   1.00
H531   H     0.63954   0.27141   0.67326   0.00000  Uiso   1.00
H532   H     0.58130   0.12469   0.42947   0.00000  Uiso   1.00
H533   H     0.57803   0.02463   0.57836   0.00000  Uiso   1.00
H534   H     0.70708   0.42026   0.80170   0.00000  Uiso   1.00
H535   H     0.58427   0.11088   0.28765   0.00000  Uiso   1.00
H536   H     0.57738   0.89986   0.60161   0.00000  Uiso   1.00
H537   H     0.84048   0.17565   0.59465   0.00000  Uiso   1.00
H538   H     0.88683   0.30775   0.70845   0.00000  Uiso   1.00
H539   H     0.82858   0.16104   0.46465   0.00000  Uiso   1.00
H540   H     0.82532   0.06097   0.61354   0.00000  Uiso   1.00
H541   H     0.90779   0.44976   0.83026   0.00000  Uiso   1.00
H542   H     0.78497   0.14037   0.31620   0.00000  Uiso   1.00
H543   H     0.77809   0.92936   0.63017   0.00000  Uiso   1.00
O544   O     0.83369   0.52130   0.89022   0.00000  Uiso   1.00
O545   O     0.67256   0.11539   0.21580   0.00000  Uiso   1.00
O546   O     0.66353   0.83855   0.62772   0.00000  Uiso   1.00
N547   N     0.74795   0.40906   0.79282   0.00000  Uiso   1.00
N548   N     0.63314   0.11982   0.31221   0.00000  Uiso   1.00
N549   N     0.62669   0.92253   0.60572   0.00000  Uiso   1.00
N550   N     0.85595   0.42494   0.80818   0.00000  Uiso   1.00
N551   N     0.74114   0.13570   0.32758   0.00000  Uiso   1.00
N552   N     0.73469   0.93840   0.62109   0.00000  Uiso   1.00
