data_job_06326
_audit_creation_date              2018-12-19
_audit_creation_method            'Materials Studio'
_symmetry_space_group_name_H-M    'P1'
_symmetry_Int_Tables_number       1
_symmetry_cell_setting            triclinic
loop_
_symmetry_equiv_pos_as_xyz
  x,y,z
_cell_length_a                    12.4179
_cell_length_b                    25.3295
_cell_length_c                    25.5387
_cell_angle_alpha                 117.4650
_cell_angle_beta                  79.9931
_cell_angle_gamma                 82.0376
loop_
_atom_site_label
_atom_site_type_symbol
_atom_site_fract_x
_atom_site_fract_y
_atom_site_fract_z
_atom_site_U_iso_or_equiv
_atom_site_adp_type
_atom_site_occupancy
C1     C     0.45148   0.31735   0.50720   0.00000  Uiso   1.00
C2     C     0.54733   0.26512   0.49527   0.00000  Uiso   1.00
C3     C     0.62520   0.27020   0.52921   0.00000  Uiso   1.00
C4     C     0.70642   0.21705   0.51092   0.00000  Uiso   1.00
C5     C     0.85480   0.14451   0.50005   0.00000  Uiso   1.00
C6     C     0.46778   0.31958   0.44774   0.00000  Uiso   1.00
C7     C     0.47876   0.37044   0.44172   0.00000  Uiso   1.00
C8     C     0.49299   0.36313   0.38341   0.00000  Uiso   1.00
C9     C     0.51779   0.37514   0.29876   0.00000  Uiso   1.00
C10    C     0.34328   0.29648   0.51497   0.00000  Uiso   1.00
C11    C     0.24955   0.32793   0.56546   0.00000  Uiso   1.00
C12    C     0.15895   0.30118   0.56375   0.00000  Uiso   1.00
C13    C     0.99045   0.27733   0.58348   0.00000  Uiso   1.00
C14    C     0.45722   0.21394   0.41438   0.00000  Uiso   1.00
C15    C     0.55044   0.20896   0.44485   0.00000  Uiso   1.00
C16    C     0.63156   0.15579   0.42651   0.00000  Uiso   1.00
C17    C     0.70954   0.16078   0.46041   0.00000  Uiso   1.00
C18    C     0.47090   0.26341   0.39732   0.00000  Uiso   1.00
C19    C     0.48511   0.25603   0.33902   0.00000  Uiso   1.00
C20    C     0.49611   0.30686   0.33290   0.00000  Uiso   1.00
C21    C     0.34639   0.24031   0.46455   0.00000  Uiso   1.00
C22    C     0.25591   0.21351   0.46276   0.00000  Uiso   1.00
C23    C     0.16208   0.24491   0.51324   0.00000  Uiso   1.00
H24    H     0.44905   0.36108   0.54645   0.00000  Uiso   1.00
H25    H     0.62277   0.31368   0.56822   0.00000  Uiso   1.00
H26    H     0.47633   0.41390   0.48074   0.00000  Uiso   1.00
H27    H     0.24717   0.37139   0.60447   0.00000  Uiso   1.00
H28    H     0.81677   0.23636   0.57011   0.00000  Uiso   1.00
H29    H     0.50795   0.44769   0.38566   0.00000  Uiso   1.00
H30    H     0.02473   0.35805   0.64656   0.00000  Uiso   1.00
H31    H     0.45965   0.17021   0.37512   0.00000  Uiso   1.00
H32    H     0.63395   0.11233   0.38749   0.00000  Uiso   1.00
H33    H     0.48751   0.21256   0.30001   0.00000  Uiso   1.00
H34    H     0.25836   0.17005   0.42374   0.00000  Uiso   1.00
H35    H     0.82584   0.07294   0.42342   0.00000  Uiso   1.00
H36    H     0.51702   0.28427   0.23897   0.00000  Uiso   1.00
H37    H     0.03380   0.19463   0.49987   0.00000  Uiso   1.00
O38    O     0.93580   0.12002   0.50798   0.00000  Uiso   1.00
O39    O     0.53062   0.39729   0.26600   0.00000  Uiso   1.00
O40    O     0.89665   0.27968   0.60829   0.00000  Uiso   1.00
N41    N     0.79497   0.20584   0.53390   0.00000  Uiso   1.00
N42    N     0.50626   0.40342   0.36145   0.00000  Uiso   1.00
N43    N     0.05448   0.31962   0.60536   0.00000  Uiso   1.00
N44    N     0.79985   0.11790   0.45496   0.00000  Uiso   1.00
N45    N     0.51115   0.31548   0.28251   0.00000  Uiso   1.00
N46    N     0.05936   0.23169   0.52643   0.00000  Uiso   1.00
C47    C     0.95206   0.49252   0.80929   0.00000  Uiso   1.00
C48    C     0.03770   0.50516   0.76870   0.00000  Uiso   1.00
C49    C     0.14927   0.47181   0.73935   0.00000  Uiso   1.00
C50    C     0.21395   0.49070   0.70428   0.00000  Uiso   1.00
C51    C     0.35384   0.50267   0.64211   0.00000  Uiso   1.00
C52    C     0.90895   0.55200   0.87080   0.00000  Uiso   1.00
C53    C     0.91227   0.55804   0.92731   0.00000  Uiso   1.00
C54    C     0.86856   0.61637   0.97820   0.00000  Uiso   1.00
C55    C     0.80849   0.70105   0.07455   0.00000  Uiso   1.00
C56    C     0.85229   0.48402   0.78147   0.00000  Uiso   1.00
C57    C     0.80794   0.43292   0.76288   0.00000  Uiso   1.00
C58    C     0.71650   0.43401   0.73856   0.00000  Uiso   1.00
C59    C     0.56845   0.41315   0.69621   0.00000  Uiso   1.00
C60    C     0.86852   0.58535   0.79920   0.00000  Uiso   1.00
C61    C     0.99232   0.55558   0.76322   0.00000  Uiso   1.00
C62    C     0.05684   0.57452   0.72819   0.00000  Uiso   1.00
C63    C     0.16849   0.54121   0.69879   0.00000  Uiso   1.00
C64    C     0.86358   0.60242   0.86533   0.00000  Uiso   1.00
C65    C     0.81984   0.66075   0.91614   0.00000  Uiso   1.00
C66    C     0.82310   0.66688   0.97271   0.00000  Uiso   1.00
C67    C     0.80691   0.53445   0.77599   0.00000  Uiso   1.00
C68    C     0.71551   0.53562   0.75171   0.00000  Uiso   1.00
C69    C     0.67104   0.48453   0.73308   0.00000  Uiso   1.00
H70    H     0.98739   0.45327   0.81356   0.00000  Uiso   1.00
H71    H     0.18436   0.43280   0.74361   0.00000  Uiso   1.00
H72    H     0.94738   0.51902   0.93153   0.00000  Uiso   1.00
H73    H     0.84308   0.39391   0.76712   0.00000  Uiso   1.00
H74    H     0.38274   0.43236   0.66365   0.00000  Uiso   1.00
H75    H     0.88303   0.61414   0.05991   0.00000  Uiso   1.00
H76    H     0.66307   0.35032   0.71321   0.00000  Uiso   1.00
H77    H     0.83319   0.62461   0.79494   0.00000  Uiso   1.00
H78    H     0.02170   0.61354   0.72395   0.00000  Uiso   1.00
H79    H     0.78473   0.69976   0.91188   0.00000  Uiso   1.00
H80    H     0.68042   0.57465   0.74747   0.00000  Uiso   1.00
H81    H     0.25073   0.57906   0.64770   0.00000  Uiso   1.00
H82    H     0.75100   0.76084   0.04396   0.00000  Uiso   1.00
H83    H     0.53105   0.49703   0.69727   0.00000  Uiso   1.00
O84    O     0.44354   0.49535   0.60933   0.00000  Uiso   1.00
O85    O     0.78791   0.73384   0.12921   0.00000  Uiso   1.00
O86    O     0.49934   0.38772   0.67436   0.00000  Uiso   1.00
N87    N     0.32580   0.46839   0.66963   0.00000  Uiso   1.00
N88    N     0.85861   0.63835   0.04010   0.00000  Uiso   1.00
N89    N     0.65295   0.39171   0.71599   0.00000  Uiso   1.00
N90    N     0.25476   0.54733   0.66104   0.00000  Uiso   1.00
N91    N     0.78757   0.71729   0.03152   0.00000  Uiso   1.00
N92    N     0.58191   0.47065   0.70741   0.00000  Uiso   1.00
C93    C     0.76574   0.19169   0.68356   0.00000  Uiso   1.00
C94    C     0.81045   0.23281   0.73614   0.00000  Uiso   1.00
C95    C     0.89382   0.26293   0.73161   0.00000  Uiso   1.00
C96    C     0.92290   0.29838   0.78500   0.00000  Uiso   1.00
C97    C     0.00035   0.36143   0.85813   0.00000  Uiso   1.00
C98    C     0.78209   0.12990   0.68151   0.00000  Uiso   1.00
C99    C     0.84160   0.07350   0.63105   0.00000  Uiso   1.00
C100   C     0.84678   0.02232   0.63845   0.00000  Uiso   1.00
C101   C     0.88013   0.92561   0.62675   0.00000  Uiso   1.00
C102   C     0.63848   0.21877   0.70354   0.00000  Uiso   1.00
C103   C     0.57722   0.23708   0.67159   0.00000  Uiso   1.00
C104   C     0.46149   0.26071   0.69754   0.00000  Uiso   1.00
C105   C     0.27186   0.30198   0.72005   0.00000  Uiso   1.00
C106   C     0.66912   0.20108   0.78644   0.00000  Uiso   1.00
C107   C     0.75797   0.23791   0.79201   0.00000  Uiso   1.00
C108   C     0.78693   0.27332   0.84543   0.00000  Uiso   1.00
C109   C     0.87032   0.30349   0.84098   0.00000  Uiso   1.00
C110   C     0.72961   0.13500   0.73738   0.00000  Uiso   1.00
C111   C     0.73470   0.08390   0.74486   0.00000  Uiso   1.00
C112   C     0.79421   0.02743   0.69443   0.00000  Uiso   1.00
C113   C     0.58599   0.22388   0.75942   0.00000  Uiso   1.00
C114   C     0.47033   0.24748   0.78542   0.00000  Uiso   1.00
C115   C     0.40892   0.26582   0.75352   0.00000  Uiso   1.00
H116   H     0.80660   0.18771   0.64006   0.00000  Uiso   1.00
H117   H     0.93442   0.25897   0.68836   0.00000  Uiso   1.00
H118   H     0.88219   0.06957   0.58781   0.00000  Uiso   1.00
H119   H     0.61786   0.23313   0.62835   0.00000  Uiso   1.00
H120   H     0.05302   0.34020   0.76655   0.00000  Uiso   1.00
H121   H     0.94286   0.94084   0.55453   0.00000  Uiso   1.00
H122   H     0.38547   0.28573   0.64002   0.00000  Uiso   1.00
H123   H     0.62826   0.20505   0.82994   0.00000  Uiso   1.00
H124   H     0.74630   0.27726   0.88866   0.00000  Uiso   1.00
H125   H     0.69408   0.08786   0.78811   0.00000  Uiso   1.00
H126   H     0.42975   0.25142   0.82866   0.00000  Uiso   1.00
H127   H     0.90034   0.35505   0.92912   0.00000  Uiso   1.00
H128   H     0.79018   0.95569   0.71710   0.00000  Uiso   1.00
H129   H     0.23279   0.30058   0.80260   0.00000  Uiso   1.00
O130   O     0.05758   0.39480   0.88303   0.00000  Uiso   1.00
O131   O     0.91303   0.87085   0.60486   0.00000  Uiso   1.00
O132   O     0.18176   0.32334   0.71704   0.00000  Uiso   1.00
N133   N     0.00087   0.33379   0.79675   0.00000  Uiso   1.00
N134   N     0.89790   0.96042   0.59853   0.00000  Uiso   1.00
N135   N     0.37678   0.28285   0.67845   0.00000  Uiso   1.00
N136   N     0.91872   0.34178   0.88423   0.00000  Uiso   1.00
N137   N     0.81574   0.96841   0.68601   0.00000  Uiso   1.00
N138   N     0.29462   0.29084   0.76593   0.00000  Uiso   1.00
C139   C     0.54852   0.68265   0.49280   0.00000  Uiso   1.00
C140   C     0.45267   0.73488   0.50473   0.00000  Uiso   1.00
C141   C     0.37480   0.72980   0.47079   0.00000  Uiso   1.00
C142   C     0.29358   0.78295   0.48908   0.00000  Uiso   1.00
C143   C     0.14520   0.85549   0.49995   0.00000  Uiso   1.00
C144   C     0.53222   0.68042   0.55226   0.00000  Uiso   1.00
C145   C     0.52124   0.62956   0.55828   0.00000  Uiso   1.00
C146   C     0.50701   0.63687   0.61659   0.00000  Uiso   1.00
C147   C     0.48221   0.62486   0.70124   0.00000  Uiso   1.00
C148   C     0.65672   0.70352   0.48503   0.00000  Uiso   1.00
C149   C     0.75044   0.67207   0.43454   0.00000  Uiso   1.00
C150   C     0.84105   0.69882   0.43625   0.00000  Uiso   1.00
C151   C     0.00955   0.72267   0.41652   0.00000  Uiso   1.00
C152   C     0.54278   0.78606   0.58562   0.00000  Uiso   1.00
C153   C     0.44956   0.79104   0.55515   0.00000  Uiso   1.00
C154   C     0.36844   0.84421   0.57349   0.00000  Uiso   1.00
C155   C     0.29046   0.83922   0.53959   0.00000  Uiso   1.00
C156   C     0.52910   0.73659   0.60268   0.00000  Uiso   1.00
C157   C     0.51489   0.74397   0.66098   0.00000  Uiso   1.00
C158   C     0.50389   0.69314   0.66710   0.00000  Uiso   1.00
C159   C     0.65361   0.75969   0.53545   0.00000  Uiso   1.00
C160   C     0.74409   0.78649   0.53724   0.00000  Uiso   1.00
C161   C     0.83792   0.75509   0.48676   0.00000  Uiso   1.00
H162   H     0.55095   0.63892   0.45355   0.00000  Uiso   1.00
H163   H     0.37723   0.68632   0.43178   0.00000  Uiso   1.00
H164   H     0.52367   0.58610   0.51926   0.00000  Uiso   1.00
H165   H     0.75283   0.62861   0.39553   0.00000  Uiso   1.00
H166   H     0.18323   0.76364   0.42989   0.00000  Uiso   1.00
H167   H     0.49205   0.55231   0.61434   0.00000  Uiso   1.00
H168   H     0.97527   0.64195   0.35344   0.00000  Uiso   1.00
H169   H     0.54035   0.82979   0.62488   0.00000  Uiso   1.00
H170   H     0.36605   0.88767   0.61251   0.00000  Uiso   1.00
H171   H     0.51249   0.78744   0.69999   0.00000  Uiso   1.00
H172   H     0.74164   0.82995   0.57626   0.00000  Uiso   1.00
H173   H     0.17416   0.92706   0.57658   0.00000  Uiso   1.00
H174   H     0.48298   0.71573   0.76103   0.00000  Uiso   1.00
H175   H     0.96619   0.80537   0.50013   0.00000  Uiso   1.00
O176   O     0.06420   0.87998   0.49202   0.00000  Uiso   1.00
O177   O     0.46938   0.60272   0.73400   0.00000  Uiso   1.00
O178   O     0.10335   0.72032   0.39171   0.00000  Uiso   1.00
N179   N     0.20503   0.79416   0.46610   0.00000  Uiso   1.00
N180   N     0.49374   0.59658   0.63855   0.00000  Uiso   1.00
N181   N     0.94552   0.68038   0.39464   0.00000  Uiso   1.00
N182   N     0.20015   0.88210   0.54504   0.00000  Uiso   1.00
N183   N     0.48885   0.68452   0.71749   0.00000  Uiso   1.00
N184   N     0.94064   0.76831   0.47357   0.00000  Uiso   1.00
C185   C     0.04794   0.50748   0.19071   0.00000  Uiso   1.00
C186   C     0.96230   0.49484   0.23130   0.00000  Uiso   1.00
C187   C     0.85073   0.52819   0.26065   0.00000  Uiso   1.00
C188   C     0.78605   0.50930   0.29572   0.00000  Uiso   1.00
C189   C     0.64616   0.49733   0.35789   0.00000  Uiso   1.00
C190   C     0.09105   0.44800   0.12920   0.00000  Uiso   1.00
C191   C     0.08773   0.44196   0.07269   0.00000  Uiso   1.00
C192   C     0.13144   0.38363   0.02180   0.00000  Uiso   1.00
C193   C     0.19151   0.29895   0.92545   0.00000  Uiso   1.00
C194   C     0.14771   0.51598   0.21853   0.00000  Uiso   1.00
C195   C     0.19206   0.56708   0.23712   0.00000  Uiso   1.00
C196   C     0.28350   0.56599   0.26144   0.00000  Uiso   1.00
C197   C     0.43155   0.58685   0.30379   0.00000  Uiso   1.00
C198   C     0.13148   0.41465   0.20080   0.00000  Uiso   1.00
C199   C     0.00768   0.44442   0.23678   0.00000  Uiso   1.00
C200   C     0.94316   0.42548   0.27181   0.00000  Uiso   1.00
C201   C     0.83151   0.45879   0.30121   0.00000  Uiso   1.00
C202   C     0.13642   0.39758   0.13467   0.00000  Uiso   1.00
C203   C     0.18016   0.33925   0.08386   0.00000  Uiso   1.00
C204   C     0.17690   0.33312   0.02729   0.00000  Uiso   1.00
C205   C     0.19309   0.46556   0.22401   0.00000  Uiso   1.00
C206   C     0.28449   0.46438   0.24829   0.00000  Uiso   1.00
C207   C     0.32896   0.51547   0.26692   0.00000  Uiso   1.00
H208   H     0.01261   0.54673   0.18644   0.00000  Uiso   1.00
H209   H     0.81564   0.56720   0.25639   0.00000  Uiso   1.00
H210   H     0.05262   0.48099   0.06847   0.00000  Uiso   1.00
H211   H     0.15692   0.60609   0.23288   0.00000  Uiso   1.00
H212   H     0.61726   0.56764   0.33635   0.00000  Uiso   1.00
H213   H     0.11697   0.38586   0.94009   0.00000  Uiso   1.00
H214   H     0.33693   0.64968   0.28679   0.00000  Uiso   1.00
H215   H     0.16681   0.37539   0.20506   0.00000  Uiso   1.00
H216   H     0.97830   0.38646   0.27605   0.00000  Uiso   1.00
H217   H     0.21527   0.30024   0.08812   0.00000  Uiso   1.00
H218   H     0.31958   0.42535   0.25253   0.00000  Uiso   1.00
H219   H     0.74927   0.42094   0.35230   0.00000  Uiso   1.00
H220   H     0.24900   0.23916   0.95604   0.00000  Uiso   1.00
H221   H     0.46895   0.50297   0.30273   0.00000  Uiso   1.00
O222   O     0.55646   0.50465   0.39066   0.00000  Uiso   1.00
O223   O     0.21209   0.26616   0.87079   0.00000  Uiso   1.00
O224   O     0.50066   0.61228   0.32564   0.00000  Uiso   1.00
N225   N     0.67420   0.53161   0.33037   0.00000  Uiso   1.00
N226   N     0.14139   0.36165   0.95990   0.00000  Uiso   1.00
N227   N     0.34705   0.60829   0.28401   0.00000  Uiso   1.00
N228   N     0.74524   0.45267   0.33896   0.00000  Uiso   1.00
N229   N     0.21243   0.28271   0.96848   0.00000  Uiso   1.00
N230   N     0.41809   0.52935   0.29259   0.00000  Uiso   1.00
C231   C     0.23426   0.80832   0.31644   0.00000  Uiso   1.00
C232   C     0.18955   0.76719   0.26386   0.00000  Uiso   1.00
C233   C     0.10618   0.73707   0.26839   0.00000  Uiso   1.00
C234   C     0.07710   0.70162   0.21500   0.00000  Uiso   1.00
C235   C     0.99965   0.63857   0.14187   0.00000  Uiso   1.00
C236   C     0.21791   0.87010   0.31849   0.00000  Uiso   1.00
C237   C     0.15840   0.92650   0.36895   0.00000  Uiso   1.00
C238   C     0.15322   0.97768   0.36155   0.00000  Uiso   1.00
C239   C     0.11987   0.07439   0.37325   0.00000  Uiso   1.00
C240   C     0.36152   0.78123   0.29646   0.00000  Uiso   1.00
C241   C     0.42278   0.76292   0.32841   0.00000  Uiso   1.00
C242   C     0.53851   0.73929   0.30246   0.00000  Uiso   1.00
C243   C     0.72814   0.69802   0.27995   0.00000  Uiso   1.00
C244   C     0.33088   0.79892   0.21356   0.00000  Uiso   1.00
C245   C     0.24203   0.76209   0.20799   0.00000  Uiso   1.00
C246   C     0.21307   0.72668   0.15457   0.00000  Uiso   1.00
C247   C     0.12968   0.69651   0.15902   0.00000  Uiso   1.00
C248   C     0.27039   0.86500   0.26262   0.00000  Uiso   1.00
C249   C     0.26530   0.91610   0.25514   0.00000  Uiso   1.00
C250   C     0.20579   0.97257   0.30557   0.00000  Uiso   1.00
C251   C     0.41400   0.77612   0.24058   0.00000  Uiso   1.00
C252   C     0.52967   0.75252   0.21458   0.00000  Uiso   1.00
C253   C     0.59108   0.73418   0.24648   0.00000  Uiso   1.00
H254   H     0.19340   0.81229   0.35994   0.00000  Uiso   1.00
H255   H     0.06558   0.74103   0.31164   0.00000  Uiso   1.00
H256   H     0.11781   0.93043   0.41219   0.00000  Uiso   1.00
H257   H     0.38214   0.76687   0.37165   0.00000  Uiso   1.00
H258   H     0.94698   0.65980   0.23345   0.00000  Uiso   1.00
H259   H     0.05714   0.05916   0.44547   0.00000  Uiso   1.00
H260   H     0.61453   0.71427   0.35998   0.00000  Uiso   1.00
H261   H     0.37174   0.79495   0.17006   0.00000  Uiso   1.00
H262   H     0.25370   0.72274   0.11134   0.00000  Uiso   1.00
H263   H     0.30592   0.91214   0.21189   0.00000  Uiso   1.00
H264   H     0.57025   0.74858   0.17134   0.00000  Uiso   1.00
H265   H     0.09966   0.64495   0.07088   0.00000  Uiso   1.00
H266   H     0.20982   0.04431   0.28290   0.00000  Uiso   1.00
H267   H     0.76721   0.69942   0.19740   0.00000  Uiso   1.00
O268   O     0.94242   0.60520   0.11697   0.00000  Uiso   1.00
O269   O     0.08697   0.12915   0.39514   0.00000  Uiso   1.00
O270   O     0.81824   0.67666   0.28296   0.00000  Uiso   1.00
N271   N     0.99913   0.66621   0.20325   0.00000  Uiso   1.00
N272   N     0.10210   0.03958   0.40147   0.00000  Uiso   1.00
N273   N     0.62322   0.71715   0.32155   0.00000  Uiso   1.00
N274   N     0.08128   0.65822   0.11577   0.00000  Uiso   1.00
N275   N     0.18426   0.03159   0.31399   0.00000  Uiso   1.00
N276   N     0.70538   0.70916   0.23407   0.00000  Uiso   1.00
