data_job_03047
_audit_creation_date              2018-12-19
_audit_creation_method            'Materials Studio'
_symmetry_space_group_name_H-M    'P1'
_symmetry_Int_Tables_number       1
_symmetry_cell_setting            triclinic
loop_
_symmetry_equiv_pos_as_xyz
  x,y,z
_cell_length_a                    12.2017
_cell_length_b                    12.2017
_cell_length_c                    40.5292
_cell_angle_alpha                 90.0000
_cell_angle_beta                  90.0000
_cell_angle_gamma                 90.0000
loop_
_atom_site_label
_atom_site_type_symbol
_atom_site_fract_x
_atom_site_fract_y
_atom_site_fract_z
_atom_site_U_iso_or_equiv
_atom_site_adp_type
_atom_site_occupancy
C1     C     0.14234   0.59115   0.53295   0.00000  Uiso   1.00
C2     C     0.18304   0.48616   0.54927   0.00000  Uiso   1.00
C3     C     0.27503   0.42682   0.53999   0.00000  Uiso   1.00
C4     C     0.29845   0.33300   0.55804   0.00000  Uiso   1.00
C5     C     0.37169   0.17499   0.57937   0.00000  Uiso   1.00
C6     C     0.02434   0.56868   0.52256   0.00000  Uiso   1.00
C7     C     0.98290   0.57872   0.49081   0.00000  Uiso   1.00
C8     C     0.87273   0.55438   0.48638   0.00000  Uiso   1.00
C9     C     0.69957   0.52456   0.46624   0.00000  Uiso   1.00
C10    C     0.13603   0.67674   0.56030   0.00000  Uiso   1.00
C11    C     0.18849   0.77767   0.56028   0.00000  Uiso   1.00
C12    C     0.17232   0.84432   0.58761   0.00000  Uiso   1.00
C13    C     0.17259   0.98229   0.62606   0.00000  Uiso   1.00
C14    C     0.02034   0.53007   0.58153   0.00000  Uiso   1.00
C15    C     0.11677   0.45299   0.57566   0.00000  Uiso   1.00
C16    C     0.14006   0.35923   0.59374   0.00000  Uiso   1.00
C17    C     0.23207   0.29976   0.58448   0.00000  Uiso   1.00
C18    C     0.95808   0.53550   0.54894   0.00000  Uiso   1.00
C19    C     0.84793   0.51114   0.54456   0.00000  Uiso   1.00
C20    C     0.80634   0.52114   0.51281   0.00000  Uiso   1.00
C21    C     0.06977   0.64356   0.58668   0.00000  Uiso   1.00
C22    C     0.05352   0.71008   0.61402   0.00000  Uiso   1.00
C23    C     0.10594   0.81108   0.61405   0.00000  Uiso   1.00
H24    H     0.19392   0.61698   0.51240   0.00000  Uiso   1.00
H25    H     0.32628   0.45251   0.51957   0.00000  Uiso   1.00
H26    H     0.03420   0.60441   0.47040   0.00000  Uiso   1.00
H27    H     0.23976   0.80331   0.53985   0.00000  Uiso   1.00
H28    H     0.44378   0.25552   0.53913   0.00000  Uiso   1.00
H29    H     0.82790   0.57584   0.43547   0.00000  Uiso   1.00
H30    H     0.26136   0.99527   0.58192   0.00000  Uiso   1.00
H31    H     0.96875   0.50424   0.60207   0.00000  Uiso   1.00
H32    H     0.08876   0.33358   0.61415   0.00000  Uiso   1.00
H33    H     0.79668   0.48547   0.56498   0.00000  Uiso   1.00
H34    H     0.00223   0.68438   0.63444   0.00000  Uiso   1.00
H35    H     0.25100   0.15898   0.61590   0.00000  Uiso   1.00
H36    H     0.63512   0.47931   0.51223   0.00000  Uiso   1.00
H37    H     0.06857   0.89873   0.65869   0.00000  Uiso   1.00
O38    O     0.43038   0.09700   0.58384   0.00000  Uiso   1.00
O39    O     0.62237   0.51727   0.44784   0.00000  Uiso   1.00
O40    O     0.19105   0.06755   0.63998   0.00000  Uiso   1.00
N41    N     0.38196   0.25623   0.55555   0.00000  Uiso   1.00
N42    N     0.80615   0.55569   0.45862   0.00000  Uiso   1.00
N43    N     0.21137   0.94784   0.59554   0.00000  Uiso   1.00
N44    N     0.27822   0.20429   0.59686   0.00000  Uiso   1.00
N45    N     0.70241   0.50375   0.49993   0.00000  Uiso   1.00
N46    N     0.10763   0.89589   0.63685   0.00000  Uiso   1.00
C47    C     0.85766   0.40885   0.03295   0.00000  Uiso   1.00
C48    C     0.81696   0.51384   0.04927   0.00000  Uiso   1.00
C49    C     0.72497   0.57318   0.03999   0.00000  Uiso   1.00
C50    C     0.70155   0.66700   0.05804   0.00000  Uiso   1.00
C51    C     0.62831   0.82501   0.07937   0.00000  Uiso   1.00
C52    C     0.97566   0.43132   0.02256   0.00000  Uiso   1.00
C53    C     0.01710   0.42128   0.99081   0.00000  Uiso   1.00
C54    C     0.12727   0.44562   0.98638   0.00000  Uiso   1.00
C55    C     0.30043   0.47544   0.96624   0.00000  Uiso   1.00
C56    C     0.86397   0.32326   0.06030   0.00000  Uiso   1.00
C57    C     0.81151   0.22233   0.06028   0.00000  Uiso   1.00
C58    C     0.82768   0.15568   0.08761   0.00000  Uiso   1.00
C59    C     0.82741   0.01771   0.12606   0.00000  Uiso   1.00
C60    C     0.97966   0.46993   0.08153   0.00000  Uiso   1.00
C61    C     0.88323   0.54701   0.07566   0.00000  Uiso   1.00
C62    C     0.85994   0.64077   0.09374   0.00000  Uiso   1.00
C63    C     0.76793   0.70024   0.08448   0.00000  Uiso   1.00
C64    C     0.04192   0.46450   0.04894   0.00000  Uiso   1.00
C65    C     0.15207   0.48886   0.04456   0.00000  Uiso   1.00
C66    C     0.19366   0.47886   0.01281   0.00000  Uiso   1.00
C67    C     0.93023   0.35644   0.08668   0.00000  Uiso   1.00
C68    C     0.94648   0.28992   0.11402   0.00000  Uiso   1.00
C69    C     0.89406   0.18892   0.11405   0.00000  Uiso   1.00
H70    H     0.80608   0.38302   0.01240   0.00000  Uiso   1.00
H71    H     0.67372   0.54749   0.01957   0.00000  Uiso   1.00
H72    H     0.96580   0.39559   0.97040   0.00000  Uiso   1.00
H73    H     0.76024   0.19669   0.03985   0.00000  Uiso   1.00
H74    H     0.55622   0.74448   0.03913   0.00000  Uiso   1.00
H75    H     0.17210   0.42416   0.93547   0.00000  Uiso   1.00
H76    H     0.73864   0.00473   0.08192   0.00000  Uiso   1.00
H77    H     0.03125   0.49576   0.10207   0.00000  Uiso   1.00
H78    H     0.91124   0.66642   0.11415   0.00000  Uiso   1.00
H79    H     0.20332   0.51453   0.06498   0.00000  Uiso   1.00
H80    H     0.99777   0.31562   0.13444   0.00000  Uiso   1.00
H81    H     0.74900   0.84102   0.11590   0.00000  Uiso   1.00
H82    H     0.36488   0.52069   0.01223   0.00000  Uiso   1.00
H83    H     0.93143   0.10127   0.15869   0.00000  Uiso   1.00
O84    O     0.56962   0.90300   0.08384   0.00000  Uiso   1.00
O85    O     0.37763   0.48273   0.94784   0.00000  Uiso   1.00
O86    O     0.80895   0.93245   0.13998   0.00000  Uiso   1.00
N87    N     0.61804   0.74377   0.05555   0.00000  Uiso   1.00
N88    N     0.19385   0.44431   0.95862   0.00000  Uiso   1.00
N89    N     0.78863   0.05216   0.09554   0.00000  Uiso   1.00
N90    N     0.72178   0.79571   0.09686   0.00000  Uiso   1.00
N91    N     0.29759   0.49625   0.99993   0.00000  Uiso   1.00
N92    N     0.89237   0.10411   0.13685   0.00000  Uiso   1.00
C93    C     0.90885   0.64234   0.28295   0.00000  Uiso   1.00
C94    C     0.01384   0.68304   0.29927   0.00000  Uiso   1.00
C95    C     0.07318   0.77503   0.28999   0.00000  Uiso   1.00
C96    C     0.16700   0.79845   0.30804   0.00000  Uiso   1.00
C97    C     0.32501   0.87169   0.32937   0.00000  Uiso   1.00
C98    C     0.93132   0.52434   0.27256   0.00000  Uiso   1.00
C99    C     0.92128   0.48290   0.24081   0.00000  Uiso   1.00
C100   C     0.94562   0.37273   0.23638   0.00000  Uiso   1.00
C101   C     0.97544   0.19957   0.21624   0.00000  Uiso   1.00
C102   C     0.82326   0.63603   0.31030   0.00000  Uiso   1.00
C103   C     0.72233   0.68849   0.31028   0.00000  Uiso   1.00
C104   C     0.65568   0.67232   0.33761   0.00000  Uiso   1.00
C105   C     0.51771   0.67259   0.37606   0.00000  Uiso   1.00
C106   C     0.96993   0.52034   0.33153   0.00000  Uiso   1.00
C107   C     0.04701   0.61677   0.32566   0.00000  Uiso   1.00
C108   C     0.14077   0.64006   0.34374   0.00000  Uiso   1.00
C109   C     0.20024   0.73207   0.33448   0.00000  Uiso   1.00
C110   C     0.96450   0.45808   0.29894   0.00000  Uiso   1.00
C111   C     0.98886   0.34793   0.29456   0.00000  Uiso   1.00
C112   C     0.97886   0.30634   0.26281   0.00000  Uiso   1.00
C113   C     0.85644   0.56977   0.33668   0.00000  Uiso   1.00
C114   C     0.78992   0.55352   0.36402   0.00000  Uiso   1.00
C115   C     0.68892   0.60594   0.36405   0.00000  Uiso   1.00
H116   H     0.88302   0.69392   0.26240   0.00000  Uiso   1.00
H117   H     0.04749   0.82628   0.26957   0.00000  Uiso   1.00
H118   H     0.89559   0.53420   0.22040   0.00000  Uiso   1.00
H119   H     0.69669   0.73976   0.28985   0.00000  Uiso   1.00
H120   H     0.24448   0.94378   0.28913   0.00000  Uiso   1.00
H121   H     0.92416   0.32790   0.18547   0.00000  Uiso   1.00
H122   H     0.50473   0.76136   0.33192   0.00000  Uiso   1.00
H123   H     0.99576   0.46875   0.35207   0.00000  Uiso   1.00
H124   H     0.16642   0.58876   0.36415   0.00000  Uiso   1.00
H125   H     0.01453   0.29668   0.31498   0.00000  Uiso   1.00
H126   H     0.81562   0.50223   0.38444   0.00000  Uiso   1.00
H127   H     0.34102   0.75100   0.36590   0.00000  Uiso   1.00
H128   H     0.02069   0.13512   0.26223   0.00000  Uiso   1.00
H129   H     0.60127   0.56857   0.40869   0.00000  Uiso   1.00
O130   O     0.40300   0.93038   0.33384   0.00000  Uiso   1.00
O131   O     0.98273   0.12237   0.19784   0.00000  Uiso   1.00
O132   O     0.43245   0.69105   0.38998   0.00000  Uiso   1.00
N133   N     0.24377   0.88196   0.30555   0.00000  Uiso   1.00
N134   N     0.94431   0.30615   0.20862   0.00000  Uiso   1.00
N135   N     0.55216   0.71137   0.34554   0.00000  Uiso   1.00
N136   N     0.29571   0.77822   0.34686   0.00000  Uiso   1.00
N137   N     0.99625   0.20241   0.24993   0.00000  Uiso   1.00
N138   N     0.60411   0.60763   0.38685   0.00000  Uiso   1.00
C139   C     0.09115   0.35766   0.78295   0.00000  Uiso   1.00
C140   C     0.98616   0.31696   0.79927   0.00000  Uiso   1.00
C141   C     0.92682   0.22497   0.78999   0.00000  Uiso   1.00
C142   C     0.83300   0.20155   0.80804   0.00000  Uiso   1.00
C143   C     0.67499   0.12831   0.82937   0.00000  Uiso   1.00
C144   C     0.06868   0.47566   0.77256   0.00000  Uiso   1.00
C145   C     0.07872   0.51710   0.74081   0.00000  Uiso   1.00
C146   C     0.05438   0.62727   0.73638   0.00000  Uiso   1.00
C147   C     0.02456   0.80043   0.71624   0.00000  Uiso   1.00
C148   C     0.17674   0.36397   0.81030   0.00000  Uiso   1.00
C149   C     0.27767   0.31151   0.81028   0.00000  Uiso   1.00
C150   C     0.34432   0.32768   0.83761   0.00000  Uiso   1.00
C151   C     0.48229   0.32741   0.87606   0.00000  Uiso   1.00
C152   C     0.03007   0.47966   0.83153   0.00000  Uiso   1.00
C153   C     0.95299   0.38323   0.82566   0.00000  Uiso   1.00
C154   C     0.85923   0.35994   0.84374   0.00000  Uiso   1.00
C155   C     0.79976   0.26793   0.83448   0.00000  Uiso   1.00
C156   C     0.03550   0.54192   0.79894   0.00000  Uiso   1.00
C157   C     0.01114   0.65207   0.79456   0.00000  Uiso   1.00
C158   C     0.02114   0.69366   0.76281   0.00000  Uiso   1.00
C159   C     0.14356   0.43023   0.83668   0.00000  Uiso   1.00
C160   C     0.21008   0.44648   0.86402   0.00000  Uiso   1.00
C161   C     0.31108   0.39406   0.86405   0.00000  Uiso   1.00
H162   H     0.11698   0.30608   0.76240   0.00000  Uiso   1.00
H163   H     0.95251   0.17372   0.76957   0.00000  Uiso   1.00
H164   H     0.10441   0.46580   0.72040   0.00000  Uiso   1.00
H165   H     0.30331   0.26024   0.78985   0.00000  Uiso   1.00
H166   H     0.75552   0.05622   0.78913   0.00000  Uiso   1.00
H167   H     0.07584   0.67210   0.68547   0.00000  Uiso   1.00
H168   H     0.49527   0.23864   0.83192   0.00000  Uiso   1.00
H169   H     0.00424   0.53125   0.85207   0.00000  Uiso   1.00
H170   H     0.83358   0.41124   0.86415   0.00000  Uiso   1.00
H171   H     0.98547   0.70332   0.81498   0.00000  Uiso   1.00
H172   H     0.18438   0.49777   0.88444   0.00000  Uiso   1.00
H173   H     0.65898   0.24900   0.86590   0.00000  Uiso   1.00
H174   H     0.97931   0.86488   0.76223   0.00000  Uiso   1.00
H175   H     0.39873   0.43143   0.90869   0.00000  Uiso   1.00
O176   O     0.59700   0.06962   0.83384   0.00000  Uiso   1.00
O177   O     0.01727   0.87763   0.69784   0.00000  Uiso   1.00
O178   O     0.56755   0.30895   0.88998   0.00000  Uiso   1.00
N179   N     0.75623   0.11804   0.80555   0.00000  Uiso   1.00
N180   N     0.05569   0.69385   0.70862   0.00000  Uiso   1.00
N181   N     0.44784   0.28863   0.84554   0.00000  Uiso   1.00
N182   N     0.70429   0.22178   0.84686   0.00000  Uiso   1.00
N183   N     0.00375   0.79759   0.74993   0.00000  Uiso   1.00
N184   N     0.39589   0.39237   0.88685   0.00000  Uiso   1.00
C185   C     0.35766   0.09115   0.21705   0.00000  Uiso   1.00
C186   C     0.31696   0.98616   0.20073   0.00000  Uiso   1.00
C187   C     0.22497   0.92682   0.21001   0.00000  Uiso   1.00
C188   C     0.20155   0.83300   0.19196   0.00000  Uiso   1.00
C189   C     0.12831   0.67499   0.17063   0.00000  Uiso   1.00
C190   C     0.47566   0.06868   0.22744   0.00000  Uiso   1.00
C191   C     0.51710   0.07872   0.25919   0.00000  Uiso   1.00
C192   C     0.62727   0.05438   0.26362   0.00000  Uiso   1.00
C193   C     0.80043   0.02456   0.28376   0.00000  Uiso   1.00
C194   C     0.36397   0.17674   0.18970   0.00000  Uiso   1.00
C195   C     0.31151   0.27767   0.18972   0.00000  Uiso   1.00
C196   C     0.32768   0.34432   0.16239   0.00000  Uiso   1.00
C197   C     0.32741   0.48229   0.12394   0.00000  Uiso   1.00
C198   C     0.47966   0.03007   0.16847   0.00000  Uiso   1.00
C199   C     0.38323   0.95299   0.17434   0.00000  Uiso   1.00
C200   C     0.35994   0.85923   0.15626   0.00000  Uiso   1.00
C201   C     0.26793   0.79976   0.16552   0.00000  Uiso   1.00
C202   C     0.54192   0.03550   0.20106   0.00000  Uiso   1.00
C203   C     0.65207   0.01114   0.20544   0.00000  Uiso   1.00
C204   C     0.69366   0.02114   0.23719   0.00000  Uiso   1.00
C205   C     0.43023   0.14356   0.16332   0.00000  Uiso   1.00
C206   C     0.44648   0.21008   0.13598   0.00000  Uiso   1.00
C207   C     0.39406   0.31108   0.13595   0.00000  Uiso   1.00
H208   H     0.30608   0.11698   0.23760   0.00000  Uiso   1.00
H209   H     0.17372   0.95251   0.23043   0.00000  Uiso   1.00
H210   H     0.46580   0.10441   0.27960   0.00000  Uiso   1.00
H211   H     0.26024   0.30331   0.21015   0.00000  Uiso   1.00
H212   H     0.05622   0.75552   0.21087   0.00000  Uiso   1.00
H213   H     0.67210   0.07584   0.31453   0.00000  Uiso   1.00
H214   H     0.23864   0.49527   0.16808   0.00000  Uiso   1.00
H215   H     0.53125   0.00424   0.14793   0.00000  Uiso   1.00
H216   H     0.41124   0.83358   0.13585   0.00000  Uiso   1.00
H217   H     0.70332   0.98547   0.18502   0.00000  Uiso   1.00
H218   H     0.49777   0.18438   0.11556   0.00000  Uiso   1.00
H219   H     0.24900   0.65898   0.13410   0.00000  Uiso   1.00
H220   H     0.86488   0.97931   0.23777   0.00000  Uiso   1.00
H221   H     0.43143   0.39873   0.09131   0.00000  Uiso   1.00
O222   O     0.06962   0.59700   0.16616   0.00000  Uiso   1.00
O223   O     0.87763   0.01727   0.30216   0.00000  Uiso   1.00
O224   O     0.30895   0.56755   0.11002   0.00000  Uiso   1.00
N225   N     0.11804   0.75623   0.19445   0.00000  Uiso   1.00
N226   N     0.69385   0.05569   0.29138   0.00000  Uiso   1.00
N227   N     0.28863   0.44784   0.15446   0.00000  Uiso   1.00
N228   N     0.22178   0.70429   0.15314   0.00000  Uiso   1.00
N229   N     0.79759   0.00375   0.25007   0.00000  Uiso   1.00
N230   N     0.39237   0.39589   0.11315   0.00000  Uiso   1.00
C231   C     0.64234   0.90885   0.71705   0.00000  Uiso   1.00
C232   C     0.68304   0.01384   0.70073   0.00000  Uiso   1.00
C233   C     0.77503   0.07318   0.71001   0.00000  Uiso   1.00
C234   C     0.79845   0.16700   0.69196   0.00000  Uiso   1.00
C235   C     0.87169   0.32501   0.67063   0.00000  Uiso   1.00
C236   C     0.52434   0.93132   0.72744   0.00000  Uiso   1.00
C237   C     0.48290   0.92128   0.75919   0.00000  Uiso   1.00
C238   C     0.37273   0.94562   0.76362   0.00000  Uiso   1.00
C239   C     0.19957   0.97544   0.78376   0.00000  Uiso   1.00
C240   C     0.63603   0.82326   0.68970   0.00000  Uiso   1.00
C241   C     0.68849   0.72233   0.68972   0.00000  Uiso   1.00
C242   C     0.67232   0.65568   0.66239   0.00000  Uiso   1.00
C243   C     0.67259   0.51771   0.62394   0.00000  Uiso   1.00
C244   C     0.52034   0.96993   0.66847   0.00000  Uiso   1.00
C245   C     0.61677   0.04701   0.67434   0.00000  Uiso   1.00
C246   C     0.64006   0.14077   0.65626   0.00000  Uiso   1.00
C247   C     0.73207   0.20024   0.66552   0.00000  Uiso   1.00
C248   C     0.45808   0.96450   0.70106   0.00000  Uiso   1.00
C249   C     0.34793   0.98886   0.70544   0.00000  Uiso   1.00
C250   C     0.30634   0.97886   0.73719   0.00000  Uiso   1.00
C251   C     0.56977   0.85644   0.66332   0.00000  Uiso   1.00
C252   C     0.55352   0.78992   0.63598   0.00000  Uiso   1.00
C253   C     0.60594   0.68892   0.63595   0.00000  Uiso   1.00
H254   H     0.69392   0.88302   0.73760   0.00000  Uiso   1.00
H255   H     0.82628   0.04749   0.73043   0.00000  Uiso   1.00
H256   H     0.53420   0.89559   0.77960   0.00000  Uiso   1.00
H257   H     0.73976   0.69669   0.71015   0.00000  Uiso   1.00
H258   H     0.94378   0.24448   0.71087   0.00000  Uiso   1.00
H259   H     0.32790   0.92416   0.81453   0.00000  Uiso   1.00
H260   H     0.76136   0.50473   0.66808   0.00000  Uiso   1.00
H261   H     0.46875   0.99576   0.64793   0.00000  Uiso   1.00
H262   H     0.58876   0.16642   0.63585   0.00000  Uiso   1.00
H263   H     0.29668   0.01453   0.68502   0.00000  Uiso   1.00
H264   H     0.50223   0.81562   0.61556   0.00000  Uiso   1.00
H265   H     0.75100   0.34102   0.63410   0.00000  Uiso   1.00
H266   H     0.13512   0.02069   0.73777   0.00000  Uiso   1.00
H267   H     0.56857   0.60127   0.59131   0.00000  Uiso   1.00
O268   O     0.93038   0.40300   0.66616   0.00000  Uiso   1.00
O269   O     0.12237   0.98273   0.80216   0.00000  Uiso   1.00
O270   O     0.69105   0.43245   0.61002   0.00000  Uiso   1.00
N271   N     0.88196   0.24377   0.69445   0.00000  Uiso   1.00
N272   N     0.30615   0.94431   0.79138   0.00000  Uiso   1.00
N273   N     0.71137   0.55216   0.65446   0.00000  Uiso   1.00
N274   N     0.77822   0.29571   0.65314   0.00000  Uiso   1.00
N275   N     0.20241   0.99625   0.75007   0.00000  Uiso   1.00
N276   N     0.60763   0.60411   0.61315   0.00000  Uiso   1.00
C277   C     0.59115   0.14234   0.46705   0.00000  Uiso   1.00
C278   C     0.48616   0.18304   0.45073   0.00000  Uiso   1.00
C279   C     0.42682   0.27503   0.46001   0.00000  Uiso   1.00
C280   C     0.33300   0.29845   0.44196   0.00000  Uiso   1.00
C281   C     0.17499   0.37169   0.42063   0.00000  Uiso   1.00
C282   C     0.56868   0.02434   0.47744   0.00000  Uiso   1.00
C283   C     0.57872   0.98290   0.50919   0.00000  Uiso   1.00
C284   C     0.55438   0.87273   0.51362   0.00000  Uiso   1.00
C285   C     0.52456   0.69957   0.53376   0.00000  Uiso   1.00
C286   C     0.67674   0.13603   0.43970   0.00000  Uiso   1.00
C287   C     0.77767   0.18849   0.43972   0.00000  Uiso   1.00
C288   C     0.84432   0.17232   0.41239   0.00000  Uiso   1.00
C289   C     0.98229   0.17259   0.37394   0.00000  Uiso   1.00
C290   C     0.53007   0.02034   0.41847   0.00000  Uiso   1.00
C291   C     0.45299   0.11677   0.42434   0.00000  Uiso   1.00
C292   C     0.35923   0.14006   0.40626   0.00000  Uiso   1.00
C293   C     0.29976   0.23207   0.41552   0.00000  Uiso   1.00
C294   C     0.53550   0.95808   0.45106   0.00000  Uiso   1.00
C295   C     0.51114   0.84793   0.45544   0.00000  Uiso   1.00
C296   C     0.52114   0.80634   0.48719   0.00000  Uiso   1.00
C297   C     0.64356   0.06977   0.41332   0.00000  Uiso   1.00
C298   C     0.71008   0.05352   0.38598   0.00000  Uiso   1.00
C299   C     0.81108   0.10594   0.38595   0.00000  Uiso   1.00
H300   H     0.61698   0.19392   0.48760   0.00000  Uiso   1.00
H301   H     0.45251   0.32628   0.48043   0.00000  Uiso   1.00
H302   H     0.60441   0.03420   0.52960   0.00000  Uiso   1.00
H303   H     0.80331   0.23976   0.46015   0.00000  Uiso   1.00
H304   H     0.25552   0.44378   0.46087   0.00000  Uiso   1.00
H305   H     0.57584   0.82790   0.56453   0.00000  Uiso   1.00
H306   H     0.99527   0.26136   0.41808   0.00000  Uiso   1.00
H307   H     0.50424   0.96875   0.39793   0.00000  Uiso   1.00
H308   H     0.33358   0.08876   0.38585   0.00000  Uiso   1.00
H309   H     0.48547   0.79668   0.43502   0.00000  Uiso   1.00
H310   H     0.68438   0.00223   0.36556   0.00000  Uiso   1.00
H311   H     0.15898   0.25100   0.38410   0.00000  Uiso   1.00
H312   H     0.47931   0.63512   0.48777   0.00000  Uiso   1.00
H313   H     0.89873   0.06857   0.34131   0.00000  Uiso   1.00
O314   O     0.09700   0.43038   0.41616   0.00000  Uiso   1.00
O315   O     0.51727   0.62237   0.55216   0.00000  Uiso   1.00
O316   O     0.06755   0.19105   0.36002   0.00000  Uiso   1.00
N317   N     0.25623   0.38196   0.44445   0.00000  Uiso   1.00
N318   N     0.55569   0.80615   0.54138   0.00000  Uiso   1.00
N319   N     0.94784   0.21137   0.40446   0.00000  Uiso   1.00
N320   N     0.20429   0.27822   0.40314   0.00000  Uiso   1.00
N321   N     0.50375   0.70241   0.50007   0.00000  Uiso   1.00
N322   N     0.89589   0.10763   0.36315   0.00000  Uiso   1.00
C323   C     0.40885   0.85766   0.96705   0.00000  Uiso   1.00
C324   C     0.51384   0.81696   0.95073   0.00000  Uiso   1.00
C325   C     0.57318   0.72497   0.96001   0.00000  Uiso   1.00
C326   C     0.66700   0.70155   0.94196   0.00000  Uiso   1.00
C327   C     0.82501   0.62831   0.92063   0.00000  Uiso   1.00
C328   C     0.43132   0.97566   0.97744   0.00000  Uiso   1.00
C329   C     0.42128   0.01710   0.00919   0.00000  Uiso   1.00
C330   C     0.44562   0.12727   0.01362   0.00000  Uiso   1.00
C331   C     0.47544   0.30043   0.03376   0.00000  Uiso   1.00
C332   C     0.32326   0.86397   0.93970   0.00000  Uiso   1.00
C333   C     0.22233   0.81151   0.93972   0.00000  Uiso   1.00
C334   C     0.15568   0.82768   0.91239   0.00000  Uiso   1.00
C335   C     0.01771   0.82741   0.87394   0.00000  Uiso   1.00
C336   C     0.46993   0.97966   0.91847   0.00000  Uiso   1.00
C337   C     0.54701   0.88323   0.92434   0.00000  Uiso   1.00
C338   C     0.64077   0.85994   0.90626   0.00000  Uiso   1.00
C339   C     0.70024   0.76793   0.91552   0.00000  Uiso   1.00
C340   C     0.46450   0.04192   0.95106   0.00000  Uiso   1.00
C341   C     0.48886   0.15207   0.95544   0.00000  Uiso   1.00
C342   C     0.47886   0.19366   0.98719   0.00000  Uiso   1.00
C343   C     0.35644   0.93023   0.91332   0.00000  Uiso   1.00
C344   C     0.28992   0.94648   0.88598   0.00000  Uiso   1.00
C345   C     0.18892   0.89406   0.88595   0.00000  Uiso   1.00
H346   H     0.38302   0.80608   0.98760   0.00000  Uiso   1.00
H347   H     0.54749   0.67372   0.98043   0.00000  Uiso   1.00
H348   H     0.39559   0.96580   0.02960   0.00000  Uiso   1.00
H349   H     0.19669   0.76024   0.96015   0.00000  Uiso   1.00
H350   H     0.74448   0.55622   0.96087   0.00000  Uiso   1.00
H351   H     0.42416   0.17210   0.06453   0.00000  Uiso   1.00
H352   H     0.00473   0.73864   0.91808   0.00000  Uiso   1.00
H353   H     0.49576   0.03125   0.89793   0.00000  Uiso   1.00
H354   H     0.66642   0.91124   0.88585   0.00000  Uiso   1.00
H355   H     0.51453   0.20332   0.93502   0.00000  Uiso   1.00
H356   H     0.31562   0.99777   0.86556   0.00000  Uiso   1.00
H357   H     0.84102   0.74900   0.88410   0.00000  Uiso   1.00
H358   H     0.52069   0.36488   0.98777   0.00000  Uiso   1.00
H359   H     0.10127   0.93143   0.84131   0.00000  Uiso   1.00
O360   O     0.90300   0.56962   0.91616   0.00000  Uiso   1.00
O361   O     0.48273   0.37763   0.05216   0.00000  Uiso   1.00
O362   O     0.93245   0.80895   0.86002   0.00000  Uiso   1.00
N363   N     0.74377   0.61804   0.94445   0.00000  Uiso   1.00
N364   N     0.44431   0.19385   0.04138   0.00000  Uiso   1.00
N365   N     0.05216   0.78863   0.90446   0.00000  Uiso   1.00
N366   N     0.79571   0.72178   0.90314   0.00000  Uiso   1.00
N367   N     0.49625   0.29759   0.00007   0.00000  Uiso   1.00
N368   N     0.10411   0.89237   0.86315   0.00000  Uiso   1.00
