data_job_01765
_audit_creation_date              2018-12-19
_audit_creation_method            'Materials Studio'
_symmetry_space_group_name_H-M    'P1'
_symmetry_Int_Tables_number       1
_symmetry_cell_setting            triclinic
loop_
_symmetry_equiv_pos_as_xyz
  x,y,z
_cell_length_a                    20.0769
_cell_length_b                    23.2604
_cell_length_c                    21.7085
_cell_angle_alpha                 90.0000
_cell_angle_beta                  90.0000
_cell_angle_gamma                 90.0000
loop_
_atom_site_label
_atom_site_type_symbol
_atom_site_fract_x
_atom_site_fract_y
_atom_site_fract_z
_atom_site_U_iso_or_equiv
_atom_site_adp_type
_atom_site_occupancy
C1     C     0.30595   0.11260   0.14394   0.00000  Uiso   1.00
C2     C     0.34239   0.05885   0.16587   0.00000  Uiso   1.00
C3     C     0.31496   0.01497   0.20099   0.00000  Uiso   1.00
C4     C     0.35654   0.96948   0.21634   0.00000  Uiso   1.00
C5     C     0.40301   0.88626   0.25333   0.00000  Uiso   1.00
C6     C     0.34623   0.16352   0.16780   0.00000  Uiso   1.00
C7     C     0.32203   0.20765   0.20454   0.00000  Uiso   1.00
C8     C     0.36683   0.25027   0.22151   0.00000  Uiso   1.00
C9     C     0.41925   0.32958   0.26146   0.00000  Uiso   1.00
C10    C     0.31324   0.11353   0.07403   0.00000  Uiso   1.00
C11    C     0.26129   0.11565   0.03191   0.00000  Uiso   1.00
C12    C     0.27832   0.11620   0.96992   0.00000  Uiso   1.00
C13    C     0.27951   0.11790   0.86427   0.00000  Uiso   1.00
C14    C     0.42856   0.10982   0.10874   0.00000  Uiso   1.00
C15    C     0.40899   0.05734   0.14675   0.00000  Uiso   1.00
C16    C     0.45062   0.01190   0.16205   0.00000  Uiso   1.00
C17    C     0.42326   0.96796   0.19718   0.00000  Uiso   1.00
C18    C     0.41283   0.16201   0.14869   0.00000  Uiso   1.00
C19    C     0.45768   0.20458   0.16560   0.00000  Uiso   1.00
C20    C     0.43355   0.24876   0.20236   0.00000  Uiso   1.00
C21    C     0.37984   0.11202   0.05491   0.00000  Uiso   1.00
C22    C     0.39695   0.11257   0.99297   0.00000  Uiso   1.00
C23    C     0.34504   0.11469   0.95077   0.00000  Uiso   1.00
H24    H     0.25410   0.11378   0.15882   0.00000  Uiso   1.00
H25    H     0.26342   0.01616   0.21578   0.00000  Uiso   1.00
H26    H     0.27049   0.20881   0.21932   0.00000  Uiso   1.00
H27    H     0.20976   0.11682   0.04672   0.00000  Uiso   1.00
H28    H     0.30314   0.90728   0.27051   0.00000  Uiso   1.00
H29    H     0.31802   0.31351   0.27797   0.00000  Uiso   1.00
H30    H     0.18997   0.11953   0.91400   0.00000  Uiso   1.00
H31    H     0.48041   0.10864   0.09386   0.00000  Uiso   1.00
H32    H     0.50216   0.01074   0.14725   0.00000  Uiso   1.00
H33    H     0.50921   0.20339   0.15080   0.00000  Uiso   1.00
H34    H     0.44849   0.11140   0.97820   0.00000  Uiso   1.00
H35    H     0.49690   0.90288   0.21490   0.00000  Uiso   1.00
H36    H     0.51178   0.30911   0.22235   0.00000  Uiso   1.00
H37    H     0.38374   0.11513   0.85839   0.00000  Uiso   1.00
O38    O     0.41025   0.84078   0.27902   0.00000  Uiso   1.00
O39    O     0.42977   0.37374   0.28879   0.00000  Uiso   1.00
O40    O     0.26177   0.11924   0.81128   0.00000  Uiso   1.00
N41    N     0.34575   0.91967   0.25009   0.00000  Uiso   1.00
N42    N     0.35967   0.29947   0.25707   0.00000  Uiso   1.00
N43    N     0.23995   0.11813   0.91679   0.00000  Uiso   1.00
N44    N     0.45002   0.91730   0.22016   0.00000  Uiso   1.00
N45    N     0.46393   0.29710   0.22714   0.00000  Uiso   1.00
N46    N     0.34422   0.11576   0.88686   0.00000  Uiso   1.00
C47    C     0.19405   0.88740   0.64394   0.00000  Uiso   1.00
C48    C     0.15761   0.94115   0.66587   0.00000  Uiso   1.00
C49    C     0.18504   0.98503   0.70099   0.00000  Uiso   1.00
C50    C     0.14346   0.03052   0.71634   0.00000  Uiso   1.00
C51    C     0.09699   0.11374   0.75333   0.00000  Uiso   1.00
C52    C     0.15377   0.83648   0.66780   0.00000  Uiso   1.00
C53    C     0.17797   0.79235   0.70454   0.00000  Uiso   1.00
C54    C     0.13317   0.74973   0.72151   0.00000  Uiso   1.00
C55    C     0.08075   0.67042   0.76146   0.00000  Uiso   1.00
C56    C     0.18676   0.88647   0.57403   0.00000  Uiso   1.00
C57    C     0.23871   0.88435   0.53191   0.00000  Uiso   1.00
C58    C     0.22168   0.88380   0.46992   0.00000  Uiso   1.00
C59    C     0.22049   0.88210   0.36427   0.00000  Uiso   1.00
C60    C     0.07144   0.89018   0.60874   0.00000  Uiso   1.00
C61    C     0.09101   0.94266   0.64675   0.00000  Uiso   1.00
C62    C     0.04938   0.98810   0.66205   0.00000  Uiso   1.00
C63    C     0.07674   0.03204   0.69718   0.00000  Uiso   1.00
C64    C     0.08717   0.83799   0.64869   0.00000  Uiso   1.00
C65    C     0.04232   0.79542   0.66560   0.00000  Uiso   1.00
C66    C     0.06645   0.75124   0.70236   0.00000  Uiso   1.00
C67    C     0.12016   0.88798   0.55491   0.00000  Uiso   1.00
C68    C     0.10305   0.88743   0.49297   0.00000  Uiso   1.00
C69    C     0.15496   0.88531   0.45077   0.00000  Uiso   1.00
H70    H     0.24590   0.88622   0.65882   0.00000  Uiso   1.00
H71    H     0.23658   0.98384   0.71578   0.00000  Uiso   1.00
H72    H     0.22951   0.79119   0.71932   0.00000  Uiso   1.00
H73    H     0.29024   0.88318   0.54672   0.00000  Uiso   1.00
H74    H     0.19686   0.09272   0.77051   0.00000  Uiso   1.00
H75    H     0.18198   0.68649   0.77797   0.00000  Uiso   1.00
H76    H     0.31003   0.88047   0.41400   0.00000  Uiso   1.00
H77    H     0.01959   0.89136   0.59386   0.00000  Uiso   1.00
H78    H     0.99784   0.98926   0.64725   0.00000  Uiso   1.00
H79    H     0.99079   0.79661   0.65080   0.00000  Uiso   1.00
H80    H     0.05151   0.88860   0.47820   0.00000  Uiso   1.00
H81    H     0.00310   0.09712   0.71490   0.00000  Uiso   1.00
H82    H     0.98822   0.69089   0.72235   0.00000  Uiso   1.00
H83    H     0.11626   0.88487   0.35839   0.00000  Uiso   1.00
O84    O     0.08975   0.15922   0.77902   0.00000  Uiso   1.00
O85    O     0.07023   0.62626   0.78879   0.00000  Uiso   1.00
O86    O     0.23823   0.88076   0.31128   0.00000  Uiso   1.00
N87    N     0.15425   0.08033   0.75009   0.00000  Uiso   1.00
N88    N     0.14033   0.70053   0.75707   0.00000  Uiso   1.00
N89    N     0.26005   0.88187   0.41679   0.00000  Uiso   1.00
N90    N     0.04998   0.08270   0.72016   0.00000  Uiso   1.00
N91    N     0.03607   0.70290   0.72714   0.00000  Uiso   1.00
N92    N     0.15578   0.88424   0.38686   0.00000  Uiso   1.00
C93    C     0.69405   0.61260   0.35606   0.00000  Uiso   1.00
C94    C     0.65761   0.55885   0.33413   0.00000  Uiso   1.00
C95    C     0.68504   0.51497   0.29901   0.00000  Uiso   1.00
C96    C     0.64346   0.46948   0.28366   0.00000  Uiso   1.00
C97    C     0.59699   0.38626   0.24667   0.00000  Uiso   1.00
C98    C     0.65377   0.66352   0.33220   0.00000  Uiso   1.00
C99    C     0.67797   0.70765   0.29546   0.00000  Uiso   1.00
C100   C     0.63317   0.75027   0.27849   0.00000  Uiso   1.00
C101   C     0.58075   0.82958   0.23854   0.00000  Uiso   1.00
C102   C     0.68676   0.61353   0.42597   0.00000  Uiso   1.00
C103   C     0.73871   0.61565   0.46809   0.00000  Uiso   1.00
C104   C     0.72168   0.61620   0.53008   0.00000  Uiso   1.00
C105   C     0.72049   0.61790   0.63573   0.00000  Uiso   1.00
C106   C     0.57144   0.60982   0.39126   0.00000  Uiso   1.00
C107   C     0.59101   0.55734   0.35325   0.00000  Uiso   1.00
C108   C     0.54938   0.51190   0.33795   0.00000  Uiso   1.00
C109   C     0.57674   0.46796   0.30282   0.00000  Uiso   1.00
C110   C     0.58717   0.66201   0.35131   0.00000  Uiso   1.00
C111   C     0.54232   0.70458   0.33440   0.00000  Uiso   1.00
C112   C     0.56645   0.74876   0.29764   0.00000  Uiso   1.00
C113   C     0.62016   0.61202   0.44509   0.00000  Uiso   1.00
C114   C     0.60305   0.61257   0.50703   0.00000  Uiso   1.00
C115   C     0.65496   0.61469   0.54923   0.00000  Uiso   1.00
H116   H     0.74590   0.61378   0.34118   0.00000  Uiso   1.00
H117   H     0.73658   0.51616   0.28422   0.00000  Uiso   1.00
H118   H     0.72951   0.70881   0.28068   0.00000  Uiso   1.00
H119   H     0.79024   0.61682   0.45328   0.00000  Uiso   1.00
H120   H     0.69686   0.40728   0.22949   0.00000  Uiso   1.00
H121   H     0.68198   0.81351   0.22203   0.00000  Uiso   1.00
H122   H     0.81003   0.61953   0.58600   0.00000  Uiso   1.00
H123   H     0.51959   0.60864   0.40614   0.00000  Uiso   1.00
H124   H     0.49784   0.51074   0.35275   0.00000  Uiso   1.00
H125   H     0.49079   0.70339   0.34920   0.00000  Uiso   1.00
H126   H     0.55151   0.61140   0.52180   0.00000  Uiso   1.00
H127   H     0.50310   0.40288   0.28510   0.00000  Uiso   1.00
H128   H     0.48822   0.80911   0.27765   0.00000  Uiso   1.00
H129   H     0.61626   0.61513   0.64161   0.00000  Uiso   1.00
O130   O     0.58975   0.34078   0.22098   0.00000  Uiso   1.00
O131   O     0.57023   0.87374   0.21121   0.00000  Uiso   1.00
O132   O     0.73823   0.61924   0.68872   0.00000  Uiso   1.00
N133   N     0.65425   0.41967   0.24991   0.00000  Uiso   1.00
N134   N     0.64033   0.79947   0.24293   0.00000  Uiso   1.00
N135   N     0.76005   0.61813   0.58321   0.00000  Uiso   1.00
N136   N     0.54998   0.41730   0.27984   0.00000  Uiso   1.00
N137   N     0.53607   0.79710   0.27286   0.00000  Uiso   1.00
N138   N     0.65578   0.61576   0.61314   0.00000  Uiso   1.00
C139   C     0.80595   0.38740   0.85606   0.00000  Uiso   1.00
C140   C     0.84239   0.44115   0.83413   0.00000  Uiso   1.00
C141   C     0.81496   0.48503   0.79901   0.00000  Uiso   1.00
C142   C     0.85654   0.53052   0.78366   0.00000  Uiso   1.00
C143   C     0.90301   0.61374   0.74667   0.00000  Uiso   1.00
C144   C     0.84623   0.33648   0.83220   0.00000  Uiso   1.00
C145   C     0.82203   0.29235   0.79546   0.00000  Uiso   1.00
C146   C     0.86683   0.24973   0.77849   0.00000  Uiso   1.00
C147   C     0.91925   0.17042   0.73854   0.00000  Uiso   1.00
C148   C     0.81324   0.38647   0.92597   0.00000  Uiso   1.00
C149   C     0.76129   0.38435   0.96809   0.00000  Uiso   1.00
C150   C     0.77832   0.38380   0.03008   0.00000  Uiso   1.00
C151   C     0.77951   0.38210   0.13573   0.00000  Uiso   1.00
C152   C     0.92856   0.39018   0.89126   0.00000  Uiso   1.00
C153   C     0.90899   0.44266   0.85325   0.00000  Uiso   1.00
C154   C     0.95062   0.48810   0.83795   0.00000  Uiso   1.00
C155   C     0.92326   0.53204   0.80282   0.00000  Uiso   1.00
C156   C     0.91283   0.33799   0.85131   0.00000  Uiso   1.00
C157   C     0.95768   0.29542   0.83440   0.00000  Uiso   1.00
C158   C     0.93355   0.25124   0.79764   0.00000  Uiso   1.00
C159   C     0.87984   0.38798   0.94509   0.00000  Uiso   1.00
C160   C     0.89695   0.38743   0.00703   0.00000  Uiso   1.00
C161   C     0.84504   0.38531   0.04923   0.00000  Uiso   1.00
H162   H     0.75410   0.38622   0.84118   0.00000  Uiso   1.00
H163   H     0.76342   0.48384   0.78422   0.00000  Uiso   1.00
H164   H     0.77049   0.29119   0.78068   0.00000  Uiso   1.00
H165   H     0.70976   0.38318   0.95328   0.00000  Uiso   1.00
H166   H     0.80314   0.59272   0.72949   0.00000  Uiso   1.00
H167   H     0.81802   0.18649   0.72203   0.00000  Uiso   1.00
H168   H     0.68997   0.38047   0.08600   0.00000  Uiso   1.00
H169   H     0.98041   0.39136   0.90614   0.00000  Uiso   1.00
H170   H     0.00216   0.48926   0.85275   0.00000  Uiso   1.00
H171   H     0.00921   0.29661   0.84920   0.00000  Uiso   1.00
H172   H     0.94849   0.38860   0.02180   0.00000  Uiso   1.00
H173   H     0.99690   0.59712   0.78510   0.00000  Uiso   1.00
H174   H     0.01178   0.19089   0.77765   0.00000  Uiso   1.00
H175   H     0.88374   0.38487   0.14161   0.00000  Uiso   1.00
O176   O     0.91025   0.65922   0.72098   0.00000  Uiso   1.00
O177   O     0.92977   0.12626   0.71121   0.00000  Uiso   1.00
O178   O     0.76177   0.38076   0.18872   0.00000  Uiso   1.00
N179   N     0.84575   0.58033   0.74991   0.00000  Uiso   1.00
N180   N     0.85967   0.20053   0.74293   0.00000  Uiso   1.00
N181   N     0.73995   0.38187   0.08321   0.00000  Uiso   1.00
N182   N     0.95002   0.58270   0.77984   0.00000  Uiso   1.00
N183   N     0.96393   0.20290   0.77286   0.00000  Uiso   1.00
N184   N     0.84422   0.38424   0.11314   0.00000  Uiso   1.00
C185   C     0.69405   0.88740   0.85606   0.00000  Uiso   1.00
C186   C     0.65761   0.94115   0.83413   0.00000  Uiso   1.00
C187   C     0.68504   0.98503   0.79901   0.00000  Uiso   1.00
C188   C     0.64346   0.03052   0.78366   0.00000  Uiso   1.00
C189   C     0.59699   0.11374   0.74667   0.00000  Uiso   1.00
C190   C     0.65377   0.83648   0.83220   0.00000  Uiso   1.00
C191   C     0.67797   0.79235   0.79546   0.00000  Uiso   1.00
C192   C     0.63317   0.74973   0.77849   0.00000  Uiso   1.00
C193   C     0.58075   0.67042   0.73854   0.00000  Uiso   1.00
C194   C     0.68676   0.88647   0.92597   0.00000  Uiso   1.00
C195   C     0.73871   0.88435   0.96809   0.00000  Uiso   1.00
C196   C     0.72168   0.88380   0.03008   0.00000  Uiso   1.00
C197   C     0.72049   0.88210   0.13573   0.00000  Uiso   1.00
C198   C     0.57144   0.89018   0.89126   0.00000  Uiso   1.00
C199   C     0.59101   0.94266   0.85325   0.00000  Uiso   1.00
C200   C     0.54938   0.98810   0.83795   0.00000  Uiso   1.00
C201   C     0.57674   0.03204   0.80282   0.00000  Uiso   1.00
C202   C     0.58717   0.83799   0.85131   0.00000  Uiso   1.00
C203   C     0.54232   0.79542   0.83440   0.00000  Uiso   1.00
C204   C     0.56645   0.75124   0.79764   0.00000  Uiso   1.00
C205   C     0.62016   0.88798   0.94509   0.00000  Uiso   1.00
C206   C     0.60305   0.88743   0.00703   0.00000  Uiso   1.00
C207   C     0.65496   0.88531   0.04923   0.00000  Uiso   1.00
H208   H     0.74590   0.88622   0.84118   0.00000  Uiso   1.00
H209   H     0.73658   0.98384   0.78422   0.00000  Uiso   1.00
H210   H     0.72951   0.79119   0.78068   0.00000  Uiso   1.00
H211   H     0.79024   0.88318   0.95328   0.00000  Uiso   1.00
H212   H     0.69686   0.09272   0.72949   0.00000  Uiso   1.00
H213   H     0.68198   0.68649   0.72203   0.00000  Uiso   1.00
H214   H     0.81003   0.88047   0.08600   0.00000  Uiso   1.00
H215   H     0.51959   0.89136   0.90614   0.00000  Uiso   1.00
H216   H     0.49784   0.98926   0.85275   0.00000  Uiso   1.00
H217   H     0.49079   0.79661   0.84920   0.00000  Uiso   1.00
H218   H     0.55151   0.88860   0.02180   0.00000  Uiso   1.00
H219   H     0.50310   0.09712   0.78510   0.00000  Uiso   1.00
H220   H     0.48822   0.69089   0.77765   0.00000  Uiso   1.00
H221   H     0.61626   0.88487   0.14161   0.00000  Uiso   1.00
O222   O     0.58975   0.15922   0.72098   0.00000  Uiso   1.00
O223   O     0.57023   0.62626   0.71121   0.00000  Uiso   1.00
O224   O     0.73823   0.88076   0.18872   0.00000  Uiso   1.00
N225   N     0.65425   0.08033   0.74991   0.00000  Uiso   1.00
N226   N     0.64033   0.70053   0.74293   0.00000  Uiso   1.00
N227   N     0.76005   0.88187   0.08321   0.00000  Uiso   1.00
N228   N     0.54998   0.08270   0.77984   0.00000  Uiso   1.00
N229   N     0.53607   0.70290   0.77286   0.00000  Uiso   1.00
N230   N     0.65578   0.88424   0.11314   0.00000  Uiso   1.00
C231   C     0.80595   0.11260   0.35606   0.00000  Uiso   1.00
C232   C     0.84239   0.05885   0.33413   0.00000  Uiso   1.00
C233   C     0.81496   0.01497   0.29901   0.00000  Uiso   1.00
C234   C     0.85654   0.96948   0.28366   0.00000  Uiso   1.00
C235   C     0.90301   0.88626   0.24667   0.00000  Uiso   1.00
C236   C     0.84623   0.16352   0.33220   0.00000  Uiso   1.00
C237   C     0.82203   0.20765   0.29546   0.00000  Uiso   1.00
C238   C     0.86683   0.25027   0.27849   0.00000  Uiso   1.00
C239   C     0.91925   0.32958   0.23854   0.00000  Uiso   1.00
C240   C     0.81324   0.11353   0.42597   0.00000  Uiso   1.00
C241   C     0.76129   0.11565   0.46809   0.00000  Uiso   1.00
C242   C     0.77832   0.11620   0.53008   0.00000  Uiso   1.00
C243   C     0.77951   0.11790   0.63573   0.00000  Uiso   1.00
C244   C     0.92856   0.10982   0.39126   0.00000  Uiso   1.00
C245   C     0.90899   0.05734   0.35325   0.00000  Uiso   1.00
C246   C     0.95062   0.01190   0.33795   0.00000  Uiso   1.00
C247   C     0.92326   0.96796   0.30282   0.00000  Uiso   1.00
C248   C     0.91283   0.16201   0.35131   0.00000  Uiso   1.00
C249   C     0.95768   0.20458   0.33440   0.00000  Uiso   1.00
C250   C     0.93355   0.24876   0.29764   0.00000  Uiso   1.00
C251   C     0.87984   0.11202   0.44509   0.00000  Uiso   1.00
C252   C     0.89695   0.11257   0.50703   0.00000  Uiso   1.00
C253   C     0.84504   0.11469   0.54923   0.00000  Uiso   1.00
H254   H     0.75410   0.11378   0.34118   0.00000  Uiso   1.00
H255   H     0.76342   0.01616   0.28422   0.00000  Uiso   1.00
H256   H     0.77049   0.20881   0.28068   0.00000  Uiso   1.00
H257   H     0.70976   0.11682   0.45328   0.00000  Uiso   1.00
H258   H     0.80314   0.90728   0.22949   0.00000  Uiso   1.00
H259   H     0.81802   0.31351   0.22203   0.00000  Uiso   1.00
H260   H     0.68997   0.11953   0.58600   0.00000  Uiso   1.00
H261   H     0.98041   0.10864   0.40614   0.00000  Uiso   1.00
H262   H     0.00216   0.01074   0.35275   0.00000  Uiso   1.00
H263   H     0.00921   0.20339   0.34920   0.00000  Uiso   1.00
H264   H     0.94849   0.11140   0.52180   0.00000  Uiso   1.00
H265   H     0.99690   0.90288   0.28510   0.00000  Uiso   1.00
H266   H     0.01178   0.30911   0.27765   0.00000  Uiso   1.00
H267   H     0.88374   0.11513   0.64161   0.00000  Uiso   1.00
O268   O     0.91025   0.84078   0.22098   0.00000  Uiso   1.00
O269   O     0.92977   0.37374   0.21121   0.00000  Uiso   1.00
O270   O     0.76177   0.11924   0.68872   0.00000  Uiso   1.00
N271   N     0.84575   0.91967   0.24991   0.00000  Uiso   1.00
N272   N     0.85967   0.29947   0.24293   0.00000  Uiso   1.00
N273   N     0.73995   0.11813   0.58321   0.00000  Uiso   1.00
N274   N     0.95002   0.91730   0.27984   0.00000  Uiso   1.00
N275   N     0.96393   0.29710   0.27286   0.00000  Uiso   1.00
N276   N     0.84422   0.11576   0.61314   0.00000  Uiso   1.00
C277   C     0.30595   0.38740   0.64394   0.00000  Uiso   1.00
C278   C     0.34239   0.44115   0.66587   0.00000  Uiso   1.00
C279   C     0.31496   0.48503   0.70099   0.00000  Uiso   1.00
C280   C     0.35654   0.53052   0.71634   0.00000  Uiso   1.00
C281   C     0.40301   0.61374   0.75333   0.00000  Uiso   1.00
C282   C     0.34623   0.33648   0.66780   0.00000  Uiso   1.00
C283   C     0.32203   0.29235   0.70454   0.00000  Uiso   1.00
C284   C     0.36683   0.24973   0.72151   0.00000  Uiso   1.00
C285   C     0.41925   0.17042   0.76146   0.00000  Uiso   1.00
C286   C     0.31324   0.38647   0.57403   0.00000  Uiso   1.00
C287   C     0.26129   0.38435   0.53191   0.00000  Uiso   1.00
C288   C     0.27832   0.38380   0.46992   0.00000  Uiso   1.00
C289   C     0.27951   0.38210   0.36427   0.00000  Uiso   1.00
C290   C     0.42856   0.39018   0.60874   0.00000  Uiso   1.00
C291   C     0.40899   0.44266   0.64675   0.00000  Uiso   1.00
C292   C     0.45062   0.48810   0.66205   0.00000  Uiso   1.00
C293   C     0.42326   0.53204   0.69718   0.00000  Uiso   1.00
C294   C     0.41283   0.33799   0.64869   0.00000  Uiso   1.00
C295   C     0.45768   0.29542   0.66560   0.00000  Uiso   1.00
C296   C     0.43355   0.25124   0.70236   0.00000  Uiso   1.00
C297   C     0.37984   0.38798   0.55491   0.00000  Uiso   1.00
C298   C     0.39695   0.38743   0.49297   0.00000  Uiso   1.00
C299   C     0.34504   0.38531   0.45077   0.00000  Uiso   1.00
H300   H     0.25410   0.38622   0.65882   0.00000  Uiso   1.00
H301   H     0.26342   0.48384   0.71578   0.00000  Uiso   1.00
H302   H     0.27049   0.29119   0.71932   0.00000  Uiso   1.00
H303   H     0.20976   0.38318   0.54672   0.00000  Uiso   1.00
H304   H     0.30314   0.59272   0.77051   0.00000  Uiso   1.00
H305   H     0.31802   0.18649   0.77797   0.00000  Uiso   1.00
H306   H     0.18997   0.38047   0.41400   0.00000  Uiso   1.00
H307   H     0.48041   0.39136   0.59386   0.00000  Uiso   1.00
H308   H     0.50216   0.48926   0.64725   0.00000  Uiso   1.00
H309   H     0.50921   0.29661   0.65080   0.00000  Uiso   1.00
H310   H     0.44849   0.38860   0.47820   0.00000  Uiso   1.00
H311   H     0.49690   0.59712   0.71490   0.00000  Uiso   1.00
H312   H     0.51178   0.19089   0.72235   0.00000  Uiso   1.00
H313   H     0.38374   0.38487   0.35839   0.00000  Uiso   1.00
O314   O     0.41025   0.65922   0.77902   0.00000  Uiso   1.00
O315   O     0.42977   0.12626   0.78879   0.00000  Uiso   1.00
O316   O     0.26177   0.38076   0.31128   0.00000  Uiso   1.00
N317   N     0.34575   0.58033   0.75009   0.00000  Uiso   1.00
N318   N     0.35967   0.20053   0.75707   0.00000  Uiso   1.00
N319   N     0.23995   0.38187   0.41679   0.00000  Uiso   1.00
N320   N     0.45002   0.58270   0.72016   0.00000  Uiso   1.00
N321   N     0.46393   0.20290   0.72714   0.00000  Uiso   1.00
N322   N     0.34422   0.38424   0.38686   0.00000  Uiso   1.00
C323   C     0.19405   0.61260   0.14394   0.00000  Uiso   1.00
C324   C     0.15761   0.55885   0.16587   0.00000  Uiso   1.00
C325   C     0.18504   0.51497   0.20099   0.00000  Uiso   1.00
C326   C     0.14346   0.46948   0.21634   0.00000  Uiso   1.00
C327   C     0.09699   0.38626   0.25333   0.00000  Uiso   1.00
C328   C     0.15377   0.66352   0.16780   0.00000  Uiso   1.00
C329   C     0.17797   0.70765   0.20454   0.00000  Uiso   1.00
C330   C     0.13317   0.75027   0.22151   0.00000  Uiso   1.00
C331   C     0.08075   0.82958   0.26146   0.00000  Uiso   1.00
C332   C     0.18676   0.61353   0.07403   0.00000  Uiso   1.00
C333   C     0.23871   0.61565   0.03191   0.00000  Uiso   1.00
C334   C     0.22168   0.61620   0.96992   0.00000  Uiso   1.00
C335   C     0.22049   0.61790   0.86427   0.00000  Uiso   1.00
C336   C     0.07144   0.60982   0.10874   0.00000  Uiso   1.00
C337   C     0.09101   0.55734   0.14675   0.00000  Uiso   1.00
C338   C     0.04938   0.51190   0.16205   0.00000  Uiso   1.00
C339   C     0.07674   0.46796   0.19718   0.00000  Uiso   1.00
C340   C     0.08717   0.66201   0.14869   0.00000  Uiso   1.00
C341   C     0.04232   0.70458   0.16560   0.00000  Uiso   1.00
C342   C     0.06645   0.74876   0.20236   0.00000  Uiso   1.00
C343   C     0.12016   0.61202   0.05491   0.00000  Uiso   1.00
C344   C     0.10305   0.61257   0.99297   0.00000  Uiso   1.00
C345   C     0.15496   0.61469   0.95077   0.00000  Uiso   1.00
H346   H     0.24590   0.61378   0.15882   0.00000  Uiso   1.00
H347   H     0.23658   0.51616   0.21578   0.00000  Uiso   1.00
H348   H     0.22951   0.70881   0.21932   0.00000  Uiso   1.00
H349   H     0.29024   0.61682   0.04672   0.00000  Uiso   1.00
H350   H     0.19686   0.40728   0.27051   0.00000  Uiso   1.00
H351   H     0.18198   0.81351   0.27797   0.00000  Uiso   1.00
H352   H     0.31003   0.61953   0.91400   0.00000  Uiso   1.00
H353   H     0.01959   0.60864   0.09386   0.00000  Uiso   1.00
H354   H     0.99784   0.51074   0.14725   0.00000  Uiso   1.00
H355   H     0.99079   0.70339   0.15080   0.00000  Uiso   1.00
H356   H     0.05151   0.61140   0.97820   0.00000  Uiso   1.00
H357   H     0.00310   0.40288   0.21490   0.00000  Uiso   1.00
H358   H     0.98822   0.80911   0.22235   0.00000  Uiso   1.00
H359   H     0.11626   0.61513   0.85839   0.00000  Uiso   1.00
O360   O     0.08975   0.34078   0.27902   0.00000  Uiso   1.00
O361   O     0.07023   0.87374   0.28879   0.00000  Uiso   1.00
O362   O     0.23823   0.61924   0.81128   0.00000  Uiso   1.00
N363   N     0.15425   0.41967   0.25009   0.00000  Uiso   1.00
N364   N     0.14033   0.79947   0.25707   0.00000  Uiso   1.00
N365   N     0.26005   0.61813   0.91679   0.00000  Uiso   1.00
N366   N     0.04998   0.41730   0.22016   0.00000  Uiso   1.00
N367   N     0.03607   0.79710   0.22714   0.00000  Uiso   1.00
N368   N     0.15578   0.61576   0.88686   0.00000  Uiso   1.00
