data_job_00925
_audit_creation_date              2018-12-19
_audit_creation_method            'Materials Studio'
_symmetry_space_group_name_H-M    'P1'
_symmetry_Int_Tables_number       1
_symmetry_cell_setting            triclinic
loop_
_symmetry_equiv_pos_as_xyz
  x,y,z
_cell_length_a                    21.4749
_cell_length_b                    12.3040
_cell_length_c                    18.4996
_cell_angle_alpha                 90.0000
_cell_angle_beta                  144.9135
_cell_angle_gamma                 90.0000
loop_
_atom_site_label
_atom_site_type_symbol
_atom_site_fract_x
_atom_site_fract_y
_atom_site_fract_z
_atom_site_U_iso_or_equiv
_atom_site_adp_type
_atom_site_occupancy
C1     C     0.80138   0.06627   0.98322   0.00000  Uiso   1.00
C2     C     0.78062   0.99108   0.89946   0.00000  Uiso   1.00
C3     C     0.84046   0.89921   0.93899   0.00000  Uiso   1.00
C4     C     0.80852   0.84129   0.84787   0.00000  Uiso   1.00
C5     C     0.78980   0.71957   0.73700   0.00000  Uiso   1.00
C6     C     0.81578   0.17975   0.96519   0.00000  Uiso   1.00
C7     C     0.90517   0.24653   0.05999   0.00000  Uiso   1.00
C8     C     0.90280   0.34744   0.02419   0.00000  Uiso   1.00
C9     C     0.93863   0.51867   0.01538   0.00000  Uiso   1.00
C10    C     0.69593   0.06944   0.92594   0.00000  Uiso   1.00
C11    C     0.68455   0.04349   0.98775   0.00000  Uiso   1.00
C12    C     0.58128   0.05156   0.91891   0.00000  Uiso   1.00
C13    C     0.43103   0.05152   0.84915   0.00000  Uiso   1.00
C14    C     0.63821   0.12676   0.75108   0.00000  Uiso   1.00
C15    C     0.69200   0.02394   0.77337   0.00000  Uiso   1.00
C16    C     0.65994   0.96614   0.68216   0.00000  Uiso   1.00
C17    C     0.71973   0.87420   0.72155   0.00000  Uiso   1.00
C18    C     0.72716   0.21261   0.83911   0.00000  Uiso   1.00
C19    C     0.72465   0.31345   0.80316   0.00000  Uiso   1.00
C20    C     0.81402   0.38036   0.89788   0.00000  Uiso   1.00
C21    C     0.60730   0.10230   0.79985   0.00000  Uiso   1.00
C22    C     0.50403   0.11042   0.73091   0.00000  Uiso   1.00
C23    C     0.49250   0.08448   0.79259   0.00000  Uiso   1.00
H24    H     0.87038   0.04070   0.08139   0.00000  Uiso   1.00
H25    H     0.90905   0.87381   0.03658   0.00000  Uiso   1.00
H26    H     0.97374   0.22108   0.15756   0.00000  Uiso   1.00
H27    H     0.75315   0.01807   0.08532   0.00000  Uiso   1.00
H28    H     0.91287   0.70331   0.93131   0.00000  Uiso   1.00
H29    H     0.04925   0.43555   0.18640   0.00000  Uiso   1.00
H30    H     0.58410   0.00747   0.03407   0.00000  Uiso   1.00
H31    H     0.56921   0.15235   0.65292   0.00000  Uiso   1.00
H32    H     0.59136   0.99159   0.58459   0.00000  Uiso   1.00
H33    H     0.65605   0.33886   0.70557   0.00000  Uiso   1.00
H34    H     0.43547   0.13585   0.63333   0.00000  Uiso   1.00
H35    H     0.65503   0.79890   0.56446   0.00000  Uiso   1.00
H36    H     0.79141   0.53115   0.81955   0.00000  Uiso   1.00
H37    H     0.32626   0.10306   0.66722   0.00000  Uiso   1.00
O38    O     0.80397   0.64336   0.71068   0.00000  Uiso   1.00
O39    O     0.98289   0.60404   0.04535   0.00000  Uiso   1.00
O40    O     0.37263   0.04240   0.84550   0.00000  Uiso   1.00
N41    N     0.84913   0.74786   0.85434   0.00000  Uiso   1.00
N42    N     0.97665   0.43245   0.09284   0.00000  Uiso   1.00
N43    N     0.54178   0.03226   0.95043   0.00000  Uiso   1.00
N44    N     0.71039   0.79929   0.65694   0.00000  Uiso   1.00
N45    N     0.83790   0.48389   0.89544   0.00000  Uiso   1.00
N46    N     0.40304   0.08370   0.75303   0.00000  Uiso   1.00
C47    C     0.19862   0.56627   0.51678   0.00000  Uiso   1.00
C48    C     0.21938   0.49108   0.60054   0.00000  Uiso   1.00
C49    C     0.15954   0.39921   0.56101   0.00000  Uiso   1.00
C50    C     0.19148   0.34129   0.65213   0.00000  Uiso   1.00
C51    C     0.21020   0.21957   0.76300   0.00000  Uiso   1.00
C52    C     0.18422   0.67975   0.53481   0.00000  Uiso   1.00
C53    C     0.09483   0.74653   0.44001   0.00000  Uiso   1.00
C54    C     0.09720   0.84744   0.47581   0.00000  Uiso   1.00
C55    C     0.06137   0.01867   0.48462   0.00000  Uiso   1.00
C56    C     0.30407   0.56944   0.57406   0.00000  Uiso   1.00
C57    C     0.31545   0.54349   0.51225   0.00000  Uiso   1.00
C58    C     0.41872   0.55156   0.58109   0.00000  Uiso   1.00
C59    C     0.56897   0.55152   0.65085   0.00000  Uiso   1.00
C60    C     0.36179   0.62676   0.74892   0.00000  Uiso   1.00
C61    C     0.30800   0.52394   0.72663   0.00000  Uiso   1.00
C62    C     0.34006   0.46614   0.81784   0.00000  Uiso   1.00
C63    C     0.28027   0.37420   0.77845   0.00000  Uiso   1.00
C64    C     0.27284   0.71261   0.66089   0.00000  Uiso   1.00
C65    C     0.27535   0.81345   0.69684   0.00000  Uiso   1.00
C66    C     0.18598   0.88036   0.60212   0.00000  Uiso   1.00
C67    C     0.39270   0.60230   0.70015   0.00000  Uiso   1.00
C68    C     0.49597   0.61042   0.76909   0.00000  Uiso   1.00
C69    C     0.50750   0.58448   0.70741   0.00000  Uiso   1.00
H70    H     0.12962   0.54070   0.41861   0.00000  Uiso   1.00
H71    H     0.09095   0.37381   0.46342   0.00000  Uiso   1.00
H72    H     0.02626   0.72108   0.34244   0.00000  Uiso   1.00
H73    H     0.24685   0.51807   0.41468   0.00000  Uiso   1.00
H74    H     0.08713   0.20331   0.56869   0.00000  Uiso   1.00
H75    H     0.95075   0.93555   0.31360   0.00000  Uiso   1.00
H76    H     0.41590   0.50747   0.46593   0.00000  Uiso   1.00
H77    H     0.43079   0.65235   0.84708   0.00000  Uiso   1.00
H78    H     0.40864   0.49159   0.91541   0.00000  Uiso   1.00
H79    H     0.34395   0.83886   0.79443   0.00000  Uiso   1.00
H80    H     0.56453   0.63585   0.86667   0.00000  Uiso   1.00
H81    H     0.34497   0.29890   0.93554   0.00000  Uiso   1.00
H82    H     0.20859   0.03115   0.68045   0.00000  Uiso   1.00
H83    H     0.67374   0.60306   0.83278   0.00000  Uiso   1.00
O84    O     0.19603   0.14336   0.78932   0.00000  Uiso   1.00
O85    O     0.01711   0.10404   0.45465   0.00000  Uiso   1.00
O86    O     0.62737   0.54240   0.65450   0.00000  Uiso   1.00
N87    N     0.15087   0.24786   0.64566   0.00000  Uiso   1.00
N88    N     0.02335   0.93245   0.40716   0.00000  Uiso   1.00
N89    N     0.45822   0.53226   0.54957   0.00000  Uiso   1.00
N90    N     0.28961   0.29929   0.84306   0.00000  Uiso   1.00
N91    N     0.16210   0.98389   0.60456   0.00000  Uiso   1.00
N92    N     0.59696   0.58370   0.74697   0.00000  Uiso   1.00
C93    C     0.19862   0.93373   0.01678   0.00000  Uiso   1.00
C94    C     0.21938   0.00892   0.10054   0.00000  Uiso   1.00
C95    C     0.15954   0.10079   0.06101   0.00000  Uiso   1.00
C96    C     0.19148   0.15871   0.15213   0.00000  Uiso   1.00
C97    C     0.21020   0.28043   0.26300   0.00000  Uiso   1.00
C98    C     0.18422   0.82025   0.03481   0.00000  Uiso   1.00
C99    C     0.09483   0.75347   0.94001   0.00000  Uiso   1.00
C100   C     0.09720   0.65256   0.97581   0.00000  Uiso   1.00
C101   C     0.06137   0.48133   0.98462   0.00000  Uiso   1.00
C102   C     0.30407   0.93056   0.07406   0.00000  Uiso   1.00
C103   C     0.31545   0.95651   0.01225   0.00000  Uiso   1.00
C104   C     0.41872   0.94844   0.08109   0.00000  Uiso   1.00
C105   C     0.56897   0.94848   0.15085   0.00000  Uiso   1.00
C106   C     0.36179   0.87324   0.24892   0.00000  Uiso   1.00
C107   C     0.30800   0.97606   0.22663   0.00000  Uiso   1.00
C108   C     0.34006   0.03386   0.31784   0.00000  Uiso   1.00
C109   C     0.28027   0.12580   0.27845   0.00000  Uiso   1.00
C110   C     0.27284   0.78739   0.16089   0.00000  Uiso   1.00
C111   C     0.27535   0.68655   0.19684   0.00000  Uiso   1.00
C112   C     0.18598   0.61964   0.10212   0.00000  Uiso   1.00
C113   C     0.39270   0.89770   0.20015   0.00000  Uiso   1.00
C114   C     0.49597   0.88958   0.26909   0.00000  Uiso   1.00
C115   C     0.50750   0.91552   0.20741   0.00000  Uiso   1.00
H116   H     0.12962   0.95930   0.91861   0.00000  Uiso   1.00
H117   H     0.09095   0.12619   0.96342   0.00000  Uiso   1.00
H118   H     0.02626   0.77892   0.84244   0.00000  Uiso   1.00
H119   H     0.24685   0.98193   0.91468   0.00000  Uiso   1.00
H120   H     0.08713   0.29669   0.06869   0.00000  Uiso   1.00
H121   H     0.95075   0.56445   0.81360   0.00000  Uiso   1.00
H122   H     0.41590   0.99253   0.96593   0.00000  Uiso   1.00
H123   H     0.43079   0.84765   0.34708   0.00000  Uiso   1.00
H124   H     0.40864   0.00841   0.41541   0.00000  Uiso   1.00
H125   H     0.34395   0.66114   0.29443   0.00000  Uiso   1.00
H126   H     0.56453   0.86415   0.36667   0.00000  Uiso   1.00
H127   H     0.34497   0.20110   0.43554   0.00000  Uiso   1.00
H128   H     0.20859   0.46885   0.18045   0.00000  Uiso   1.00
H129   H     0.67374   0.89694   0.33278   0.00000  Uiso   1.00
O130   O     0.19603   0.35664   0.28932   0.00000  Uiso   1.00
O131   O     0.01711   0.39596   0.95465   0.00000  Uiso   1.00
O132   O     0.62737   0.95760   0.15450   0.00000  Uiso   1.00
N133   N     0.15087   0.25214   0.14566   0.00000  Uiso   1.00
N134   N     0.02335   0.56755   0.90716   0.00000  Uiso   1.00
N135   N     0.45822   0.96774   0.04957   0.00000  Uiso   1.00
N136   N     0.28961   0.20071   0.34306   0.00000  Uiso   1.00
N137   N     0.16210   0.51611   0.10456   0.00000  Uiso   1.00
N138   N     0.59696   0.91630   0.24697   0.00000  Uiso   1.00
C139   C     0.80138   0.43373   0.48322   0.00000  Uiso   1.00
C140   C     0.78062   0.50892   0.39946   0.00000  Uiso   1.00
C141   C     0.84046   0.60079   0.43899   0.00000  Uiso   1.00
C142   C     0.80852   0.65871   0.34787   0.00000  Uiso   1.00
C143   C     0.78980   0.78043   0.23700   0.00000  Uiso   1.00
C144   C     0.81578   0.32025   0.46519   0.00000  Uiso   1.00
C145   C     0.90517   0.25347   0.55999   0.00000  Uiso   1.00
C146   C     0.90280   0.15256   0.52419   0.00000  Uiso   1.00
C147   C     0.93863   0.98133   0.51538   0.00000  Uiso   1.00
C148   C     0.69593   0.43056   0.42594   0.00000  Uiso   1.00
C149   C     0.68455   0.45651   0.48775   0.00000  Uiso   1.00
C150   C     0.58128   0.44844   0.41891   0.00000  Uiso   1.00
C151   C     0.43103   0.44848   0.34915   0.00000  Uiso   1.00
C152   C     0.63821   0.37324   0.25108   0.00000  Uiso   1.00
C153   C     0.69200   0.47606   0.27337   0.00000  Uiso   1.00
C154   C     0.65994   0.53386   0.18216   0.00000  Uiso   1.00
C155   C     0.71973   0.62580   0.22155   0.00000  Uiso   1.00
C156   C     0.72716   0.28739   0.33911   0.00000  Uiso   1.00
C157   C     0.72465   0.18655   0.30316   0.00000  Uiso   1.00
C158   C     0.81402   0.11964   0.39788   0.00000  Uiso   1.00
C159   C     0.60730   0.39770   0.29985   0.00000  Uiso   1.00
C160   C     0.50403   0.38958   0.23091   0.00000  Uiso   1.00
C161   C     0.49250   0.41552   0.29259   0.00000  Uiso   1.00
H162   H     0.87038   0.45930   0.58139   0.00000  Uiso   1.00
H163   H     0.90905   0.62619   0.53658   0.00000  Uiso   1.00
H164   H     0.97374   0.27892   0.65756   0.00000  Uiso   1.00
H165   H     0.75315   0.48193   0.58532   0.00000  Uiso   1.00
H166   H     0.91287   0.79669   0.43131   0.00000  Uiso   1.00
H167   H     0.04925   0.06445   0.68640   0.00000  Uiso   1.00
H168   H     0.58410   0.49253   0.53407   0.00000  Uiso   1.00
H169   H     0.56921   0.34765   0.15292   0.00000  Uiso   1.00
H170   H     0.59136   0.50841   0.08459   0.00000  Uiso   1.00
H171   H     0.65605   0.16114   0.20557   0.00000  Uiso   1.00
H172   H     0.43547   0.36415   0.13333   0.00000  Uiso   1.00
H173   H     0.65503   0.70110   0.06446   0.00000  Uiso   1.00
H174   H     0.79141   0.96885   0.31955   0.00000  Uiso   1.00
H175   H     0.32626   0.39694   0.16722   0.00000  Uiso   1.00
O176   O     0.80397   0.85664   0.21068   0.00000  Uiso   1.00
O177   O     0.98289   0.89596   0.54535   0.00000  Uiso   1.00
O178   O     0.37263   0.45760   0.34550   0.00000  Uiso   1.00
N179   N     0.84913   0.75214   0.35434   0.00000  Uiso   1.00
N180   N     0.97665   0.06755   0.59284   0.00000  Uiso   1.00
N181   N     0.54178   0.46774   0.45043   0.00000  Uiso   1.00
N182   N     0.71039   0.70071   0.15694   0.00000  Uiso   1.00
N183   N     0.83790   0.01611   0.39544   0.00000  Uiso   1.00
N184   N     0.40304   0.41630   0.25303   0.00000  Uiso   1.00
