data_job_05061
_audit_creation_date              2018-12-19
_audit_creation_method            'Materials Studio'
_symmetry_space_group_name_H-M    'P1'
_symmetry_Int_Tables_number       1
_symmetry_cell_setting            triclinic
loop_
_symmetry_equiv_pos_as_xyz
  x,y,z
_cell_length_a                    12.3385
_cell_length_b                    17.1198
_cell_length_c                    24.2042
_cell_angle_alpha                 90.0000
_cell_angle_beta                  109.2848
_cell_angle_gamma                 90.0000
loop_
_atom_site_label
_atom_site_type_symbol
_atom_site_fract_x
_atom_site_fract_y
_atom_site_fract_z
_atom_site_U_iso_or_equiv
_atom_site_adp_type
_atom_site_occupancy
C1     C     0.26075   0.94254   0.29808   0.00000  Uiso   1.00
C2     C     0.24578   0.00849   0.25383   0.00000  Uiso   1.00
C3     C     0.16535   0.01051   0.19801   0.00000  Uiso   1.00
C4     C     0.16548   0.07603   0.16424   0.00000  Uiso   1.00
C5     C     0.13045   0.16910   0.09227   0.00000  Uiso   1.00
C6     C     0.38553   0.91640   0.31434   0.00000  Uiso   1.00
C7     C     0.42259   0.84099   0.30940   0.00000  Uiso   1.00
C8     C     0.54037   0.82900   0.32657   0.00000  Uiso   1.00
C9     C     0.72229   0.77908   0.34858   0.00000  Uiso   1.00
C10    C     0.24912   0.98002   0.35300   0.00000  Uiso   1.00
C11    C     0.17151   0.95809   0.38058   0.00000  Uiso   1.00
C12    C     0.17446   0.99965   0.43032   0.00000  Uiso   1.00
C13    C     0.14459   0.04851   0.51236   0.00000  Uiso   1.00
C14    C     0.40403   0.05533   0.33737   0.00000  Uiso   1.00
C15    C     0.32361   0.06975   0.27517   0.00000  Uiso   1.00
C16    C     0.32387   0.13529   0.24148   0.00000  Uiso   1.00
C17    C     0.24344   0.13741   0.18562   0.00000  Uiso   1.00
C18    C     0.46335   0.97766   0.33568   0.00000  Uiso   1.00
C19    C     0.58111   0.96578   0.35287   0.00000  Uiso   1.00
C20    C     0.61833   0.89037   0.34795   0.00000  Uiso   1.00
C21    C     0.32694   0.04128   0.37434   0.00000  Uiso   1.00
C22    C     0.33003   0.08288   0.42405   0.00000  Uiso   1.00
C23    C     0.25243   0.06102   0.45170   0.00000  Uiso   1.00
H24    H     0.20016   0.89484   0.28147   0.00000  Uiso   1.00
H25    H     0.10514   0.96308   0.18151   0.00000  Uiso   1.00
H26    H     0.36234   0.79359   0.29289   0.00000  Uiso   1.00
H27    H     0.11130   0.91068   0.36406   0.00000  Uiso   1.00
H28    H     0.03414   0.06574   0.08009   0.00000  Uiso   1.00
H29    H     0.57646   0.70836   0.31495   0.00000  Uiso   1.00
H30    H     0.04709   0.95525   0.46503   0.00000  Uiso   1.00
H31    H     0.46462   0.10302   0.35399   0.00000  Uiso   1.00
H32    H     0.38410   0.18269   0.25800   0.00000  Uiso   1.00
H33    H     0.64131   0.01320   0.36938   0.00000  Uiso   1.00
H34    H     0.39026   0.13028   0.44055   0.00000  Uiso   1.00
H35    H     0.26056   0.24398   0.14217   0.00000  Uiso   1.00
H36    H     0.80288   0.88660   0.37704   0.00000  Uiso   1.00
H37    H     0.27351   0.13350   0.52712   0.00000  Uiso   1.00
O38    O     0.08963   0.20350   0.04667   0.00000  Uiso   1.00
O39    O     0.80114   0.73463   0.35482   0.00000  Uiso   1.00
O40    O     0.10661   0.05855   0.55171   0.00000  Uiso   1.00
N41    N     0.09846   0.09676   0.10787   0.00000  Uiso   1.00
N42    N     0.60550   0.76263   0.32745   0.00000  Uiso   1.00
N43    N     0.11060   0.99345   0.46777   0.00000  Uiso   1.00
N44    N     0.22029   0.19268   0.14128   0.00000  Uiso   1.00
N45    N     0.72733   0.85854   0.36086   0.00000  Uiso   1.00
N46    N     0.23243   0.08936   0.50118   0.00000  Uiso   1.00
C47    C     0.76075   0.44254   0.29808   0.00000  Uiso   1.00
C48    C     0.74578   0.50849   0.25383   0.00000  Uiso   1.00
C49    C     0.66535   0.51051   0.19801   0.00000  Uiso   1.00
C50    C     0.66548   0.57603   0.16424   0.00000  Uiso   1.00
C51    C     0.63045   0.66910   0.09227   0.00000  Uiso   1.00
C52    C     0.88553   0.41640   0.31434   0.00000  Uiso   1.00
C53    C     0.92259   0.34099   0.30940   0.00000  Uiso   1.00
C54    C     0.04037   0.32900   0.32657   0.00000  Uiso   1.00
C55    C     0.22229   0.27908   0.34858   0.00000  Uiso   1.00
C56    C     0.74912   0.48002   0.35300   0.00000  Uiso   1.00
C57    C     0.67151   0.45809   0.38058   0.00000  Uiso   1.00
C58    C     0.67446   0.49965   0.43032   0.00000  Uiso   1.00
C59    C     0.64459   0.54851   0.51236   0.00000  Uiso   1.00
C60    C     0.90403   0.55533   0.33737   0.00000  Uiso   1.00
C61    C     0.82361   0.56975   0.27517   0.00000  Uiso   1.00
C62    C     0.82387   0.63529   0.24148   0.00000  Uiso   1.00
C63    C     0.74344   0.63741   0.18562   0.00000  Uiso   1.00
C64    C     0.96335   0.47766   0.33568   0.00000  Uiso   1.00
C65    C     0.08111   0.46578   0.35287   0.00000  Uiso   1.00
C66    C     0.11833   0.39037   0.34795   0.00000  Uiso   1.00
C67    C     0.82694   0.54128   0.37434   0.00000  Uiso   1.00
C68    C     0.83003   0.58288   0.42405   0.00000  Uiso   1.00
C69    C     0.75243   0.56102   0.45170   0.00000  Uiso   1.00
H70    H     0.70016   0.39484   0.28147   0.00000  Uiso   1.00
H71    H     0.60514   0.46308   0.18151   0.00000  Uiso   1.00
H72    H     0.86234   0.29359   0.29289   0.00000  Uiso   1.00
H73    H     0.61130   0.41068   0.36406   0.00000  Uiso   1.00
H74    H     0.53414   0.56574   0.08009   0.00000  Uiso   1.00
H75    H     0.07646   0.20836   0.31495   0.00000  Uiso   1.00
H76    H     0.54709   0.45525   0.46503   0.00000  Uiso   1.00
H77    H     0.96462   0.60302   0.35399   0.00000  Uiso   1.00
H78    H     0.88410   0.68269   0.25800   0.00000  Uiso   1.00
H79    H     0.14131   0.51320   0.36938   0.00000  Uiso   1.00
H80    H     0.89026   0.63028   0.44055   0.00000  Uiso   1.00
H81    H     0.76056   0.74398   0.14217   0.00000  Uiso   1.00
H82    H     0.30288   0.38660   0.37704   0.00000  Uiso   1.00
H83    H     0.77351   0.63350   0.52712   0.00000  Uiso   1.00
O84    O     0.58963   0.70350   0.04667   0.00000  Uiso   1.00
O85    O     0.30114   0.23463   0.35482   0.00000  Uiso   1.00
O86    O     0.60661   0.55855   0.55171   0.00000  Uiso   1.00
N87    N     0.59846   0.59676   0.10787   0.00000  Uiso   1.00
N88    N     0.10550   0.26263   0.32745   0.00000  Uiso   1.00
N89    N     0.61060   0.49345   0.46777   0.00000  Uiso   1.00
N90    N     0.72029   0.69268   0.14128   0.00000  Uiso   1.00
N91    N     0.22733   0.35854   0.36086   0.00000  Uiso   1.00
N92    N     0.73243   0.58936   0.50118   0.00000  Uiso   1.00
C93    C     0.73925   0.94254   0.20192   0.00000  Uiso   1.00
C94    C     0.75422   0.00849   0.24617   0.00000  Uiso   1.00
C95    C     0.83465   0.01051   0.30199   0.00000  Uiso   1.00
C96    C     0.83452   0.07603   0.33576   0.00000  Uiso   1.00
C97    C     0.86955   0.16910   0.40773   0.00000  Uiso   1.00
C98    C     0.61447   0.91640   0.18566   0.00000  Uiso   1.00
C99    C     0.57741   0.84099   0.19060   0.00000  Uiso   1.00
C100   C     0.45963   0.82900   0.17343   0.00000  Uiso   1.00
C101   C     0.27771   0.77908   0.15142   0.00000  Uiso   1.00
C102   C     0.75088   0.98002   0.14700   0.00000  Uiso   1.00
C103   C     0.82849   0.95809   0.11942   0.00000  Uiso   1.00
C104   C     0.82554   0.99965   0.06968   0.00000  Uiso   1.00
C105   C     0.85541   0.04851   0.98764   0.00000  Uiso   1.00
C106   C     0.59597   0.05533   0.16263   0.00000  Uiso   1.00
C107   C     0.67639   0.06975   0.22483   0.00000  Uiso   1.00
C108   C     0.67613   0.13529   0.25852   0.00000  Uiso   1.00
C109   C     0.75656   0.13741   0.31438   0.00000  Uiso   1.00
C110   C     0.53665   0.97766   0.16432   0.00000  Uiso   1.00
C111   C     0.41889   0.96578   0.14713   0.00000  Uiso   1.00
C112   C     0.38167   0.89037   0.15205   0.00000  Uiso   1.00
C113   C     0.67306   0.04128   0.12566   0.00000  Uiso   1.00
C114   C     0.66997   0.08288   0.07595   0.00000  Uiso   1.00
C115   C     0.74757   0.06102   0.04830   0.00000  Uiso   1.00
H116   H     0.79984   0.89484   0.21853   0.00000  Uiso   1.00
H117   H     0.89486   0.96308   0.31849   0.00000  Uiso   1.00
H118   H     0.63766   0.79359   0.20711   0.00000  Uiso   1.00
H119   H     0.88870   0.91068   0.13594   0.00000  Uiso   1.00
H120   H     0.96586   0.06574   0.41991   0.00000  Uiso   1.00
H121   H     0.42354   0.70836   0.18505   0.00000  Uiso   1.00
H122   H     0.95291   0.95525   0.03497   0.00000  Uiso   1.00
H123   H     0.53538   0.10302   0.14601   0.00000  Uiso   1.00
H124   H     0.61590   0.18269   0.24200   0.00000  Uiso   1.00
H125   H     0.35869   0.01320   0.13062   0.00000  Uiso   1.00
H126   H     0.60974   0.13028   0.05945   0.00000  Uiso   1.00
H127   H     0.73944   0.24398   0.35783   0.00000  Uiso   1.00
H128   H     0.19712   0.88660   0.12296   0.00000  Uiso   1.00
H129   H     0.72649   0.13350   0.97288   0.00000  Uiso   1.00
O130   O     0.91037   0.20350   0.45333   0.00000  Uiso   1.00
O131   O     0.19886   0.73463   0.14518   0.00000  Uiso   1.00
O132   O     0.89339   0.05855   0.94829   0.00000  Uiso   1.00
N133   N     0.90154   0.09676   0.39213   0.00000  Uiso   1.00
N134   N     0.39450   0.76263   0.17255   0.00000  Uiso   1.00
N135   N     0.88940   0.99345   0.03223   0.00000  Uiso   1.00
N136   N     0.77971   0.19268   0.35872   0.00000  Uiso   1.00
N137   N     0.27267   0.85854   0.13914   0.00000  Uiso   1.00
N138   N     0.76757   0.08936   0.99882   0.00000  Uiso   1.00
C139   C     0.23925   0.44254   0.20192   0.00000  Uiso   1.00
C140   C     0.25422   0.50849   0.24617   0.00000  Uiso   1.00
C141   C     0.33465   0.51051   0.30199   0.00000  Uiso   1.00
C142   C     0.33452   0.57603   0.33576   0.00000  Uiso   1.00
C143   C     0.36955   0.66910   0.40773   0.00000  Uiso   1.00
C144   C     0.11447   0.41640   0.18566   0.00000  Uiso   1.00
C145   C     0.07741   0.34099   0.19060   0.00000  Uiso   1.00
C146   C     0.95963   0.32900   0.17343   0.00000  Uiso   1.00
C147   C     0.77771   0.27908   0.15142   0.00000  Uiso   1.00
C148   C     0.25088   0.48002   0.14700   0.00000  Uiso   1.00
C149   C     0.32849   0.45809   0.11942   0.00000  Uiso   1.00
C150   C     0.32554   0.49965   0.06968   0.00000  Uiso   1.00
C151   C     0.35541   0.54851   0.98764   0.00000  Uiso   1.00
C152   C     0.09597   0.55533   0.16263   0.00000  Uiso   1.00
C153   C     0.17639   0.56975   0.22483   0.00000  Uiso   1.00
C154   C     0.17613   0.63529   0.25852   0.00000  Uiso   1.00
C155   C     0.25656   0.63741   0.31438   0.00000  Uiso   1.00
C156   C     0.03665   0.47766   0.16432   0.00000  Uiso   1.00
C157   C     0.91889   0.46578   0.14713   0.00000  Uiso   1.00
C158   C     0.88167   0.39037   0.15205   0.00000  Uiso   1.00
C159   C     0.17306   0.54128   0.12566   0.00000  Uiso   1.00
C160   C     0.16997   0.58288   0.07595   0.00000  Uiso   1.00
C161   C     0.24757   0.56102   0.04830   0.00000  Uiso   1.00
H162   H     0.29984   0.39484   0.21853   0.00000  Uiso   1.00
H163   H     0.39486   0.46308   0.31849   0.00000  Uiso   1.00
H164   H     0.13766   0.29359   0.20711   0.00000  Uiso   1.00
H165   H     0.38870   0.41068   0.13594   0.00000  Uiso   1.00
H166   H     0.46586   0.56574   0.41991   0.00000  Uiso   1.00
H167   H     0.92354   0.20836   0.18505   0.00000  Uiso   1.00
H168   H     0.45291   0.45525   0.03497   0.00000  Uiso   1.00
H169   H     0.03538   0.60302   0.14601   0.00000  Uiso   1.00
H170   H     0.11590   0.68269   0.24200   0.00000  Uiso   1.00
H171   H     0.85869   0.51320   0.13062   0.00000  Uiso   1.00
H172   H     0.10974   0.63028   0.05945   0.00000  Uiso   1.00
H173   H     0.23944   0.74398   0.35783   0.00000  Uiso   1.00
H174   H     0.69712   0.38660   0.12296   0.00000  Uiso   1.00
H175   H     0.22649   0.63350   0.97288   0.00000  Uiso   1.00
O176   O     0.41037   0.70350   0.45333   0.00000  Uiso   1.00
O177   O     0.69886   0.23463   0.14518   0.00000  Uiso   1.00
O178   O     0.39339   0.55855   0.94829   0.00000  Uiso   1.00
N179   N     0.40154   0.59676   0.39213   0.00000  Uiso   1.00
N180   N     0.89450   0.26263   0.17255   0.00000  Uiso   1.00
N181   N     0.38940   0.49345   0.03223   0.00000  Uiso   1.00
N182   N     0.27971   0.69268   0.35872   0.00000  Uiso   1.00
N183   N     0.77267   0.35854   0.13914   0.00000  Uiso   1.00
N184   N     0.26757   0.58936   0.99882   0.00000  Uiso   1.00
C185   C     0.73925   0.05746   0.70192   0.00000  Uiso   1.00
C186   C     0.75422   0.99151   0.74617   0.00000  Uiso   1.00
C187   C     0.83465   0.98949   0.80199   0.00000  Uiso   1.00
C188   C     0.83452   0.92397   0.83576   0.00000  Uiso   1.00
C189   C     0.86955   0.83090   0.90773   0.00000  Uiso   1.00
C190   C     0.61447   0.08360   0.68566   0.00000  Uiso   1.00
C191   C     0.57741   0.15901   0.69060   0.00000  Uiso   1.00
C192   C     0.45963   0.17100   0.67343   0.00000  Uiso   1.00
C193   C     0.27771   0.22092   0.65142   0.00000  Uiso   1.00
C194   C     0.75088   0.01998   0.64700   0.00000  Uiso   1.00
C195   C     0.82849   0.04191   0.61942   0.00000  Uiso   1.00
C196   C     0.82554   0.00035   0.56968   0.00000  Uiso   1.00
C197   C     0.85541   0.95149   0.48764   0.00000  Uiso   1.00
C198   C     0.59597   0.94467   0.66263   0.00000  Uiso   1.00
C199   C     0.67639   0.93025   0.72483   0.00000  Uiso   1.00
C200   C     0.67613   0.86471   0.75852   0.00000  Uiso   1.00
C201   C     0.75656   0.86259   0.81438   0.00000  Uiso   1.00
C202   C     0.53665   0.02234   0.66432   0.00000  Uiso   1.00
C203   C     0.41889   0.03422   0.64713   0.00000  Uiso   1.00
C204   C     0.38167   0.10963   0.65205   0.00000  Uiso   1.00
C205   C     0.67306   0.95872   0.62566   0.00000  Uiso   1.00
C206   C     0.66997   0.91712   0.57595   0.00000  Uiso   1.00
C207   C     0.74757   0.93898   0.54830   0.00000  Uiso   1.00
H208   H     0.79984   0.10516   0.71853   0.00000  Uiso   1.00
H209   H     0.89486   0.03692   0.81849   0.00000  Uiso   1.00
H210   H     0.63766   0.20641   0.70711   0.00000  Uiso   1.00
H211   H     0.88870   0.08932   0.63594   0.00000  Uiso   1.00
H212   H     0.96586   0.93426   0.91991   0.00000  Uiso   1.00
H213   H     0.42354   0.29164   0.68505   0.00000  Uiso   1.00
H214   H     0.95291   0.04475   0.53497   0.00000  Uiso   1.00
H215   H     0.53538   0.89698   0.64601   0.00000  Uiso   1.00
H216   H     0.61590   0.81731   0.74200   0.00000  Uiso   1.00
H217   H     0.35869   0.98680   0.63062   0.00000  Uiso   1.00
H218   H     0.60974   0.86972   0.55945   0.00000  Uiso   1.00
H219   H     0.73944   0.75602   0.85783   0.00000  Uiso   1.00
H220   H     0.19712   0.11340   0.62296   0.00000  Uiso   1.00
H221   H     0.72649   0.86650   0.47288   0.00000  Uiso   1.00
O222   O     0.91037   0.79650   0.95333   0.00000  Uiso   1.00
O223   O     0.19886   0.26537   0.64518   0.00000  Uiso   1.00
O224   O     0.89339   0.94145   0.44829   0.00000  Uiso   1.00
N225   N     0.90154   0.90324   0.89213   0.00000  Uiso   1.00
N226   N     0.39450   0.23737   0.67255   0.00000  Uiso   1.00
N227   N     0.88940   0.00655   0.53223   0.00000  Uiso   1.00
N228   N     0.77971   0.80732   0.85872   0.00000  Uiso   1.00
N229   N     0.27267   0.14146   0.63914   0.00000  Uiso   1.00
N230   N     0.76757   0.91064   0.49882   0.00000  Uiso   1.00
C231   C     0.23925   0.55746   0.70192   0.00000  Uiso   1.00
C232   C     0.25422   0.49151   0.74617   0.00000  Uiso   1.00
C233   C     0.33465   0.48949   0.80199   0.00000  Uiso   1.00
C234   C     0.33452   0.42397   0.83576   0.00000  Uiso   1.00
C235   C     0.36955   0.33090   0.90773   0.00000  Uiso   1.00
C236   C     0.11447   0.58360   0.68566   0.00000  Uiso   1.00
C237   C     0.07741   0.65901   0.69060   0.00000  Uiso   1.00
C238   C     0.95963   0.67100   0.67343   0.00000  Uiso   1.00
C239   C     0.77771   0.72092   0.65142   0.00000  Uiso   1.00
C240   C     0.25088   0.51998   0.64700   0.00000  Uiso   1.00
C241   C     0.32849   0.54191   0.61942   0.00000  Uiso   1.00
C242   C     0.32554   0.50035   0.56968   0.00000  Uiso   1.00
C243   C     0.35541   0.45149   0.48764   0.00000  Uiso   1.00
C244   C     0.09597   0.44467   0.66263   0.00000  Uiso   1.00
C245   C     0.17639   0.43025   0.72483   0.00000  Uiso   1.00
C246   C     0.17613   0.36471   0.75852   0.00000  Uiso   1.00
C247   C     0.25656   0.36259   0.81438   0.00000  Uiso   1.00
C248   C     0.03665   0.52234   0.66432   0.00000  Uiso   1.00
C249   C     0.91889   0.53422   0.64713   0.00000  Uiso   1.00
C250   C     0.88167   0.60963   0.65205   0.00000  Uiso   1.00
C251   C     0.17306   0.45872   0.62566   0.00000  Uiso   1.00
C252   C     0.16997   0.41712   0.57595   0.00000  Uiso   1.00
C253   C     0.24757   0.43898   0.54830   0.00000  Uiso   1.00
H254   H     0.29984   0.60516   0.71853   0.00000  Uiso   1.00
H255   H     0.39486   0.53692   0.81849   0.00000  Uiso   1.00
H256   H     0.13766   0.70641   0.70711   0.00000  Uiso   1.00
H257   H     0.38870   0.58932   0.63594   0.00000  Uiso   1.00
H258   H     0.46586   0.43426   0.91991   0.00000  Uiso   1.00
H259   H     0.92354   0.79164   0.68505   0.00000  Uiso   1.00
H260   H     0.45291   0.54475   0.53497   0.00000  Uiso   1.00
H261   H     0.03538   0.39698   0.64601   0.00000  Uiso   1.00
H262   H     0.11590   0.31731   0.74200   0.00000  Uiso   1.00
H263   H     0.85869   0.48680   0.63062   0.00000  Uiso   1.00
H264   H     0.10974   0.36972   0.55945   0.00000  Uiso   1.00
H265   H     0.23944   0.25602   0.85783   0.00000  Uiso   1.00
H266   H     0.69712   0.61340   0.62296   0.00000  Uiso   1.00
H267   H     0.22649   0.36650   0.47288   0.00000  Uiso   1.00
O268   O     0.41037   0.29650   0.95333   0.00000  Uiso   1.00
O269   O     0.69886   0.76537   0.64518   0.00000  Uiso   1.00
O270   O     0.39339   0.44145   0.44829   0.00000  Uiso   1.00
N271   N     0.40154   0.40324   0.89213   0.00000  Uiso   1.00
N272   N     0.89450   0.73737   0.67255   0.00000  Uiso   1.00
N273   N     0.38940   0.50655   0.53223   0.00000  Uiso   1.00
N274   N     0.27971   0.30732   0.85872   0.00000  Uiso   1.00
N275   N     0.77267   0.64146   0.63914   0.00000  Uiso   1.00
N276   N     0.26757   0.41064   0.49882   0.00000  Uiso   1.00
C277   C     0.26075   0.05746   0.79808   0.00000  Uiso   1.00
C278   C     0.24578   0.99151   0.75383   0.00000  Uiso   1.00
C279   C     0.16535   0.98949   0.69801   0.00000  Uiso   1.00
C280   C     0.16548   0.92397   0.66424   0.00000  Uiso   1.00
C281   C     0.13045   0.83090   0.59227   0.00000  Uiso   1.00
C282   C     0.38553   0.08360   0.81434   0.00000  Uiso   1.00
C283   C     0.42259   0.15901   0.80940   0.00000  Uiso   1.00
C284   C     0.54037   0.17100   0.82657   0.00000  Uiso   1.00
C285   C     0.72229   0.22092   0.84858   0.00000  Uiso   1.00
C286   C     0.24912   0.01998   0.85300   0.00000  Uiso   1.00
C287   C     0.17151   0.04191   0.88058   0.00000  Uiso   1.00
C288   C     0.17446   0.00035   0.93032   0.00000  Uiso   1.00
C289   C     0.14459   0.95149   0.01236   0.00000  Uiso   1.00
C290   C     0.40403   0.94467   0.83737   0.00000  Uiso   1.00
C291   C     0.32361   0.93025   0.77517   0.00000  Uiso   1.00
C292   C     0.32387   0.86471   0.74148   0.00000  Uiso   1.00
C293   C     0.24344   0.86259   0.68562   0.00000  Uiso   1.00
C294   C     0.46335   0.02234   0.83568   0.00000  Uiso   1.00
C295   C     0.58111   0.03422   0.85287   0.00000  Uiso   1.00
C296   C     0.61833   0.10963   0.84795   0.00000  Uiso   1.00
C297   C     0.32694   0.95872   0.87434   0.00000  Uiso   1.00
C298   C     0.33003   0.91712   0.92405   0.00000  Uiso   1.00
C299   C     0.25243   0.93898   0.95170   0.00000  Uiso   1.00
H300   H     0.20016   0.10516   0.78147   0.00000  Uiso   1.00
H301   H     0.10514   0.03692   0.68151   0.00000  Uiso   1.00
H302   H     0.36234   0.20641   0.79289   0.00000  Uiso   1.00
H303   H     0.11130   0.08932   0.86406   0.00000  Uiso   1.00
H304   H     0.03414   0.93426   0.58009   0.00000  Uiso   1.00
H305   H     0.57646   0.29164   0.81495   0.00000  Uiso   1.00
H306   H     0.04709   0.04475   0.96503   0.00000  Uiso   1.00
H307   H     0.46462   0.89698   0.85399   0.00000  Uiso   1.00
H308   H     0.38410   0.81731   0.75800   0.00000  Uiso   1.00
H309   H     0.64131   0.98680   0.86938   0.00000  Uiso   1.00
H310   H     0.39026   0.86972   0.94055   0.00000  Uiso   1.00
H311   H     0.26056   0.75602   0.64217   0.00000  Uiso   1.00
H312   H     0.80288   0.11340   0.87704   0.00000  Uiso   1.00
H313   H     0.27351   0.86650   0.02712   0.00000  Uiso   1.00
O314   O     0.08963   0.79650   0.54667   0.00000  Uiso   1.00
O315   O     0.80114   0.26537   0.85482   0.00000  Uiso   1.00
O316   O     0.10661   0.94145   0.05171   0.00000  Uiso   1.00
N317   N     0.09846   0.90324   0.60787   0.00000  Uiso   1.00
N318   N     0.60550   0.23737   0.82745   0.00000  Uiso   1.00
N319   N     0.11060   0.00655   0.96777   0.00000  Uiso   1.00
N320   N     0.22029   0.80732   0.64128   0.00000  Uiso   1.00
N321   N     0.72733   0.14146   0.86086   0.00000  Uiso   1.00
N322   N     0.23243   0.91064   0.00118   0.00000  Uiso   1.00
C323   C     0.76075   0.55746   0.79808   0.00000  Uiso   1.00
C324   C     0.74578   0.49151   0.75383   0.00000  Uiso   1.00
C325   C     0.66535   0.48949   0.69801   0.00000  Uiso   1.00
C326   C     0.66548   0.42397   0.66424   0.00000  Uiso   1.00
C327   C     0.63045   0.33090   0.59227   0.00000  Uiso   1.00
C328   C     0.88553   0.58360   0.81434   0.00000  Uiso   1.00
C329   C     0.92259   0.65901   0.80940   0.00000  Uiso   1.00
C330   C     0.04037   0.67100   0.82657   0.00000  Uiso   1.00
C331   C     0.22229   0.72092   0.84858   0.00000  Uiso   1.00
C332   C     0.74912   0.51998   0.85300   0.00000  Uiso   1.00
C333   C     0.67151   0.54191   0.88058   0.00000  Uiso   1.00
C334   C     0.67446   0.50035   0.93032   0.00000  Uiso   1.00
C335   C     0.64459   0.45149   0.01236   0.00000  Uiso   1.00
C336   C     0.90403   0.44467   0.83737   0.00000  Uiso   1.00
C337   C     0.82361   0.43025   0.77517   0.00000  Uiso   1.00
C338   C     0.82387   0.36471   0.74148   0.00000  Uiso   1.00
C339   C     0.74344   0.36259   0.68562   0.00000  Uiso   1.00
C340   C     0.96335   0.52234   0.83568   0.00000  Uiso   1.00
C341   C     0.08111   0.53422   0.85287   0.00000  Uiso   1.00
C342   C     0.11833   0.60963   0.84795   0.00000  Uiso   1.00
C343   C     0.82694   0.45872   0.87434   0.00000  Uiso   1.00
C344   C     0.83003   0.41712   0.92405   0.00000  Uiso   1.00
C345   C     0.75243   0.43898   0.95170   0.00000  Uiso   1.00
H346   H     0.70016   0.60516   0.78147   0.00000  Uiso   1.00
H347   H     0.60514   0.53692   0.68151   0.00000  Uiso   1.00
H348   H     0.86234   0.70641   0.79289   0.00000  Uiso   1.00
H349   H     0.61130   0.58932   0.86406   0.00000  Uiso   1.00
H350   H     0.53414   0.43426   0.58009   0.00000  Uiso   1.00
H351   H     0.07646   0.79164   0.81495   0.00000  Uiso   1.00
H352   H     0.54709   0.54475   0.96503   0.00000  Uiso   1.00
H353   H     0.96462   0.39698   0.85399   0.00000  Uiso   1.00
H354   H     0.88410   0.31731   0.75800   0.00000  Uiso   1.00
H355   H     0.14131   0.48680   0.86938   0.00000  Uiso   1.00
H356   H     0.89026   0.36972   0.94055   0.00000  Uiso   1.00
H357   H     0.76056   0.25602   0.64217   0.00000  Uiso   1.00
H358   H     0.30288   0.61340   0.87704   0.00000  Uiso   1.00
H359   H     0.77351   0.36650   0.02712   0.00000  Uiso   1.00
O360   O     0.58963   0.29650   0.54667   0.00000  Uiso   1.00
O361   O     0.30114   0.76537   0.85482   0.00000  Uiso   1.00
O362   O     0.60661   0.44145   0.05171   0.00000  Uiso   1.00
N363   N     0.59846   0.40324   0.60787   0.00000  Uiso   1.00
N364   N     0.10550   0.73737   0.82745   0.00000  Uiso   1.00
N365   N     0.61060   0.50655   0.96777   0.00000  Uiso   1.00
N366   N     0.72029   0.30732   0.64128   0.00000  Uiso   1.00
N367   N     0.22733   0.64146   0.86086   0.00000  Uiso   1.00
N368   N     0.73243   0.41064   0.00118   0.00000  Uiso   1.00
