data_job_06490
_audit_creation_date              2018-12-19
_audit_creation_method            'Materials Studio'
_symmetry_space_group_name_H-M    'P1'
_symmetry_Int_Tables_number       1
_symmetry_cell_setting            triclinic
loop_
_symmetry_equiv_pos_as_xyz
  x,y,z
_cell_length_a                    22.8558
_cell_length_b                    20.8117
_cell_length_c                    20.3236
_cell_angle_alpha                 95.0449
_cell_angle_beta                  65.0840
_cell_angle_gamma                 86.7319
loop_
_atom_site_label
_atom_site_type_symbol
_atom_site_fract_x
_atom_site_fract_y
_atom_site_fract_z
_atom_site_U_iso_or_equiv
_atom_site_adp_type
_atom_site_occupancy
C1     C     0.81287   0.51573   0.81693   0.00000  Uiso   1.00
C2     C     0.85146   0.53455   0.74072   0.00000  Uiso   1.00
C3     C     0.87820   0.59269   0.72519   0.00000  Uiso   1.00
C4     C     0.91175   0.60061   0.65193   0.00000  Uiso   1.00
C5     C     0.97066   0.63722   0.54206   0.00000  Uiso   1.00
C6     C     0.74774   0.49929   0.81975   0.00000  Uiso   1.00
C7     C     0.68728   0.52778   0.87068   0.00000  Uiso   1.00
C8     C     0.63352   0.50601   0.86395   0.00000  Uiso   1.00
C9     C     0.53140   0.48785   0.87681   0.00000  Uiso   1.00
C10    C     0.84764   0.45215   0.82009   0.00000  Uiso   1.00
C11    C     0.87116   0.44098   0.87131   0.00000  Uiso   1.00
C12    C     0.90150   0.37950   0.86487   0.00000  Uiso   1.00
C13    C     0.95448   0.28814   0.87825   0.00000  Uiso   1.00
C14    C     0.82491   0.42641   0.71444   0.00000  Uiso   1.00
C15    C     0.85800   0.48604   0.68505   0.00000  Uiso   1.00
C16    C     0.89153   0.49386   0.61180   0.00000  Uiso   1.00
C17    C     0.91831   0.55200   0.59616   0.00000  Uiso   1.00
C18    C     0.75429   0.45078   0.76409   0.00000  Uiso   1.00
C19    C     0.70061   0.42895   0.75728   0.00000  Uiso   1.00
C20    C     0.64007   0.45740   0.80818   0.00000  Uiso   1.00
C21    C     0.85419   0.40363   0.76442   0.00000  Uiso   1.00
C22    C     0.88449   0.34215   0.75791   0.00000  Uiso   1.00
C23    C     0.90805   0.33090   0.80910   0.00000  Uiso   1.00
H24    H     0.80777   0.55351   0.86027   0.00000  Uiso   1.00
H25    H     0.87312   0.63023   0.76829   0.00000  Uiso   1.00
H26    H     0.68223   0.56532   0.91375   0.00000  Uiso   1.00
H27    H     0.86608   0.47853   0.91438   0.00000  Uiso   1.00
H28    H     0.94844   0.69390   0.64175   0.00000  Uiso   1.00
H29    H     0.54593   0.55703   0.94849   0.00000  Uiso   1.00
H30    H     0.93363   0.37402   0.94981   0.00000  Uiso   1.00
H31    H     0.83001   0.38864   0.67110   0.00000  Uiso   1.00
H32    H     0.89659   0.45631   0.56873   0.00000  Uiso   1.00
H33    H     0.70569   0.39141   0.71420   0.00000  Uiso   1.00
H34    H     0.88955   0.30462   0.71482   0.00000  Uiso   1.00
H35    H     0.96748   0.55275   0.47979   0.00000  Uiso   1.00
H36    H     0.56497   0.41587   0.78653   0.00000  Uiso   1.00
H37    H     0.95267   0.23286   0.78784   0.00000  Uiso   1.00
O38    O     0.00134   0.67083   0.49684   0.00000  Uiso   1.00
O39    O     0.47326   0.49124   0.89928   0.00000  Uiso   1.00
O40    O     0.98191   0.25115   0.90100   0.00000  Uiso   1.00
N41    N     0.94380   0.65139   0.61768   0.00000  Uiso   1.00
N42    N     0.56747   0.52342   0.90446   0.00000  Uiso   1.00
N43    N     0.92992   0.35232   0.90570   0.00000  Uiso   1.00
N44    N     0.95404   0.57543   0.53053   0.00000  Uiso   1.00
N45    N     0.57772   0.44747   0.81731   0.00000  Uiso   1.00
N46    N     0.94017   0.27637   0.81855   0.00000  Uiso   1.00
C47    C     0.90390   0.89207   0.34582   0.00000  Uiso   1.00
C48    C     0.83131   0.91121   0.37363   0.00000  Uiso   1.00
C49    C     0.79307   0.95396   0.43552   0.00000  Uiso   1.00
C50    C     0.72768   0.96507   0.45172   0.00000  Uiso   1.00
C51    C     0.61895   0.99941   0.50165   0.00000  Uiso   1.00
C52    C     0.91234   0.81832   0.34078   0.00000  Uiso   1.00
C53    C     0.94223   0.78298   0.37504   0.00000  Uiso   1.00
C54    C     0.94506   0.71589   0.36359   0.00000  Uiso   1.00
C55    C     0.96216   0.60603   0.36247   0.00000  Uiso   1.00
C56    C     0.93507   0.90809   0.26735   0.00000  Uiso   1.00
C57    C     0.98409   0.94821   0.23986   0.00000  Uiso   1.00
C58    C     0.00608   0.95668   0.16657   0.00000  Uiso   1.00
C59    C     0.05848   0.98619   0.05143   0.00000  Uiso   1.00
C60    C     0.85579   0.83576   0.26455   0.00000  Uiso   1.00
C61    C     0.80518   0.88062   0.32949   0.00000  Uiso   1.00
C62    C     0.73984   0.89166   0.34560   0.00000  Uiso   1.00
C63    C     0.70150   0.93443   0.40750   0.00000  Uiso   1.00
C64    C     0.88621   0.78773   0.29664   0.00000  Uiso   1.00
C65    C     0.88900   0.72068   0.28513   0.00000  Uiso   1.00
C66    C     0.91888   0.68525   0.31937   0.00000  Uiso   1.00
C67    C     0.90894   0.87750   0.22320   0.00000  Uiso   1.00
C68    C     0.93086   0.88591   0.14994   0.00000  Uiso   1.00
C69    C     0.97990   0.92604   0.12234   0.00000  Uiso   1.00
H70    H     0.92424   0.91588   0.38018   0.00000  Uiso   1.00
H71    H     0.81331   0.97762   0.46967   0.00000  Uiso   1.00
H72    H     0.96245   0.80666   0.40920   0.00000  Uiso   1.00
H73    H     0.00430   0.97187   0.27403   0.00000  Uiso   1.00
H74    H     0.67879   0.03256   0.54943   0.00000  Uiso   1.00
H75    H     0.99328   0.67210   0.42190   0.00000  Uiso   1.00
H76    H     0.08154   0.02046   0.13688   0.00000  Uiso   1.00
H77    H     0.83544   0.81194   0.23018   0.00000  Uiso   1.00
H78    H     0.71963   0.86799   0.31143   0.00000  Uiso   1.00
H79    H     0.86877   0.69703   0.25096   0.00000  Uiso   1.00
H80    H     0.91063   0.86223   0.11580   0.00000  Uiso   1.00
H81    H     0.60275   0.94358   0.42100   0.00000  Uiso   1.00
H82    H     0.91725   0.58311   0.29347   0.00000  Uiso   1.00
H83    H     0.00551   0.93148   0.00845   0.00000  Uiso   1.00
O84    O     0.56618   0.02679   0.54138   0.00000  Uiso   1.00
O85    O     0.97880   0.55388   0.37406   0.00000  Uiso   1.00
O86    O     0.09459   0.01093   0.00012   0.00000  Uiso   1.00
N87    N     0.67679   0.00394   0.50804   0.00000  Uiso   1.00
N88    N     0.97082   0.66692   0.38882   0.00000  Uiso   1.00
N89    N     0.05334   0.99260   0.12234   0.00000  Uiso   1.00
N90    N     0.63587   0.95606   0.43893   0.00000  Uiso   1.00
N91    N     0.92990   0.61904   0.31971   0.00000  Uiso   1.00
N92    N     0.01243   0.94472   0.05324   0.00000  Uiso   1.00
C93    C     0.36718   0.85627   0.79250   0.00000  Uiso   1.00
C94    C     0.39248   0.80041   0.82048   0.00000  Uiso   1.00
C95    C     0.41974   0.80652   0.86987   0.00000  Uiso   1.00
C96    C     0.43992   0.74954   0.88856   0.00000  Uiso   1.00
C97    C     0.48027   0.67207   0.93648   0.00000  Uiso   1.00
C98    C     0.40369   0.84505   0.70938   0.00000  Uiso   1.00
C99    C     0.44037   0.88870   0.66537   0.00000  Uiso   1.00
C100   C     0.46998   0.86930   0.59053   0.00000  Uiso   1.00
C101   C     0.52769   0.86114   0.46597   0.00000  Uiso   1.00
C102   C     0.29673   0.84655   0.81020   0.00000  Uiso   1.00
C103   C     0.24347   0.89147   0.85094   0.00000  Uiso   1.00
C104   C     0.18303   0.87335   0.86098   0.00000  Uiso   1.00
C105   C     0.07468   0.86753   0.89296   0.00000  Uiso   1.00
C106   C     0.35454   0.74421   0.73786   0.00000  Uiso   1.00
C107   C     0.38561   0.73954   0.79079   0.00000  Uiso   1.00
C108   C     0.40575   0.68254   0.80942   0.00000  Uiso   1.00
C109   C     0.43304   0.68857   0.85883   0.00000  Uiso   1.00
C110   C     0.39682   0.78418   0.67970   0.00000  Uiso   1.00
C111   C     0.42638   0.76472   0.60491   0.00000  Uiso   1.00
C112   C     0.46310   0.80832   0.56080   0.00000  Uiso   1.00
C113   C     0.28986   0.78568   0.78052   0.00000  Uiso   1.00
C114   C     0.22949   0.76749   0.79049   0.00000  Uiso   1.00
C115   C     0.17615   0.81237   0.83124   0.00000  Uiso   1.00
H116   H     0.37253   0.90365   0.81561   0.00000  Uiso   1.00
H117   H     0.42505   0.85363   0.89282   0.00000  Uiso   1.00
H118   H     0.44567   0.93580   0.68835   0.00000  Uiso   1.00
H119   H     0.24881   0.93857   0.87390   0.00000  Uiso   1.00
H120   H     0.48027   0.77133   0.96532   0.00000  Uiso   1.00
H121   H     0.52372   0.94459   0.53418   0.00000  Uiso   1.00
H122   H     0.10861   0.95044   0.92545   0.00000  Uiso   1.00
H123   H     0.34919   0.69682   0.71475   0.00000  Uiso   1.00
H124   H     0.40043   0.63544   0.78644   0.00000  Uiso   1.00
H125   H     0.42105   0.71761   0.58196   0.00000  Uiso   1.00
H126   H     0.22419   0.72038   0.76751   0.00000  Uiso   1.00
H127   H     0.46030   0.59424   0.87897   0.00000  Uiso   1.00
H128   H     0.50374   0.76750   0.44783   0.00000  Uiso   1.00
H129   H     0.08863   0.77335   0.83910   0.00000  Uiso   1.00
O130   O     0.50443   0.64615   0.97111   0.00000  Uiso   1.00
O131   O     0.56143   0.87346   0.40547   0.00000  Uiso   1.00
O132   O     0.01681   0.88113   0.91880   0.00000  Uiso   1.00
N133   N     0.46853   0.73808   0.93517   0.00000  Uiso   1.00
N134   N     0.50916   0.90006   0.53208   0.00000  Uiso   1.00
N135   N     0.12106   0.90554   0.89787   0.00000  Uiso   1.00
N136   N     0.45778   0.64279   0.88871   0.00000  Uiso   1.00
N137   N     0.49841   0.80477   0.48562   0.00000  Uiso   1.00
N138   N     0.11031   0.81024   0.85141   0.00000  Uiso   1.00
C139   C     0.32640   0.39625   0.84023   0.00000  Uiso   1.00
C140   C     0.35911   0.33929   0.85891   0.00000  Uiso   1.00
C141   C     0.39279   0.34374   0.90191   0.00000  Uiso   1.00
C142   C     0.41917   0.28598   0.91253   0.00000  Uiso   1.00
C143   C     0.47101   0.20667   0.94632   0.00000  Uiso   1.00
C144   C     0.25559   0.38359   0.86532   0.00000  Uiso   1.00
C145   C     0.20223   0.42528   0.91371   0.00000  Uiso   1.00
C146   C     0.14146   0.40481   0.92971   0.00000  Uiso   1.00
C147   C     0.03259   0.39428   0.97340   0.00000  Uiso   1.00
C148   C     0.35554   0.39015   0.75699   0.00000  Uiso   1.00
C149   C     0.38620   0.43737   0.71429   0.00000  Uiso   1.00
C150   C     0.40957   0.42242   0.63908   0.00000  Uiso   1.00
C151   C     0.45588   0.42209   0.51458   0.00000  Uiso   1.00
C152   C     0.31335   0.28576   0.78260   0.00000  Uiso   1.00
C153   C     0.35202   0.27928   0.82761   0.00000  Uiso   1.00
C154   C     0.37836   0.22149   0.83815   0.00000  Uiso   1.00
C155   C     0.41207   0.22585   0.88117   0.00000  Uiso   1.00
C156   C     0.24850   0.32357   0.83402   0.00000  Uiso   1.00
C157   C     0.18780   0.30303   0.84994   0.00000  Uiso   1.00
C158   C     0.13436   0.34468   0.89835   0.00000  Uiso   1.00
C159   C     0.34845   0.33013   0.72568   0.00000  Uiso   1.00
C160   C     0.37177   0.31512   0.65053   0.00000  Uiso   1.00
C161   C     0.40247   0.36230   0.60772   0.00000  Uiso   1.00
H162   H     0.33191   0.44298   0.86460   0.00000  Uiso   1.00
H163   H     0.39826   0.39020   0.92614   0.00000  Uiso   1.00
H164   H     0.20773   0.47172   0.93792   0.00000  Uiso   1.00
H165   H     0.39168   0.48381   0.73853   0.00000  Uiso   1.00
H166   H     0.46868   0.30521   0.98057   0.00000  Uiso   1.00
H167   H     0.06694   0.47713   0.00539   0.00000  Uiso   1.00
H168   H     0.45482   0.50261   0.58495   0.00000  Uiso   1.00
H169   H     0.30783   0.23903   0.75823   0.00000  Uiso   1.00
H170   H     0.37286   0.17506   0.81392   0.00000  Uiso   1.00
H171   H     0.18233   0.25659   0.82571   0.00000  Uiso   1.00
H172   H     0.36628   0.26867   0.62632   0.00000  Uiso   1.00
H173   H     0.44806   0.13060   0.88950   0.00000  Uiso   1.00
H174   H     0.04632   0.30252   0.91432   0.00000  Uiso   1.00
H175   H     0.43420   0.32799   0.49388   0.00000  Uiso   1.00
O176   O     0.50156   0.17950   0.97361   0.00000  Uiso   1.00
O177   O     0.97450   0.40506   0.00616   0.00000  Uiso   1.00
O178   O     0.48339   0.43848   0.45455   0.00000  Uiso   1.00
N179   N     0.45491   0.27290   0.95148   0.00000  Uiso   1.00
N180   N     0.07931   0.43363   0.97470   0.00000  Uiso   1.00
N181   N     0.44193   0.45745   0.58162   0.00000  Uiso   1.00
N182   N     0.44382   0.17894   0.90248   0.00000  Uiso   1.00
N183   N     0.06822   0.33967   0.92569   0.00000  Uiso   1.00
N184   N     0.43084   0.36349   0.53261   0.00000  Uiso   1.00
C185   C     0.34805   0.01131   0.27001   0.00000  Uiso   1.00
C186   C     0.27444   0.02033   0.31301   0.00000  Uiso   1.00
C187   C     0.23892   0.07143   0.36648   0.00000  Uiso   1.00
C188   C     0.17201   0.07088   0.39942   0.00000  Uiso   1.00
C189   C     0.06232   0.09250   0.46918   0.00000  Uiso   1.00
C190   C     0.36139   0.00585   0.18951   0.00000  Uiso   1.00
C191   C     0.39897   0.04478   0.13915   0.00000  Uiso   1.00
C192   C     0.40526   0.03203   0.06813   0.00000  Uiso   1.00
C193   C     0.43059   0.03114   0.94615   0.00000  Uiso   1.00
C194   C     0.37018   0.94479   0.28245   0.00000  Uiso   1.00
C195   C     0.41516   0.93237   0.31020   0.00000  Uiso   1.00
C196   C     0.42886   0.86821   0.31741   0.00000  Uiso   1.00
C197   C     0.46784   0.77252   0.33972   0.00000  Uiso   1.00
C198   C     0.29240   0.91946   0.23345   0.00000  Uiso   1.00
C199   C     0.24422   0.97044   0.29315   0.00000  Uiso   1.00
C200   C     0.17735   0.96981   0.32602   0.00000  Uiso   1.00
C201   C     0.14173   0.02090   0.37953   0.00000  Uiso   1.00
C202   C     0.33116   0.95597   0.16965   0.00000  Uiso   1.00
C203   C     0.33740   0.94316   0.09869   0.00000  Uiso   1.00
C204   C     0.37498   0.98205   0.04823   0.00000  Uiso   1.00
C205   C     0.33995   0.89490   0.26259   0.00000  Uiso   1.00
C206   C     0.35359   0.83075   0.26975   0.00000  Uiso   1.00
C207   C     0.39858   0.81823   0.29751   0.00000  Uiso   1.00
H208   H     0.37158   0.05015   0.28547   0.00000  Uiso   1.00
H209   H     0.26233   0.11004   0.38182   0.00000  Uiso   1.00
H210   H     0.42236   0.08337   0.15453   0.00000  Uiso   1.00
H211   H     0.43854   0.97099   0.32556   0.00000  Uiso   1.00
H212   H     0.12786   0.15444   0.47988   0.00000  Uiso   1.00
H213   H     0.46532   0.09822   0.00061   0.00000  Uiso   1.00
H214   H     0.49945   0.86122   0.36125   0.00000  Uiso   1.00
H215   H     0.26887   0.88061   0.21798   0.00000  Uiso   1.00
H216   H     0.15397   0.93120   0.31064   0.00000  Uiso   1.00
H217   H     0.31401   0.90454   0.08334   0.00000  Uiso   1.00
H218   H     0.33019   0.79215   0.25437   0.00000  Uiso   1.00
H219   H     0.03992   0.00930   0.42210   0.00000  Uiso   1.00
H220   H     0.37738   0.95307   0.94283   0.00000  Uiso   1.00
H221   H     0.41151   0.71608   0.30347   0.00000  Uiso   1.00
O222   O     0.01016   0.11822   0.51314   0.00000  Uiso   1.00
O223   O     0.45290   0.04444   0.88436   0.00000  Uiso   1.00
O224   O     0.49768   0.73352   0.35752   0.00000  Uiso   1.00
N225   N     0.12293   0.11333   0.45357   0.00000  Uiso   1.00
N226   N     0.43843   0.06077   0.00549   0.00000  Uiso   1.00
N227   N     0.47035   0.83920   0.34264   0.00000  Uiso   1.00
N228   N     0.07561   0.03523   0.42248   0.00000  Uiso   1.00
N229   N     0.39111   0.98267   0.97440   0.00000  Uiso   1.00
N230   N     0.42303   0.76110   0.31155   0.00000  Uiso   1.00
C231   C     0.85402   0.36583   0.44682   0.00000  Uiso   1.00
C232   C     0.87757   0.38803   0.37112   0.00000  Uiso   1.00
C233   C     0.92680   0.42752   0.34150   0.00000  Uiso   1.00
C234   C     0.94111   0.44229   0.27139   0.00000  Uiso   1.00
C235   C     0.98283   0.48037   0.15978   0.00000  Uiso   1.00
C236   C     0.86047   0.29193   0.43459   0.00000  Uiso   1.00
C237   C     0.89533   0.25061   0.45835   0.00000  Uiso   1.00
C238   C     0.89524   0.18448   0.44168   0.00000  Uiso   1.00
C239   C     0.91038   0.07335   0.42866   0.00000  Uiso   1.00
C240   C     0.78145   0.38740   0.48550   0.00000  Uiso   1.00
C241   C     0.74986   0.42634   0.55207   0.00000  Uiso   1.00
C242   C     0.68323   0.44058   0.57827   0.00000  Uiso   1.00
C243   C     0.57567   0.47768   0.64428   0.00000  Uiso   1.00
C244   C     0.79188   0.32185   0.37498   0.00000  Uiso   1.00
C245   C     0.84381   0.36414   0.33210   0.00000  Uiso   1.00
C246   C     0.85805   0.37886   0.26202   0.00000  Uiso   1.00
C247   C     0.90730   0.41836   0.23230   0.00000  Uiso   1.00
C248   C     0.82672   0.26803   0.39558   0.00000  Uiso   1.00
C249   C     0.82657   0.20195   0.37887   0.00000  Uiso   1.00
C250   C     0.86143   0.16055   0.40259   0.00000  Uiso   1.00
C251   C     0.74769   0.36351   0.44648   0.00000  Uiso   1.00
C252   C     0.68110   0.37768   0.47258   0.00000  Uiso   1.00
C253   C     0.64941   0.41664   0.53918   0.00000  Uiso   1.00
H254   H     0.88030   0.38443   0.47720   0.00000  Uiso   1.00
H255   H     0.95292   0.44599   0.37171   0.00000  Uiso   1.00
H256   H     0.92144   0.26912   0.48855   0.00000  Uiso   1.00
H257   H     0.77599   0.44482   0.58225   0.00000  Uiso   1.00
H258   H     0.01856   0.50370   0.23755   0.00000  Uiso   1.00
H259   H     0.95217   0.13074   0.48393   0.00000  Uiso   1.00
H260   H     0.64546   0.50124   0.68151   0.00000  Uiso   1.00
H261   H     0.76560   0.30325   0.34460   0.00000  Uiso   1.00
H262   H     0.83192   0.36036   0.23184   0.00000  Uiso   1.00
H263   H     0.80044   0.18348   0.34868   0.00000  Uiso   1.00
H264   H     0.65499   0.35918   0.44237   0.00000  Uiso   1.00
H265   H     0.92035   0.43419   0.12402   0.00000  Uiso   1.00
H266   H     0.85396   0.06123   0.37041   0.00000  Uiso   1.00
H267   H     0.54725   0.43174   0.56798   0.00000  Uiso   1.00
O268   O     0.01516   0.50796   0.10899   0.00000  Uiso   1.00
O269   O     0.92806   0.01866   0.43225   0.00000  Uiso   1.00
O270   O     0.52567   0.50475   0.69147   0.00000  Uiso   1.00
N271   N     0.98633   0.47951   0.22631   0.00000  Uiso   1.00
N272   N     0.92428   0.13082   0.45666   0.00000  Uiso   1.00
N273   N     0.63752   0.47719   0.64139   0.00000  Uiso   1.00
N274   N     0.93349   0.44211   0.16522   0.00000  Uiso   1.00
N275   N     0.87143   0.09342   0.39557   0.00000  Uiso   1.00
N276   N     0.58468   0.43979   0.58030   0.00000  Uiso   1.00
C277   C     0.18713   0.48427   0.18307   0.00000  Uiso   1.00
C278   C     0.14854   0.46545   0.25928   0.00000  Uiso   1.00
C279   C     0.12180   0.40731   0.27481   0.00000  Uiso   1.00
C280   C     0.08825   0.39939   0.34807   0.00000  Uiso   1.00
C281   C     0.02934   0.36278   0.45794   0.00000  Uiso   1.00
C282   C     0.25226   0.50071   0.18025   0.00000  Uiso   1.00
C283   C     0.31272   0.47222   0.12932   0.00000  Uiso   1.00
C284   C     0.36648   0.49399   0.13605   0.00000  Uiso   1.00
C285   C     0.46860   0.51215   0.12319   0.00000  Uiso   1.00
C286   C     0.15236   0.54785   0.17991   0.00000  Uiso   1.00
C287   C     0.12884   0.55902   0.12869   0.00000  Uiso   1.00
C288   C     0.09850   0.62050   0.13513   0.00000  Uiso   1.00
C289   C     0.04552   0.71186   0.12175   0.00000  Uiso   1.00
C290   C     0.17509   0.57359   0.28556   0.00000  Uiso   1.00
C291   C     0.14200   0.51396   0.31495   0.00000  Uiso   1.00
C292   C     0.10847   0.50614   0.38820   0.00000  Uiso   1.00
C293   C     0.08169   0.44800   0.40384   0.00000  Uiso   1.00
C294   C     0.24571   0.54922   0.23591   0.00000  Uiso   1.00
C295   C     0.29939   0.57105   0.24272   0.00000  Uiso   1.00
C296   C     0.35993   0.54260   0.19182   0.00000  Uiso   1.00
C297   C     0.14581   0.59637   0.23558   0.00000  Uiso   1.00
C298   C     0.11551   0.65785   0.24209   0.00000  Uiso   1.00
C299   C     0.09195   0.66910   0.19090   0.00000  Uiso   1.00
H300   H     0.19223   0.44649   0.13973   0.00000  Uiso   1.00
H301   H     0.12688   0.36977   0.23171   0.00000  Uiso   1.00
H302   H     0.31777   0.43468   0.08625   0.00000  Uiso   1.00
H303   H     0.13392   0.52147   0.08562   0.00000  Uiso   1.00
H304   H     0.05156   0.30610   0.35825   0.00000  Uiso   1.00
H305   H     0.45407   0.44297   0.05151   0.00000  Uiso   1.00
H306   H     0.06637   0.62598   0.05019   0.00000  Uiso   1.00
H307   H     0.16999   0.61136   0.32890   0.00000  Uiso   1.00
H308   H     0.10341   0.54369   0.43127   0.00000  Uiso   1.00
H309   H     0.29431   0.60859   0.28580   0.00000  Uiso   1.00
H310   H     0.11045   0.69538   0.28518   0.00000  Uiso   1.00
H311   H     0.03252   0.44725   0.52021   0.00000  Uiso   1.00
H312   H     0.43503   0.58413   0.21347   0.00000  Uiso   1.00
H313   H     0.04733   0.76714   0.21216   0.00000  Uiso   1.00
O314   O     0.99866   0.32917   0.50316   0.00000  Uiso   1.00
O315   O     0.52674   0.50876   0.10072   0.00000  Uiso   1.00
O316   O     0.01809   0.74885   0.09900   0.00000  Uiso   1.00
N317   N     0.05620   0.34861   0.38232   0.00000  Uiso   1.00
N318   N     0.43253   0.47658   0.09554   0.00000  Uiso   1.00
N319   N     0.07008   0.64768   0.09430   0.00000  Uiso   1.00
N320   N     0.04596   0.42457   0.46947   0.00000  Uiso   1.00
N321   N     0.42228   0.55253   0.18269   0.00000  Uiso   1.00
N322   N     0.05983   0.72363   0.18145   0.00000  Uiso   1.00
C323   C     0.09610   0.10793   0.65418   0.00000  Uiso   1.00
C324   C     0.16869   0.08879   0.62637   0.00000  Uiso   1.00
C325   C     0.20693   0.04604   0.56448   0.00000  Uiso   1.00
C326   C     0.27232   0.03493   0.54828   0.00000  Uiso   1.00
C327   C     0.38105   0.00059   0.49835   0.00000  Uiso   1.00
C328   C     0.08766   0.18168   0.65922   0.00000  Uiso   1.00
C329   C     0.05777   0.21702   0.62496   0.00000  Uiso   1.00
C330   C     0.05494   0.28411   0.63641   0.00000  Uiso   1.00
C331   C     0.03784   0.39397   0.63753   0.00000  Uiso   1.00
C332   C     0.06493   0.09191   0.73265   0.00000  Uiso   1.00
C333   C     0.01591   0.05179   0.76014   0.00000  Uiso   1.00
C334   C     0.99392   0.04332   0.83343   0.00000  Uiso   1.00
C335   C     0.94152   0.01381   0.94857   0.00000  Uiso   1.00
C336   C     0.14421   0.16424   0.73545   0.00000  Uiso   1.00
C337   C     0.19482   0.11938   0.67051   0.00000  Uiso   1.00
C338   C     0.26016   0.10834   0.65440   0.00000  Uiso   1.00
C339   C     0.29850   0.06557   0.59250   0.00000  Uiso   1.00
C340   C     0.11379   0.21227   0.70336   0.00000  Uiso   1.00
C341   C     0.11100   0.27932   0.71487   0.00000  Uiso   1.00
C342   C     0.08112   0.31475   0.68063   0.00000  Uiso   1.00
C343   C     0.09106   0.12250   0.77680   0.00000  Uiso   1.00
C344   C     0.06914   0.11409   0.85006   0.00000  Uiso   1.00
C345   C     0.02010   0.07396   0.87766   0.00000  Uiso   1.00
H346   H     0.07576   0.08412   0.61982   0.00000  Uiso   1.00
H347   H     0.18669   0.02238   0.53033   0.00000  Uiso   1.00
H348   H     0.03755   0.19334   0.59080   0.00000  Uiso   1.00
H349   H     0.99570   0.02813   0.72597   0.00000  Uiso   1.00
H350   H     0.32121   0.96744   0.45057   0.00000  Uiso   1.00
H351   H     0.00672   0.32790   0.57810   0.00000  Uiso   1.00
H352   H     0.91846   0.97954   0.86312   0.00000  Uiso   1.00
H353   H     0.16456   0.18806   0.76982   0.00000  Uiso   1.00
H354   H     0.28037   0.13201   0.68857   0.00000  Uiso   1.00
H355   H     0.13123   0.30297   0.74904   0.00000  Uiso   1.00
H356   H     0.08937   0.13777   0.88420   0.00000  Uiso   1.00
H357   H     0.39725   0.05642   0.57900   0.00000  Uiso   1.00
H358   H     0.08275   0.41689   0.70653   0.00000  Uiso   1.00
H359   H     0.99449   0.06852   0.99155   0.00000  Uiso   1.00
O360   O     0.43382   0.97321   0.45862   0.00000  Uiso   1.00
O361   O     0.02120   0.44612   0.62594   0.00000  Uiso   1.00
O362   O     0.90541   0.98907   0.99988   0.00000  Uiso   1.00
N363   N     0.32321   0.99606   0.49196   0.00000  Uiso   1.00
N364   N     0.02918   0.33308   0.61118   0.00000  Uiso   1.00
N365   N     0.94666   0.00740   0.87766   0.00000  Uiso   1.00
N366   N     0.36413   0.04394   0.56107   0.00000  Uiso   1.00
N367   N     0.07010   0.38096   0.68029   0.00000  Uiso   1.00
N368   N     0.98757   0.05528   0.94676   0.00000  Uiso   1.00
C369   C     0.63282   0.14373   0.20750   0.00000  Uiso   1.00
C370   C     0.60752   0.19959   0.17952   0.00000  Uiso   1.00
C371   C     0.58026   0.19348   0.13013   0.00000  Uiso   1.00
C372   C     0.56008   0.25046   0.11144   0.00000  Uiso   1.00
C373   C     0.51973   0.32793   0.06352   0.00000  Uiso   1.00
C374   C     0.59631   0.15495   0.29062   0.00000  Uiso   1.00
C375   C     0.55963   0.11130   0.33463   0.00000  Uiso   1.00
C376   C     0.53002   0.13070   0.40947   0.00000  Uiso   1.00
C377   C     0.47231   0.13886   0.53403   0.00000  Uiso   1.00
C378   C     0.70327   0.15345   0.18980   0.00000  Uiso   1.00
C379   C     0.75653   0.10853   0.14906   0.00000  Uiso   1.00
C380   C     0.81697   0.12665   0.13902   0.00000  Uiso   1.00
C381   C     0.92532   0.13247   0.10704   0.00000  Uiso   1.00
C382   C     0.64546   0.25579   0.26214   0.00000  Uiso   1.00
C383   C     0.61439   0.26046   0.20921   0.00000  Uiso   1.00
C384   C     0.59425   0.31746   0.19058   0.00000  Uiso   1.00
C385   C     0.56696   0.31143   0.14117   0.00000  Uiso   1.00
C386   C     0.60318   0.21582   0.32030   0.00000  Uiso   1.00
C387   C     0.57362   0.23528   0.39509   0.00000  Uiso   1.00
C388   C     0.53690   0.19168   0.43920   0.00000  Uiso   1.00
C389   C     0.71014   0.21432   0.21948   0.00000  Uiso   1.00
C390   C     0.77051   0.23251   0.20951   0.00000  Uiso   1.00
C391   C     0.82385   0.18763   0.16876   0.00000  Uiso   1.00
H392   H     0.62747   0.09635   0.18439   0.00000  Uiso   1.00
H393   H     0.57495   0.14637   0.10718   0.00000  Uiso   1.00
H394   H     0.55433   0.06420   0.31165   0.00000  Uiso   1.00
H395   H     0.75119   0.06143   0.12610   0.00000  Uiso   1.00
H396   H     0.51973   0.22867   0.03468   0.00000  Uiso   1.00
H397   H     0.47628   0.05541   0.46582   0.00000  Uiso   1.00
H398   H     0.89139   0.04956   0.07455   0.00000  Uiso   1.00
H399   H     0.65081   0.30318   0.28525   0.00000  Uiso   1.00
H400   H     0.59957   0.36456   0.21356   0.00000  Uiso   1.00
H401   H     0.57895   0.28239   0.41804   0.00000  Uiso   1.00
H402   H     0.77581   0.27962   0.23249   0.00000  Uiso   1.00
H403   H     0.53970   0.40576   0.12103   0.00000  Uiso   1.00
H404   H     0.49626   0.23250   0.55217   0.00000  Uiso   1.00
H405   H     0.91137   0.22665   0.16090   0.00000  Uiso   1.00
O406   O     0.49557   0.35385   0.02889   0.00000  Uiso   1.00
O407   O     0.43857   0.12654   0.59453   0.00000  Uiso   1.00
O408   O     0.98319   0.11887   0.08120   0.00000  Uiso   1.00
N409   N     0.53147   0.26192   0.06483   0.00000  Uiso   1.00
N410   N     0.49084   0.09994   0.46792   0.00000  Uiso   1.00
N411   N     0.87894   0.09446   0.10213   0.00000  Uiso   1.00
N412   N     0.54222   0.35721   0.11129   0.00000  Uiso   1.00
N413   N     0.50159   0.19523   0.51438   0.00000  Uiso   1.00
N414   N     0.88969   0.18976   0.14859   0.00000  Uiso   1.00
C415   C     0.67360   0.60375   0.15977   0.00000  Uiso   1.00
C416   C     0.64089   0.66071   0.14109   0.00000  Uiso   1.00
C417   C     0.60721   0.65626   0.09809   0.00000  Uiso   1.00
C418   C     0.58083   0.71402   0.08747   0.00000  Uiso   1.00
C419   C     0.52899   0.79333   0.05368   0.00000  Uiso   1.00
C420   C     0.74441   0.61641   0.13468   0.00000  Uiso   1.00
C421   C     0.79777   0.57472   0.08629   0.00000  Uiso   1.00
C422   C     0.85854   0.59519   0.07029   0.00000  Uiso   1.00
C423   C     0.96741   0.60572   0.02660   0.00000  Uiso   1.00
C424   C     0.64446   0.60985   0.24301   0.00000  Uiso   1.00
C425   C     0.61380   0.56263   0.28571   0.00000  Uiso   1.00
C426   C     0.59043   0.57758   0.36092   0.00000  Uiso   1.00
C427   C     0.54412   0.57791   0.48542   0.00000  Uiso   1.00
C428   C     0.68665   0.71424   0.21740   0.00000  Uiso   1.00
C429   C     0.64798   0.72072   0.17239   0.00000  Uiso   1.00
C430   C     0.62164   0.77851   0.16185   0.00000  Uiso   1.00
C431   C     0.58793   0.77415   0.11883   0.00000  Uiso   1.00
C432   C     0.75150   0.67643   0.16598   0.00000  Uiso   1.00
C433   C     0.81220   0.69697   0.15006   0.00000  Uiso   1.00
C434   C     0.86564   0.65532   0.10165   0.00000  Uiso   1.00
C435   C     0.65155   0.66987   0.27432   0.00000  Uiso   1.00
C436   C     0.62823   0.68488   0.34947   0.00000  Uiso   1.00
C437   C     0.59753   0.63770   0.39228   0.00000  Uiso   1.00
H438   H     0.66809   0.55702   0.13540   0.00000  Uiso   1.00
H439   H     0.60174   0.60980   0.07386   0.00000  Uiso   1.00
H440   H     0.79227   0.52828   0.06208   0.00000  Uiso   1.00
H441   H     0.60832   0.51619   0.26147   0.00000  Uiso   1.00
H442   H     0.53132   0.69479   0.01943   0.00000  Uiso   1.00
H443   H     0.93306   0.52287   0.99461   0.00000  Uiso   1.00
H444   H     0.54518   0.49739   0.41505   0.00000  Uiso   1.00
H445   H     0.69217   0.76097   0.24177   0.00000  Uiso   1.00
H446   H     0.62714   0.82494   0.18608   0.00000  Uiso   1.00
H447   H     0.81767   0.74341   0.17429   0.00000  Uiso   1.00
H448   H     0.63372   0.73133   0.37368   0.00000  Uiso   1.00
H449   H     0.55194   0.86940   0.11050   0.00000  Uiso   1.00
H450   H     0.95368   0.69748   0.08568   0.00000  Uiso   1.00
H451   H     0.56580   0.67201   0.50612   0.00000  Uiso   1.00
O452   O     0.49844   0.82050   0.02639   0.00000  Uiso   1.00
O453   O     0.02550   0.59494   0.99384   0.00000  Uiso   1.00
O454   O     0.51661   0.56152   0.54545   0.00000  Uiso   1.00
N455   N     0.54509   0.72710   0.04852   0.00000  Uiso   1.00
N456   N     0.92069   0.56637   0.02530   0.00000  Uiso   1.00
N457   N     0.55807   0.54255   0.41838   0.00000  Uiso   1.00
N458   N     0.55618   0.82106   0.09752   0.00000  Uiso   1.00
N459   N     0.93178   0.66033   0.07431   0.00000  Uiso   1.00
N460   N     0.56916   0.63651   0.46739   0.00000  Uiso   1.00
C461   C     0.65195   0.98869   0.72999   0.00000  Uiso   1.00
C462   C     0.72556   0.97967   0.68699   0.00000  Uiso   1.00
C463   C     0.76108   0.92857   0.63352   0.00000  Uiso   1.00
C464   C     0.82799   0.92912   0.60058   0.00000  Uiso   1.00
C465   C     0.93768   0.90750   0.53082   0.00000  Uiso   1.00
C466   C     0.63861   0.99415   0.81049   0.00000  Uiso   1.00
C467   C     0.60103   0.95522   0.86085   0.00000  Uiso   1.00
C468   C     0.59474   0.96797   0.93187   0.00000  Uiso   1.00
C469   C     0.56941   0.96886   0.05385   0.00000  Uiso   1.00
C470   C     0.62982   0.05521   0.71755   0.00000  Uiso   1.00
C471   C     0.58484   0.06763   0.68980   0.00000  Uiso   1.00
C472   C     0.57114   0.13179   0.68259   0.00000  Uiso   1.00
C473   C     0.53216   0.22748   0.66028   0.00000  Uiso   1.00
C474   C     0.70760   0.08054   0.76655   0.00000  Uiso   1.00
C475   C     0.75578   0.02956   0.70685   0.00000  Uiso   1.00
C476   C     0.82265   0.03019   0.67398   0.00000  Uiso   1.00
C477   C     0.85827   0.97910   0.62047   0.00000  Uiso   1.00
C478   C     0.66884   0.04403   0.83035   0.00000  Uiso   1.00
C479   C     0.66260   0.05684   0.90131   0.00000  Uiso   1.00
C480   C     0.62502   0.01795   0.95177   0.00000  Uiso   1.00
C481   C     0.66005   0.10510   0.73741   0.00000  Uiso   1.00
C482   C     0.64641   0.16925   0.73025   0.00000  Uiso   1.00
C483   C     0.60142   0.18177   0.70249   0.00000  Uiso   1.00
H484   H     0.62842   0.94985   0.71453   0.00000  Uiso   1.00
H485   H     0.73767   0.88996   0.61818   0.00000  Uiso   1.00
H486   H     0.57764   0.91663   0.84547   0.00000  Uiso   1.00
H487   H     0.56146   0.02901   0.67444   0.00000  Uiso   1.00
H488   H     0.87214   0.84556   0.52012   0.00000  Uiso   1.00
H489   H     0.53468   0.90178   0.99939   0.00000  Uiso   1.00
H490   H     0.50055   0.13878   0.63875   0.00000  Uiso   1.00
H491   H     0.73113   0.11939   0.78202   0.00000  Uiso   1.00
H492   H     0.84603   0.06880   0.68936   0.00000  Uiso   1.00
H493   H     0.68599   0.09546   0.91666   0.00000  Uiso   1.00
H494   H     0.66981   0.20785   0.74563   0.00000  Uiso   1.00
H495   H     0.96008   0.99070   0.57790   0.00000  Uiso   1.00
H496   H     0.62262   0.04693   0.05717   0.00000  Uiso   1.00
H497   H     0.58849   0.28392   0.69653   0.00000  Uiso   1.00
O498   O     0.98984   0.88178   0.48686   0.00000  Uiso   1.00
O499   O     0.54710   0.95556   0.11564   0.00000  Uiso   1.00
O500   O     0.50232   0.26648   0.64248   0.00000  Uiso   1.00
N501   N     0.87707   0.88667   0.54643   0.00000  Uiso   1.00
N502   N     0.56157   0.93923   0.99451   0.00000  Uiso   1.00
N503   N     0.52965   0.16080   0.65736   0.00000  Uiso   1.00
N504   N     0.92439   0.96477   0.57752   0.00000  Uiso   1.00
N505   N     0.60889   0.01733   0.02560   0.00000  Uiso   1.00
N506   N     0.57697   0.23890   0.68845   0.00000  Uiso   1.00
C507   C     0.14598   0.63417   0.55318   0.00000  Uiso   1.00
C508   C     0.12243   0.61197   0.62888   0.00000  Uiso   1.00
C509   C     0.07320   0.57248   0.65850   0.00000  Uiso   1.00
C510   C     0.05889   0.55771   0.72861   0.00000  Uiso   1.00
C511   C     0.01717   0.51963   0.84022   0.00000  Uiso   1.00
C512   C     0.13953   0.70807   0.56541   0.00000  Uiso   1.00
C513   C     0.10467   0.74939   0.54165   0.00000  Uiso   1.00
C514   C     0.10476   0.81552   0.55832   0.00000  Uiso   1.00
C515   C     0.08962   0.92665   0.57134   0.00000  Uiso   1.00
C516   C     0.21855   0.61260   0.51450   0.00000  Uiso   1.00
C517   C     0.25014   0.57366   0.44793   0.00000  Uiso   1.00
C518   C     0.31677   0.55942   0.42173   0.00000  Uiso   1.00
C519   C     0.42433   0.52232   0.35572   0.00000  Uiso   1.00
C520   C     0.20812   0.67815   0.62502   0.00000  Uiso   1.00
C521   C     0.15619   0.63586   0.66790   0.00000  Uiso   1.00
C522   C     0.14195   0.62114   0.73798   0.00000  Uiso   1.00
C523   C     0.09270   0.58164   0.76770   0.00000  Uiso   1.00
C524   C     0.17328   0.73197   0.60442   0.00000  Uiso   1.00
C525   C     0.17343   0.79805   0.62113   0.00000  Uiso   1.00
C526   C     0.13857   0.83945   0.59741   0.00000  Uiso   1.00
C527   C     0.25231   0.63649   0.55352   0.00000  Uiso   1.00
C528   C     0.31890   0.62232   0.52742   0.00000  Uiso   1.00
C529   C     0.35059   0.58336   0.46082   0.00000  Uiso   1.00
H530   H     0.11970   0.61557   0.52280   0.00000  Uiso   1.00
H531   H     0.04708   0.55401   0.62829   0.00000  Uiso   1.00
H532   H     0.07856   0.73088   0.51145   0.00000  Uiso   1.00
H533   H     0.22401   0.55518   0.41775   0.00000  Uiso   1.00
H534   H     0.98144   0.49630   0.76245   0.00000  Uiso   1.00
H535   H     0.04783   0.86926   0.51607   0.00000  Uiso   1.00
H536   H     0.35454   0.49876   0.31849   0.00000  Uiso   1.00
H537   H     0.23440   0.69675   0.65540   0.00000  Uiso   1.00
H538   H     0.16808   0.63964   0.76816   0.00000  Uiso   1.00
H539   H     0.19956   0.81652   0.65132   0.00000  Uiso   1.00
H540   H     0.34501   0.64082   0.55763   0.00000  Uiso   1.00
H541   H     0.07965   0.56581   0.87598   0.00000  Uiso   1.00
H542   H     0.14604   0.93877   0.62959   0.00000  Uiso   1.00
H543   H     0.45275   0.56826   0.43202   0.00000  Uiso   1.00
O544   O     0.98484   0.49204   0.89101   0.00000  Uiso   1.00
O545   O     0.07194   0.98134   0.56775   0.00000  Uiso   1.00
O546   O     0.47433   0.49525   0.30853   0.00000  Uiso   1.00
N547   N     0.01367   0.52049   0.77369   0.00000  Uiso   1.00
N548   N     0.07572   0.86918   0.54334   0.00000  Uiso   1.00
N549   N     0.36248   0.52281   0.35861   0.00000  Uiso   1.00
N550   N     0.06651   0.55789   0.83478   0.00000  Uiso   1.00
N551   N     0.12857   0.90658   0.60443   0.00000  Uiso   1.00
N552   N     0.41532   0.56021   0.41970   0.00000  Uiso   1.00
