data_job_01381
_audit_creation_date              2018-12-19
_audit_creation_method            'Materials Studio'
_symmetry_space_group_name_H-M    'P1'
_symmetry_Int_Tables_number       1
_symmetry_cell_setting            triclinic
loop_
_symmetry_equiv_pos_as_xyz
  x,y,z
_cell_length_a                    7.8345
_cell_length_b                    11.4781
_cell_length_c                    15.8674
_cell_angle_alpha                 72.5762
_cell_angle_beta                  83.0326
_cell_angle_gamma                 78.6541
loop_
_atom_site_label
_atom_site_type_symbol
_atom_site_fract_x
_atom_site_fract_y
_atom_site_fract_z
_atom_site_U_iso_or_equiv
_atom_site_adp_type
_atom_site_occupancy
C1     C     0.38791   0.40555   0.75352   0.00000  Uiso   1.00
C2     C     0.36746   0.37252   0.85430   0.00000  Uiso   1.00
C3     C     0.49196   0.37372   0.90910   0.00000  Uiso   1.00
C4     C     0.44819   0.34046   0.99956   0.00000  Uiso   1.00
C5     C     0.44119   0.29417   0.15083   0.00000  Uiso   1.00
C6     C     0.35537   0.29324   0.72924   0.00000  Uiso   1.00
C7     C     0.46971   0.22781   0.67888   0.00000  Uiso   1.00
C8     C     0.41576   0.12783   0.66406   0.00000  Uiso   1.00
C9     C     0.38994   0.95852   0.62111   0.00000  Uiso   1.00
C10    C     0.23591   0.50892   0.72033   0.00000  Uiso   1.00
C11    C     0.24978   0.62482   0.66245   0.00000  Uiso   1.00
C12    C     0.09524   0.70641   0.64011   0.00000  Uiso   1.00
C13    C     0.88393   0.87197   0.58333   0.00000  Uiso   1.00
C14    C     0.08877   0.34433   0.81673   0.00000  Uiso   1.00
C15    C     0.20498   0.33926   0.88864   0.00000  Uiso   1.00
C16    C     0.16100   0.30599   0.97904   0.00000  Uiso   1.00
C17    C     0.28542   0.30715   0.03396   0.00000  Uiso   1.00
C18    C     0.19290   0.25999   0.76358   0.00000  Uiso   1.00
C19    C     0.13876   0.16008   0.74882   0.00000  Uiso   1.00
C20    C     0.25299   0.09451   0.69845   0.00000  Uiso   1.00
C21    C     0.07342   0.47567   0.75467   0.00000  Uiso   1.00
C22    C     0.91883   0.55709   0.73240   0.00000  Uiso   1.00
C23    C     0.93247   0.67310   0.67451   0.00000  Uiso   1.00
H24    H     0.51440   0.43143   0.72678   0.00000  Uiso   1.00
H25    H     0.61769   0.39945   0.88250   0.00000  Uiso   1.00
H26    H     0.59543   0.25357   0.65231   0.00000  Uiso   1.00
H27    H     0.37554   0.65052   0.63590   0.00000  Uiso   1.00
H28    H     0.66057   0.34929   0.07029   0.00000  Uiso   1.00
H29    H     0.61362   0.04172   0.58489   0.00000  Uiso   1.00
H30    H     0.14993   0.87876   0.55028   0.00000  Uiso   1.00
H31    H     0.96227   0.31844   0.84346   0.00000  Uiso   1.00
H32    H     0.03526   0.28027   0.00559   0.00000  Uiso   1.00
H33    H     0.01301   0.13439   0.77540   0.00000  Uiso   1.00
H34    H     0.79312   0.53133   0.75898   0.00000  Uiso   1.00
H35    H     0.18786   0.25255   0.17019   0.00000  Uiso   1.00
H36    H     0.14091   0.94499   0.68479   0.00000  Uiso   1.00
H37    H     0.67722   0.78202   0.65018   0.00000  Uiso   1.00
O38    O     0.48221   0.27780   0.22479   0.00000  Uiso   1.00
O39    O     0.42060   0.87431   0.58795   0.00000  Uiso   1.00
O40    O     0.81226   0.97248   0.54254   0.00000  Uiso   1.00
N41    N     0.53929   0.33178   0.07155   0.00000  Uiso   1.00
N42    N     0.49540   0.04422   0.61774   0.00000  Uiso   1.00
N43    N     0.06189   0.82677   0.58536   0.00000  Uiso   1.00
N44    N     0.28492   0.27973   0.12531   0.00000  Uiso   1.00
N45    N     0.24104   0.99216   0.67150   0.00000  Uiso   1.00
N46    N     0.80753   0.77471   0.63912   0.00000  Uiso   1.00
C47    C     0.61209   0.59445   0.24648   0.00000  Uiso   1.00
C48    C     0.63254   0.62748   0.14570   0.00000  Uiso   1.00
C49    C     0.50804   0.62628   0.09090   0.00000  Uiso   1.00
C50    C     0.55181   0.65954   0.00044   0.00000  Uiso   1.00
C51    C     0.55881   0.70583   0.84917   0.00000  Uiso   1.00
C52    C     0.64463   0.70676   0.27076   0.00000  Uiso   1.00
C53    C     0.53029   0.77219   0.32112   0.00000  Uiso   1.00
C54    C     0.58424   0.87217   0.33594   0.00000  Uiso   1.00
C55    C     0.61006   0.04148   0.37889   0.00000  Uiso   1.00
C56    C     0.76409   0.49108   0.27967   0.00000  Uiso   1.00
C57    C     0.75022   0.37518   0.33755   0.00000  Uiso   1.00
C58    C     0.90476   0.29359   0.35989   0.00000  Uiso   1.00
C59    C     0.11607   0.12803   0.41667   0.00000  Uiso   1.00
C60    C     0.91123   0.65567   0.18327   0.00000  Uiso   1.00
C61    C     0.79502   0.66074   0.11136   0.00000  Uiso   1.00
C62    C     0.83900   0.69401   0.02096   0.00000  Uiso   1.00
C63    C     0.71458   0.69285   0.96604   0.00000  Uiso   1.00
C64    C     0.80710   0.74001   0.23642   0.00000  Uiso   1.00
C65    C     0.86124   0.83992   0.25118   0.00000  Uiso   1.00
C66    C     0.74701   0.90549   0.30155   0.00000  Uiso   1.00
C67    C     0.92658   0.52433   0.24533   0.00000  Uiso   1.00
C68    C     0.08117   0.44291   0.26760   0.00000  Uiso   1.00
C69    C     0.06753   0.32690   0.32549   0.00000  Uiso   1.00
H70    H     0.48560   0.56857   0.27322   0.00000  Uiso   1.00
H71    H     0.38231   0.60055   0.11750   0.00000  Uiso   1.00
H72    H     0.40457   0.74643   0.34769   0.00000  Uiso   1.00
H73    H     0.62446   0.34948   0.36410   0.00000  Uiso   1.00
H74    H     0.33943   0.65071   0.92971   0.00000  Uiso   1.00
H75    H     0.38638   0.95828   0.41511   0.00000  Uiso   1.00
H76    H     0.85007   0.12124   0.44972   0.00000  Uiso   1.00
H77    H     0.03773   0.68156   0.15654   0.00000  Uiso   1.00
H78    H     0.96474   0.71973   0.99441   0.00000  Uiso   1.00
H79    H     0.98699   0.86561   0.22460   0.00000  Uiso   1.00
H80    H     0.20688   0.46867   0.24102   0.00000  Uiso   1.00
H81    H     0.81214   0.74745   0.82981   0.00000  Uiso   1.00
H82    H     0.85909   0.05501   0.31521   0.00000  Uiso   1.00
H83    H     0.32278   0.21798   0.34982   0.00000  Uiso   1.00
O84    O     0.51779   0.72220   0.77521   0.00000  Uiso   1.00
O85    O     0.57940   0.12569   0.41205   0.00000  Uiso   1.00
O86    O     0.18774   0.02752   0.45746   0.00000  Uiso   1.00
N87    N     0.46071   0.66822   0.92845   0.00000  Uiso   1.00
N88    N     0.50460   0.95578   0.38226   0.00000  Uiso   1.00
N89    N     0.93811   0.17323   0.41464   0.00000  Uiso   1.00
N90    N     0.71508   0.72027   0.87469   0.00000  Uiso   1.00
N91    N     0.75896   0.00784   0.32850   0.00000  Uiso   1.00
N92    N     0.19247   0.22529   0.36088   0.00000  Uiso   1.00
