data_job_01311
_audit_creation_date              2018-12-19
_audit_creation_method            'Materials Studio'
_symmetry_space_group_name_H-M    'P1'
_symmetry_Int_Tables_number       1
_symmetry_cell_setting            triclinic
loop_
_symmetry_equiv_pos_as_xyz
  x,y,z
_cell_length_a                    12.5407
_cell_length_b                    7.2912
_cell_length_c                    29.4978
_cell_angle_alpha                 90.0000
_cell_angle_beta                  80.7704
_cell_angle_gamma                 90.0000
loop_
_atom_site_label
_atom_site_type_symbol
_atom_site_fract_x
_atom_site_fract_y
_atom_site_fract_z
_atom_site_U_iso_or_equiv
_atom_site_adp_type
_atom_site_occupancy
C1     C     0.80849   0.94844   0.65951   0.00000  Uiso   1.00
C2     C     0.80192   0.81828   0.70033   0.00000  Uiso   1.00
C3     C     0.76656   0.86404   0.74593   0.00000  Uiso   1.00
C4     C     0.76665   0.72537   0.77818   0.00000  Uiso   1.00
C5     C     0.75129   0.55034   0.84353   0.00000  Uiso   1.00
C6     C     0.92539   0.94189   0.63532   0.00000  Uiso   1.00
C7     C     0.99384   0.09160   0.62625   0.00000  Uiso   1.00
C8     C     0.09786   0.05698   0.60376   0.00000  Uiso   1.00
C9     C     0.27417   0.07389   0.56814   0.00000  Uiso   1.00
C10    C     0.74135   0.86063   0.62658   0.00000  Uiso   1.00
C11    C     0.65507   0.94202   0.61015   0.00000  Uiso   1.00
C12    C     0.60416   0.83900   0.58029   0.00000  Uiso   1.00
C13    C     0.49472   0.72974   0.53110   0.00000  Uiso   1.00
C14    C     0.87151   0.62078   0.63570   0.00000  Uiso   1.00
C15    C     0.83616   0.64030   0.68739   0.00000  Uiso   1.00
C16    C     0.83629   0.50152   0.71958   0.00000  Uiso   1.00
C17    C     0.80093   0.54707   0.76522   0.00000  Uiso   1.00
C18    C     0.95963   0.76393   0.62238   0.00000  Uiso   1.00
C19    C     0.06356   0.72908   0.59990   0.00000  Uiso   1.00
C20    C     0.13215   0.87869   0.59080   0.00000  Uiso   1.00
C21    C     0.77558   0.68265   0.61364   0.00000  Uiso   1.00
C22    C     0.72480   0.57950   0.58380   0.00000  Uiso   1.00
C23    C     0.63845   0.66071   0.56733   0.00000  Uiso   1.00
H24    H     0.78184   0.08701   0.66958   0.00000  Uiso   1.00
H25    H     0.74009   0.00179   0.75593   0.00000  Uiso   1.00
H26    H     0.96732   0.22931   0.63626   0.00000  Uiso   1.00
H27    H     0.62861   0.07975   0.62016   0.00000  Uiso   1.00
H28    H     0.70892   0.82884   0.84595   0.00000  Uiso   1.00
H29    H     0.18805   0.30859   0.59361   0.00000  Uiso   1.00
H30    H     0.47380   0.99322   0.55967   0.00000  Uiso   1.00
H31    H     0.89817   0.48222   0.62563   0.00000  Uiso   1.00
H32    H     0.86279   0.36381   0.70956   0.00000  Uiso   1.00
H33    H     0.09002   0.59134   0.58989   0.00000  Uiso   1.00
H34    H     0.75131   0.44178   0.57380   0.00000  Uiso   1.00
H35    H     0.80852   0.31103   0.80832   0.00000  Uiso   1.00
H36    H     0.28764   0.79079   0.55597   0.00000  Uiso   1.00
H37    H     0.57340   0.47541   0.52204   0.00000  Uiso   1.00
O38    O     0.73338   0.50297   0.88315   0.00000  Uiso   1.00
O39    O     0.36196   0.13239   0.55207   0.00000  Uiso   1.00
O40    O     0.42489   0.71863   0.50755   0.00000  Uiso   1.00
N41    N     0.73720   0.72322   0.82558   0.00000  Uiso   1.00
N42    N     0.18516   0.17175   0.58965   0.00000  Uiso   1.00
N43    N     0.51741   0.87692   0.55792   0.00000  Uiso   1.00
N44    N     0.79079   0.44459   0.80533   0.00000  Uiso   1.00
N45    N     0.23875   0.89312   0.56941   0.00000  Uiso   1.00
N46    N     0.57100   0.59830   0.53767   0.00000  Uiso   1.00
C47    C     0.19151   0.94844   0.84049   0.00000  Uiso   1.00
C48    C     0.19808   0.81828   0.79967   0.00000  Uiso   1.00
C49    C     0.23344   0.86404   0.75407   0.00000  Uiso   1.00
C50    C     0.23335   0.72537   0.72182   0.00000  Uiso   1.00
C51    C     0.24871   0.55034   0.65647   0.00000  Uiso   1.00
C52    C     0.07461   0.94189   0.86468   0.00000  Uiso   1.00
C53    C     0.00616   0.09160   0.87375   0.00000  Uiso   1.00
C54    C     0.90214   0.05698   0.89624   0.00000  Uiso   1.00
C55    C     0.72583   0.07389   0.93186   0.00000  Uiso   1.00
C56    C     0.25865   0.86063   0.87342   0.00000  Uiso   1.00
C57    C     0.34493   0.94202   0.88985   0.00000  Uiso   1.00
C58    C     0.39584   0.83900   0.91971   0.00000  Uiso   1.00
C59    C     0.50528   0.72974   0.96890   0.00000  Uiso   1.00
C60    C     0.12849   0.62078   0.86430   0.00000  Uiso   1.00
C61    C     0.16384   0.64030   0.81261   0.00000  Uiso   1.00
C62    C     0.16371   0.50152   0.78042   0.00000  Uiso   1.00
C63    C     0.19907   0.54707   0.73478   0.00000  Uiso   1.00
C64    C     0.04037   0.76393   0.87762   0.00000  Uiso   1.00
C65    C     0.93644   0.72908   0.90010   0.00000  Uiso   1.00
C66    C     0.86785   0.87869   0.90920   0.00000  Uiso   1.00
C67    C     0.22442   0.68265   0.88636   0.00000  Uiso   1.00
C68    C     0.27520   0.57950   0.91620   0.00000  Uiso   1.00
C69    C     0.36155   0.66071   0.93267   0.00000  Uiso   1.00
H70    H     0.21816   0.08701   0.83042   0.00000  Uiso   1.00
H71    H     0.25991   0.00179   0.74407   0.00000  Uiso   1.00
H72    H     0.03268   0.22931   0.86374   0.00000  Uiso   1.00
H73    H     0.37139   0.07975   0.87984   0.00000  Uiso   1.00
H74    H     0.29108   0.82884   0.65405   0.00000  Uiso   1.00
H75    H     0.81195   0.30859   0.90639   0.00000  Uiso   1.00
H76    H     0.52620   0.99322   0.94033   0.00000  Uiso   1.00
H77    H     0.10183   0.48222   0.87437   0.00000  Uiso   1.00
H78    H     0.13721   0.36381   0.79044   0.00000  Uiso   1.00
H79    H     0.90998   0.59134   0.91011   0.00000  Uiso   1.00
H80    H     0.24869   0.44178   0.92620   0.00000  Uiso   1.00
H81    H     0.19148   0.31103   0.69168   0.00000  Uiso   1.00
H82    H     0.71236   0.79079   0.94403   0.00000  Uiso   1.00
H83    H     0.42660   0.47541   0.97796   0.00000  Uiso   1.00
O84    O     0.26662   0.50297   0.61685   0.00000  Uiso   1.00
O85    O     0.63804   0.13239   0.94793   0.00000  Uiso   1.00
O86    O     0.57511   0.71863   0.99245   0.00000  Uiso   1.00
N87    N     0.26280   0.72322   0.67442   0.00000  Uiso   1.00
N88    N     0.81484   0.17175   0.91035   0.00000  Uiso   1.00
N89    N     0.48259   0.87692   0.94208   0.00000  Uiso   1.00
N90    N     0.20921   0.44459   0.69467   0.00000  Uiso   1.00
N91    N     0.76125   0.89312   0.93059   0.00000  Uiso   1.00
N92    N     0.42900   0.59830   0.96233   0.00000  Uiso   1.00
C93    C     0.19151   0.05156   0.34049   0.00000  Uiso   1.00
C94    C     0.19808   0.18172   0.29967   0.00000  Uiso   1.00
C95    C     0.23344   0.13596   0.25407   0.00000  Uiso   1.00
C96    C     0.23335   0.27463   0.22182   0.00000  Uiso   1.00
C97    C     0.24871   0.44966   0.15647   0.00000  Uiso   1.00
C98    C     0.07461   0.05811   0.36468   0.00000  Uiso   1.00
C99    C     0.00616   0.90840   0.37375   0.00000  Uiso   1.00
C100   C     0.90214   0.94302   0.39624   0.00000  Uiso   1.00
C101   C     0.72583   0.92611   0.43186   0.00000  Uiso   1.00
C102   C     0.25865   0.13937   0.37342   0.00000  Uiso   1.00
C103   C     0.34493   0.05798   0.38985   0.00000  Uiso   1.00
C104   C     0.39584   0.16100   0.41971   0.00000  Uiso   1.00
C105   C     0.50528   0.27026   0.46890   0.00000  Uiso   1.00
C106   C     0.12849   0.37922   0.36430   0.00000  Uiso   1.00
C107   C     0.16384   0.35970   0.31261   0.00000  Uiso   1.00
C108   C     0.16371   0.49848   0.28042   0.00000  Uiso   1.00
C109   C     0.19907   0.45293   0.23478   0.00000  Uiso   1.00
C110   C     0.04037   0.23607   0.37762   0.00000  Uiso   1.00
C111   C     0.93644   0.27092   0.40010   0.00000  Uiso   1.00
C112   C     0.86785   0.12131   0.40920   0.00000  Uiso   1.00
C113   C     0.22442   0.31735   0.38636   0.00000  Uiso   1.00
C114   C     0.27520   0.42050   0.41620   0.00000  Uiso   1.00
C115   C     0.36155   0.33929   0.43267   0.00000  Uiso   1.00
H116   H     0.21816   0.91299   0.33042   0.00000  Uiso   1.00
H117   H     0.25991   0.99821   0.24407   0.00000  Uiso   1.00
H118   H     0.03268   0.77069   0.36374   0.00000  Uiso   1.00
H119   H     0.37139   0.92025   0.37984   0.00000  Uiso   1.00
H120   H     0.29108   0.17116   0.15405   0.00000  Uiso   1.00
H121   H     0.81195   0.69141   0.40639   0.00000  Uiso   1.00
H122   H     0.52620   0.00678   0.44033   0.00000  Uiso   1.00
H123   H     0.10183   0.51778   0.37437   0.00000  Uiso   1.00
H124   H     0.13721   0.63619   0.29044   0.00000  Uiso   1.00
H125   H     0.90998   0.40866   0.41011   0.00000  Uiso   1.00
H126   H     0.24869   0.55822   0.42620   0.00000  Uiso   1.00
H127   H     0.19148   0.68897   0.19168   0.00000  Uiso   1.00
H128   H     0.71236   0.20921   0.44403   0.00000  Uiso   1.00
H129   H     0.42660   0.52459   0.47796   0.00000  Uiso   1.00
O130   O     0.26662   0.49703   0.11685   0.00000  Uiso   1.00
O131   O     0.63804   0.86761   0.44793   0.00000  Uiso   1.00
O132   O     0.57511   0.28137   0.49245   0.00000  Uiso   1.00
N133   N     0.26280   0.27678   0.17442   0.00000  Uiso   1.00
N134   N     0.81484   0.82825   0.41035   0.00000  Uiso   1.00
N135   N     0.48259   0.12308   0.44208   0.00000  Uiso   1.00
N136   N     0.20921   0.55541   0.19467   0.00000  Uiso   1.00
N137   N     0.76125   0.10688   0.43059   0.00000  Uiso   1.00
N138   N     0.42900   0.40170   0.46233   0.00000  Uiso   1.00
C139   C     0.80849   0.05156   0.15951   0.00000  Uiso   1.00
C140   C     0.80192   0.18172   0.20033   0.00000  Uiso   1.00
C141   C     0.76656   0.13596   0.24593   0.00000  Uiso   1.00
C142   C     0.76665   0.27463   0.27818   0.00000  Uiso   1.00
C143   C     0.75129   0.44966   0.34353   0.00000  Uiso   1.00
C144   C     0.92539   0.05811   0.13532   0.00000  Uiso   1.00
C145   C     0.99384   0.90840   0.12625   0.00000  Uiso   1.00
C146   C     0.09786   0.94302   0.10376   0.00000  Uiso   1.00
C147   C     0.27417   0.92611   0.06814   0.00000  Uiso   1.00
C148   C     0.74135   0.13937   0.12658   0.00000  Uiso   1.00
C149   C     0.65507   0.05798   0.11015   0.00000  Uiso   1.00
C150   C     0.60416   0.16100   0.08029   0.00000  Uiso   1.00
C151   C     0.49472   0.27026   0.03110   0.00000  Uiso   1.00
C152   C     0.87151   0.37922   0.13570   0.00000  Uiso   1.00
C153   C     0.83616   0.35970   0.18739   0.00000  Uiso   1.00
C154   C     0.83629   0.49848   0.21958   0.00000  Uiso   1.00
C155   C     0.80093   0.45293   0.26522   0.00000  Uiso   1.00
C156   C     0.95963   0.23607   0.12238   0.00000  Uiso   1.00
C157   C     0.06356   0.27092   0.09990   0.00000  Uiso   1.00
C158   C     0.13215   0.12131   0.09080   0.00000  Uiso   1.00
C159   C     0.77558   0.31735   0.11364   0.00000  Uiso   1.00
C160   C     0.72480   0.42050   0.08380   0.00000  Uiso   1.00
C161   C     0.63845   0.33929   0.06733   0.00000  Uiso   1.00
H162   H     0.78184   0.91299   0.16958   0.00000  Uiso   1.00
H163   H     0.74009   0.99821   0.25593   0.00000  Uiso   1.00
H164   H     0.96732   0.77069   0.13626   0.00000  Uiso   1.00
H165   H     0.62861   0.92025   0.12016   0.00000  Uiso   1.00
H166   H     0.70892   0.17116   0.34595   0.00000  Uiso   1.00
H167   H     0.18805   0.69141   0.09361   0.00000  Uiso   1.00
H168   H     0.47380   0.00678   0.05967   0.00000  Uiso   1.00
H169   H     0.89817   0.51778   0.12563   0.00000  Uiso   1.00
H170   H     0.86279   0.63619   0.20956   0.00000  Uiso   1.00
H171   H     0.09002   0.40866   0.08989   0.00000  Uiso   1.00
H172   H     0.75131   0.55822   0.07380   0.00000  Uiso   1.00
H173   H     0.80852   0.68897   0.30832   0.00000  Uiso   1.00
H174   H     0.28764   0.20921   0.05597   0.00000  Uiso   1.00
H175   H     0.57340   0.52459   0.02204   0.00000  Uiso   1.00
O176   O     0.73338   0.49703   0.38315   0.00000  Uiso   1.00
O177   O     0.36196   0.86761   0.05207   0.00000  Uiso   1.00
O178   O     0.42489   0.28137   0.00755   0.00000  Uiso   1.00
N179   N     0.73720   0.27678   0.32558   0.00000  Uiso   1.00
N180   N     0.18516   0.82825   0.08965   0.00000  Uiso   1.00
N181   N     0.51741   0.12308   0.05792   0.00000  Uiso   1.00
N182   N     0.79079   0.55541   0.30533   0.00000  Uiso   1.00
N183   N     0.23875   0.10688   0.06941   0.00000  Uiso   1.00
N184   N     0.57100   0.40170   0.03767   0.00000  Uiso   1.00
