data_job_05797
_audit_creation_date              2018-12-19
_audit_creation_method            'Materials Studio'
_symmetry_space_group_name_H-M    'P1'
_symmetry_Int_Tables_number       1
_symmetry_cell_setting            triclinic
loop_
_symmetry_equiv_pos_as_xyz
  x,y,z
_cell_length_a                    22.8810
_cell_length_b                    22.8810
_cell_length_c                    7.9668
_cell_angle_alpha                 90.0000
_cell_angle_beta                  90.0000
_cell_angle_gamma                 120.0000
loop_
_atom_site_label
_atom_site_type_symbol
_atom_site_fract_x
_atom_site_fract_y
_atom_site_fract_z
_atom_site_U_iso_or_equiv
_atom_site_adp_type
_atom_site_occupancy
C1     C     0.66916   0.61734   0.86339   0.00000  Uiso   1.00
C2     C     0.62160   0.62818   0.97635   0.00000  Uiso   1.00
C3     C     0.55343   0.60358   0.94720   0.00000  Uiso   1.00
C4     C     0.51867   0.61902   0.06556   0.00000  Uiso   1.00
C5     C     0.43991   0.62999   0.21927   0.00000  Uiso   1.00
C6     C     0.72689   0.68757   0.81967   0.00000  Uiso   1.00
C7     C     0.74726   0.71289   0.65876   0.00000  Uiso   1.00
C8     C     0.80115   0.77833   0.64523   0.00000  Uiso   1.00
C9     C     0.88589   0.88148   0.55568   0.00000  Uiso   1.00
C10    C     0.69977   0.58508   0.97372   0.00000  Uiso   1.00
C11    C     0.69734   0.52424   0.94232   0.00000  Uiso   1.00
C12    C     0.72841   0.50340   0.05847   0.00000  Uiso   1.00
C13    C     0.77104   0.44742   0.20811   0.00000  Uiso   1.00
C14    C     0.72867   0.68852   0.12545   0.00000  Uiso   1.00
C15    C     0.65392   0.66684   0.11869   0.00000  Uiso   1.00
C16    C     0.61926   0.68233   0.23714   0.00000  Uiso   1.00
C17    C     0.55105   0.65775   0.20816   0.00000  Uiso   1.00
C18    C     0.75921   0.72623   0.96200   0.00000  Uiso   1.00
C19    C     0.81309   0.79164   0.94870   0.00000  Uiso   1.00
C20    C     0.83353   0.81707   0.78782   0.00000  Uiso   1.00
C21    C     0.73209   0.62374   0.11606   0.00000  Uiso   1.00
C22    C     0.76317   0.60299   0.23227   0.00000  Uiso   1.00
C23    C     0.76079   0.54213   0.20107   0.00000  Uiso   1.00
H24    H     0.64400   0.58725   0.75256   0.00000  Uiso   1.00
H25    H     0.52843   0.57366   0.83701   0.00000  Uiso   1.00
H26    H     0.72224   0.68296   0.54863   0.00000  Uiso   1.00
H27    H     0.67233   0.49434   0.83216   0.00000  Uiso   1.00
H28    H     0.41457   0.57567   0.99339   0.00000  Uiso   1.00
H29    H     0.82323   0.80612   0.38532   0.00000  Uiso   1.00
H30    H     0.71798   0.40837   0.98318   0.00000  Uiso   1.00
H31    H     0.75383   0.71863   0.23627   0.00000  Uiso   1.00
H32    H     0.64428   0.71225   0.34727   0.00000  Uiso   1.00
H33    H     0.83809   0.82155   0.05888   0.00000  Uiso   1.00
H34    H     0.78818   0.63292   0.34241   0.00000  Uiso   1.00
H35    H     0.50859   0.68815   0.40753   0.00000  Uiso   1.00
H36    H     0.91726   0.91861   0.79945   0.00000  Uiso   1.00
H37    H     0.81201   0.52086   0.39732   0.00000  Uiso   1.00
O38    O     0.38754   0.62537   0.26472   0.00000  Uiso   1.00
O39    O     0.92370   0.92770   0.46695   0.00000  Uiso   1.00
O40    O     0.78561   0.40586   0.25134   0.00000  Uiso   1.00
N41    N     0.45173   0.60301   0.07564   0.00000  Uiso   1.00
N42    N     0.83379   0.81847   0.50713   0.00000  Uiso   1.00
N43    N     0.73541   0.44662   0.06606   0.00000  Uiso   1.00
N44    N     0.50232   0.66353   0.29849   0.00000  Uiso   1.00
N45    N     0.88439   0.87900   0.72997   0.00000  Uiso   1.00
N46    N     0.78601   0.50714   0.28890   0.00000  Uiso   1.00
C47    C     0.38266   0.05182   0.86339   0.00000  Uiso   1.00
C48    C     0.37182   0.99342   0.97635   0.00000  Uiso   1.00
C49    C     0.39642   0.94985   0.94720   0.00000  Uiso   1.00
C50    C     0.38098   0.89965   0.06556   0.00000  Uiso   1.00
C51    C     0.37001   0.80992   0.21927   0.00000  Uiso   1.00
C52    C     0.31243   0.03933   0.81967   0.00000  Uiso   1.00
C53    C     0.28711   0.03436   0.65876   0.00000  Uiso   1.00
C54    C     0.22167   0.02281   0.64523   0.00000  Uiso   1.00
C55    C     0.11852   0.00440   0.55568   0.00000  Uiso   1.00
C56    C     0.41492   0.11469   0.97372   0.00000  Uiso   1.00
C57    C     0.47576   0.17310   0.94232   0.00000  Uiso   1.00
C58    C     0.49660   0.22501   0.05847   0.00000  Uiso   1.00
C59    C     0.55258   0.32361   0.20811   0.00000  Uiso   1.00
C60    C     0.31148   0.04014   0.12545   0.00000  Uiso   1.00
C61    C     0.33316   0.98708   0.11869   0.00000  Uiso   1.00
C62    C     0.31767   0.93693   0.23714   0.00000  Uiso   1.00
C63    C     0.34225   0.89330   0.20816   0.00000  Uiso   1.00
C64    C     0.27377   0.03299   0.96200   0.00000  Uiso   1.00
C65    C     0.20836   0.02144   0.94870   0.00000  Uiso   1.00
C66    C     0.18293   0.01646   0.78782   0.00000  Uiso   1.00
C67    C     0.37626   0.10835   0.11606   0.00000  Uiso   1.00
C68    C     0.39701   0.16018   0.23227   0.00000  Uiso   1.00
C69    C     0.45787   0.21866   0.20107   0.00000  Uiso   1.00
H70    H     0.41275   0.05675   0.75256   0.00000  Uiso   1.00
H71    H     0.42634   0.95477   0.83701   0.00000  Uiso   1.00
H72    H     0.31704   0.03928   0.54863   0.00000  Uiso   1.00
H73    H     0.50566   0.17799   0.83216   0.00000  Uiso   1.00
H74    H     0.42433   0.83890   0.99339   0.00000  Uiso   1.00
H75    H     0.19388   0.01711   0.38532   0.00000  Uiso   1.00
H76    H     0.59163   0.30961   0.98318   0.00000  Uiso   1.00
H77    H     0.28137   0.03520   0.23627   0.00000  Uiso   1.00
H78    H     0.28775   0.93204   0.34727   0.00000  Uiso   1.00
H79    H     0.17845   0.01654   0.05888   0.00000  Uiso   1.00
H80    H     0.36708   0.15525   0.34241   0.00000  Uiso   1.00
H81    H     0.31185   0.82044   0.40753   0.00000  Uiso   1.00
H82    H     0.08139   0.99865   0.79945   0.00000  Uiso   1.00
H83    H     0.47914   0.29115   0.39732   0.00000  Uiso   1.00
O84    O     0.37463   0.76218   0.26472   0.00000  Uiso   1.00
O85    O     0.07230   0.99600   0.46695   0.00000  Uiso   1.00
O86    O     0.59414   0.37975   0.25134   0.00000  Uiso   1.00
N87    N     0.39699   0.84872   0.07564   0.00000  Uiso   1.00
N88    N     0.18153   0.01532   0.50713   0.00000  Uiso   1.00
N89    N     0.55338   0.28880   0.06606   0.00000  Uiso   1.00
N90    N     0.33647   0.83879   0.29849   0.00000  Uiso   1.00
N91    N     0.12100   0.00539   0.72997   0.00000  Uiso   1.00
N92    N     0.49286   0.27887   0.28890   0.00000  Uiso   1.00
C93    C     0.94818   0.33084   0.86339   0.00000  Uiso   1.00
C94    C     0.00658   0.37840   0.97635   0.00000  Uiso   1.00
C95    C     0.05015   0.44657   0.94720   0.00000  Uiso   1.00
C96    C     0.10035   0.48133   0.06556   0.00000  Uiso   1.00
C97    C     0.19008   0.56009   0.21927   0.00000  Uiso   1.00
C98    C     0.96067   0.27311   0.81967   0.00000  Uiso   1.00
C99    C     0.96564   0.25274   0.65876   0.00000  Uiso   1.00
C100   C     0.97719   0.19885   0.64523   0.00000  Uiso   1.00
C101   C     0.99560   0.11411   0.55568   0.00000  Uiso   1.00
C102   C     0.88531   0.30023   0.97372   0.00000  Uiso   1.00
C103   C     0.82690   0.30266   0.94232   0.00000  Uiso   1.00
C104   C     0.77499   0.27159   0.05847   0.00000  Uiso   1.00
C105   C     0.67639   0.22896   0.20811   0.00000  Uiso   1.00
C106   C     0.95986   0.27133   0.12545   0.00000  Uiso   1.00
C107   C     0.01292   0.34608   0.11869   0.00000  Uiso   1.00
C108   C     0.06307   0.38074   0.23714   0.00000  Uiso   1.00
C109   C     0.10670   0.44895   0.20816   0.00000  Uiso   1.00
C110   C     0.96701   0.24079   0.96200   0.00000  Uiso   1.00
C111   C     0.97856   0.18691   0.94870   0.00000  Uiso   1.00
C112   C     0.98354   0.16647   0.78782   0.00000  Uiso   1.00
C113   C     0.89165   0.26791   0.11606   0.00000  Uiso   1.00
C114   C     0.83982   0.23683   0.23227   0.00000  Uiso   1.00
C115   C     0.78134   0.23921   0.20107   0.00000  Uiso   1.00
H116   H     0.94325   0.35600   0.75256   0.00000  Uiso   1.00
H117   H     0.04523   0.47157   0.83701   0.00000  Uiso   1.00
H118   H     0.96072   0.27776   0.54863   0.00000  Uiso   1.00
H119   H     0.82201   0.32767   0.83216   0.00000  Uiso   1.00
H120   H     0.16110   0.58543   0.99339   0.00000  Uiso   1.00
H121   H     0.98289   0.17677   0.38532   0.00000  Uiso   1.00
H122   H     0.69039   0.28202   0.98318   0.00000  Uiso   1.00
H123   H     0.96480   0.24617   0.23627   0.00000  Uiso   1.00
H124   H     0.06796   0.35572   0.34727   0.00000  Uiso   1.00
H125   H     0.98346   0.16191   0.05888   0.00000  Uiso   1.00
H126   H     0.84475   0.21182   0.34241   0.00000  Uiso   1.00
H127   H     0.17956   0.49141   0.40753   0.00000  Uiso   1.00
H128   H     0.00135   0.08274   0.79945   0.00000  Uiso   1.00
H129   H     0.70885   0.18799   0.39732   0.00000  Uiso   1.00
O130   O     0.23782   0.61246   0.26472   0.00000  Uiso   1.00
O131   O     0.00400   0.07630   0.46695   0.00000  Uiso   1.00
O132   O     0.62025   0.21439   0.25134   0.00000  Uiso   1.00
N133   N     0.15128   0.54827   0.07564   0.00000  Uiso   1.00
N134   N     0.98468   0.16621   0.50713   0.00000  Uiso   1.00
N135   N     0.71120   0.26459   0.06606   0.00000  Uiso   1.00
N136   N     0.16121   0.49768   0.29849   0.00000  Uiso   1.00
N137   N     0.99461   0.11561   0.72997   0.00000  Uiso   1.00
N138   N     0.72113   0.21399   0.28890   0.00000  Uiso   1.00
C139   C     0.33084   0.38266   0.36339   0.00000  Uiso   1.00
C140   C     0.37840   0.37182   0.47635   0.00000  Uiso   1.00
C141   C     0.44657   0.39642   0.44720   0.00000  Uiso   1.00
C142   C     0.48133   0.38098   0.56556   0.00000  Uiso   1.00
C143   C     0.56009   0.37001   0.71927   0.00000  Uiso   1.00
C144   C     0.27311   0.31243   0.31967   0.00000  Uiso   1.00
C145   C     0.25274   0.28711   0.15876   0.00000  Uiso   1.00
C146   C     0.19885   0.22167   0.14523   0.00000  Uiso   1.00
C147   C     0.11411   0.11852   0.05568   0.00000  Uiso   1.00
C148   C     0.30023   0.41492   0.47372   0.00000  Uiso   1.00
C149   C     0.30266   0.47576   0.44232   0.00000  Uiso   1.00
C150   C     0.27159   0.49660   0.55847   0.00000  Uiso   1.00
C151   C     0.22896   0.55258   0.70811   0.00000  Uiso   1.00
C152   C     0.27133   0.31148   0.62545   0.00000  Uiso   1.00
C153   C     0.34608   0.33316   0.61869   0.00000  Uiso   1.00
C154   C     0.38074   0.31767   0.73714   0.00000  Uiso   1.00
C155   C     0.44895   0.34225   0.70816   0.00000  Uiso   1.00
C156   C     0.24079   0.27377   0.46200   0.00000  Uiso   1.00
C157   C     0.18691   0.20836   0.44870   0.00000  Uiso   1.00
C158   C     0.16647   0.18293   0.28782   0.00000  Uiso   1.00
C159   C     0.26791   0.37626   0.61606   0.00000  Uiso   1.00
C160   C     0.23683   0.39701   0.73227   0.00000  Uiso   1.00
C161   C     0.23921   0.45787   0.70107   0.00000  Uiso   1.00
H162   H     0.35600   0.41275   0.25256   0.00000  Uiso   1.00
H163   H     0.47157   0.42634   0.33701   0.00000  Uiso   1.00
H164   H     0.27776   0.31704   0.04863   0.00000  Uiso   1.00
H165   H     0.32767   0.50566   0.33216   0.00000  Uiso   1.00
H166   H     0.58543   0.42433   0.49339   0.00000  Uiso   1.00
H167   H     0.17677   0.19388   0.88532   0.00000  Uiso   1.00
H168   H     0.28202   0.59163   0.48318   0.00000  Uiso   1.00
H169   H     0.24617   0.28137   0.73627   0.00000  Uiso   1.00
H170   H     0.35572   0.28775   0.84727   0.00000  Uiso   1.00
H171   H     0.16191   0.17845   0.55888   0.00000  Uiso   1.00
H172   H     0.21182   0.36708   0.84241   0.00000  Uiso   1.00
H173   H     0.49141   0.31185   0.90753   0.00000  Uiso   1.00
H174   H     0.08274   0.08139   0.29945   0.00000  Uiso   1.00
H175   H     0.18799   0.47914   0.89732   0.00000  Uiso   1.00
O176   O     0.61246   0.37463   0.76472   0.00000  Uiso   1.00
O177   O     0.07630   0.07230   0.96695   0.00000  Uiso   1.00
O178   O     0.21439   0.59414   0.75134   0.00000  Uiso   1.00
N179   N     0.54827   0.39699   0.57564   0.00000  Uiso   1.00
N180   N     0.16621   0.18153   0.00713   0.00000  Uiso   1.00
N181   N     0.26459   0.55338   0.56606   0.00000  Uiso   1.00
N182   N     0.49768   0.33647   0.79849   0.00000  Uiso   1.00
N183   N     0.11561   0.12100   0.22997   0.00000  Uiso   1.00
N184   N     0.21399   0.49286   0.78890   0.00000  Uiso   1.00
C185   C     0.61734   0.94818   0.36339   0.00000  Uiso   1.00
C186   C     0.62818   0.00658   0.47635   0.00000  Uiso   1.00
C187   C     0.60358   0.05015   0.44720   0.00000  Uiso   1.00
C188   C     0.61902   0.10035   0.56556   0.00000  Uiso   1.00
C189   C     0.62999   0.19008   0.71927   0.00000  Uiso   1.00
C190   C     0.68757   0.96067   0.31967   0.00000  Uiso   1.00
C191   C     0.71289   0.96564   0.15876   0.00000  Uiso   1.00
C192   C     0.77833   0.97719   0.14523   0.00000  Uiso   1.00
C193   C     0.88148   0.99560   0.05568   0.00000  Uiso   1.00
C194   C     0.58508   0.88531   0.47372   0.00000  Uiso   1.00
C195   C     0.52424   0.82690   0.44232   0.00000  Uiso   1.00
C196   C     0.50340   0.77499   0.55847   0.00000  Uiso   1.00
C197   C     0.44742   0.67639   0.70811   0.00000  Uiso   1.00
C198   C     0.68852   0.95986   0.62545   0.00000  Uiso   1.00
C199   C     0.66684   0.01292   0.61869   0.00000  Uiso   1.00
C200   C     0.68233   0.06307   0.73714   0.00000  Uiso   1.00
C201   C     0.65775   0.10670   0.70816   0.00000  Uiso   1.00
C202   C     0.72623   0.96701   0.46200   0.00000  Uiso   1.00
C203   C     0.79164   0.97856   0.44870   0.00000  Uiso   1.00
C204   C     0.81707   0.98354   0.28782   0.00000  Uiso   1.00
C205   C     0.62374   0.89165   0.61606   0.00000  Uiso   1.00
C206   C     0.60299   0.83982   0.73227   0.00000  Uiso   1.00
C207   C     0.54213   0.78134   0.70107   0.00000  Uiso   1.00
H208   H     0.58725   0.94325   0.25256   0.00000  Uiso   1.00
H209   H     0.57366   0.04523   0.33701   0.00000  Uiso   1.00
H210   H     0.68296   0.96072   0.04863   0.00000  Uiso   1.00
H211   H     0.49434   0.82201   0.33216   0.00000  Uiso   1.00
H212   H     0.57567   0.16110   0.49339   0.00000  Uiso   1.00
H213   H     0.80612   0.98289   0.88532   0.00000  Uiso   1.00
H214   H     0.40837   0.69039   0.48318   0.00000  Uiso   1.00
H215   H     0.71863   0.96480   0.73627   0.00000  Uiso   1.00
H216   H     0.71225   0.06796   0.84727   0.00000  Uiso   1.00
H217   H     0.82155   0.98346   0.55888   0.00000  Uiso   1.00
H218   H     0.63292   0.84475   0.84241   0.00000  Uiso   1.00
H219   H     0.68815   0.17956   0.90753   0.00000  Uiso   1.00
H220   H     0.91861   0.00135   0.29945   0.00000  Uiso   1.00
H221   H     0.52086   0.70885   0.89732   0.00000  Uiso   1.00
O222   O     0.62537   0.23782   0.76472   0.00000  Uiso   1.00
O223   O     0.92770   0.00400   0.96695   0.00000  Uiso   1.00
O224   O     0.40586   0.62025   0.75134   0.00000  Uiso   1.00
N225   N     0.60301   0.15128   0.57564   0.00000  Uiso   1.00
N226   N     0.81847   0.98468   0.00713   0.00000  Uiso   1.00
N227   N     0.44662   0.71120   0.56606   0.00000  Uiso   1.00
N228   N     0.66353   0.16121   0.79849   0.00000  Uiso   1.00
N229   N     0.87900   0.99461   0.22997   0.00000  Uiso   1.00
N230   N     0.50714   0.72113   0.78890   0.00000  Uiso   1.00
C231   C     0.05182   0.66916   0.36339   0.00000  Uiso   1.00
C232   C     0.99342   0.62160   0.47635   0.00000  Uiso   1.00
C233   C     0.94985   0.55343   0.44720   0.00000  Uiso   1.00
C234   C     0.89965   0.51867   0.56556   0.00000  Uiso   1.00
C235   C     0.80992   0.43991   0.71927   0.00000  Uiso   1.00
C236   C     0.03933   0.72689   0.31967   0.00000  Uiso   1.00
C237   C     0.03436   0.74726   0.15876   0.00000  Uiso   1.00
C238   C     0.02281   0.80115   0.14523   0.00000  Uiso   1.00
C239   C     0.00440   0.88589   0.05568   0.00000  Uiso   1.00
C240   C     0.11469   0.69977   0.47372   0.00000  Uiso   1.00
C241   C     0.17310   0.69734   0.44232   0.00000  Uiso   1.00
C242   C     0.22501   0.72841   0.55847   0.00000  Uiso   1.00
C243   C     0.32361   0.77104   0.70811   0.00000  Uiso   1.00
C244   C     0.04014   0.72867   0.62545   0.00000  Uiso   1.00
C245   C     0.98708   0.65392   0.61869   0.00000  Uiso   1.00
C246   C     0.93693   0.61926   0.73714   0.00000  Uiso   1.00
C247   C     0.89330   0.55105   0.70816   0.00000  Uiso   1.00
C248   C     0.03299   0.75921   0.46200   0.00000  Uiso   1.00
C249   C     0.02144   0.81309   0.44870   0.00000  Uiso   1.00
C250   C     0.01646   0.83353   0.28782   0.00000  Uiso   1.00
C251   C     0.10835   0.73209   0.61606   0.00000  Uiso   1.00
C252   C     0.16018   0.76317   0.73227   0.00000  Uiso   1.00
C253   C     0.21866   0.76079   0.70107   0.00000  Uiso   1.00
H254   H     0.05675   0.64400   0.25256   0.00000  Uiso   1.00
H255   H     0.95477   0.52843   0.33701   0.00000  Uiso   1.00
H256   H     0.03928   0.72224   0.04863   0.00000  Uiso   1.00
H257   H     0.17799   0.67233   0.33216   0.00000  Uiso   1.00
H258   H     0.83890   0.41457   0.49339   0.00000  Uiso   1.00
H259   H     0.01711   0.82323   0.88532   0.00000  Uiso   1.00
H260   H     0.30961   0.71798   0.48318   0.00000  Uiso   1.00
H261   H     0.03520   0.75383   0.73627   0.00000  Uiso   1.00
H262   H     0.93204   0.64428   0.84727   0.00000  Uiso   1.00
H263   H     0.01654   0.83809   0.55888   0.00000  Uiso   1.00
H264   H     0.15525   0.78818   0.84241   0.00000  Uiso   1.00
H265   H     0.82044   0.50859   0.90753   0.00000  Uiso   1.00
H266   H     0.99865   0.91726   0.29945   0.00000  Uiso   1.00
H267   H     0.29115   0.81201   0.89732   0.00000  Uiso   1.00
O268   O     0.76218   0.38754   0.76472   0.00000  Uiso   1.00
O269   O     0.99600   0.92370   0.96695   0.00000  Uiso   1.00
O270   O     0.37975   0.78561   0.75134   0.00000  Uiso   1.00
N271   N     0.84872   0.45173   0.57564   0.00000  Uiso   1.00
N272   N     0.01532   0.83379   0.00713   0.00000  Uiso   1.00
N273   N     0.28880   0.73541   0.56606   0.00000  Uiso   1.00
N274   N     0.83879   0.50232   0.79849   0.00000  Uiso   1.00
N275   N     0.00539   0.88439   0.22997   0.00000  Uiso   1.00
N276   N     0.27887   0.78601   0.78890   0.00000  Uiso   1.00
