data_job_04885
_audit_creation_date              2018-12-19
_audit_creation_method            'Materials Studio'
_symmetry_space_group_name_H-M    'P1'
_symmetry_Int_Tables_number       1
_symmetry_cell_setting            triclinic
loop_
_symmetry_equiv_pos_as_xyz
  x,y,z
_cell_length_a                    9.4922
_cell_length_b                    9.4922
_cell_length_c                    56.3957
_cell_angle_alpha                 90.0000
_cell_angle_beta                  90.0000
_cell_angle_gamma                 90.0000
loop_
_atom_site_label
_atom_site_type_symbol
_atom_site_fract_x
_atom_site_fract_y
_atom_site_fract_z
_atom_site_U_iso_or_equiv
_atom_site_adp_type
_atom_site_occupancy
C1     C     0.54870   0.42087   0.94859   0.00000  Uiso   1.00
C2     C     0.59184   0.28613   0.96141   0.00000  Uiso   1.00
C3     C     0.68681   0.27731   0.98005   0.00000  Uiso   1.00
C4     C     0.71215   0.14429   0.98936   0.00000  Uiso   1.00
C5     C     0.78941   0.95328   0.01062   0.00000  Uiso   1.00
C6     C     0.58067   0.39618   0.92242   0.00000  Uiso   1.00
C7     C     0.66624   0.47991   0.90830   0.00000  Uiso   1.00
C8     C     0.68215   0.43953   0.88479   0.00000  Uiso   1.00
C9     C     0.74200   0.41945   0.84552   0.00000  Uiso   1.00
C10    C     0.38870   0.42914   0.95055   0.00000  Uiso   1.00
C11    C     0.31284   0.54061   0.96007   0.00000  Uiso   1.00
C12    C     0.16711   0.52800   0.96024   0.00000  Uiso   1.00
C13    C     0.92889   0.55909   0.96465   0.00000  Uiso   1.00
C14    C     0.42479   0.20030   0.93196   0.00000  Uiso   1.00
C15    C     0.52453   0.16632   0.95237   0.00000  Uiso   1.00
C16    C     0.54972   0.03327   0.96165   0.00000  Uiso   1.00
C17    C     0.64471   0.02426   0.98031   0.00000  Uiso   1.00
C18    C     0.51337   0.27638   0.91339   0.00000  Uiso   1.00
C19    C     0.52915   0.23587   0.88989   0.00000  Uiso   1.00
C20    C     0.61473   0.31951   0.87573   0.00000  Uiso   1.00
C21    C     0.32138   0.30933   0.94152   0.00000  Uiso   1.00
C22    C     0.17575   0.29656   0.94167   0.00000  Uiso   1.00
C23    C     0.09969   0.40797   0.95118   0.00000  Uiso   1.00
H24    H     0.60111   0.51415   0.95563   0.00000  Uiso   1.00
H25    H     0.73889   0.37005   0.98704   0.00000  Uiso   1.00
H26    H     0.71830   0.57263   0.91530   0.00000  Uiso   1.00
H27    H     0.36496   0.63330   0.96706   0.00000  Uiso   1.00
H28    H     0.86201   0.15746   0.01788   0.00000  Uiso   1.00
H29    H     0.81857   0.58462   0.86659   0.00000  Uiso   1.00
H30    H     0.07347   0.71258   0.97576   0.00000  Uiso   1.00
H31    H     0.37239   0.10702   0.92492   0.00000  Uiso   1.00
H32    H     0.49762   0.94058   0.95465   0.00000  Uiso   1.00
H33    H     0.47704   0.14316   0.88290   0.00000  Uiso   1.00
H34    H     0.12370   0.20383   0.93467   0.00000  Uiso   1.00
H35    H     0.66619   0.80888   0.99159   0.00000  Uiso   1.00
H36    H     0.62274   0.23605   0.84030   0.00000  Uiso   1.00
H37    H     0.87765   0.36400   0.94946   0.00000  Uiso   1.00
O38    O     0.85064   0.88102   0.02484   0.00000  Uiso   1.00
O39    O     0.79363   0.44146   0.82636   0.00000  Uiso   1.00
O40    O     0.81608   0.60933   0.96958   0.00000  Uiso   1.00
N41    N     0.79871   0.09826   0.00761   0.00000  Uiso   1.00
N42    N     0.75812   0.49763   0.86617   0.00000  Uiso   1.00
N43    N     0.06151   0.61727   0.96822   0.00000  Uiso   1.00
N44    N     0.69334   0.91070   0.99347   0.00000  Uiso   1.00
N45    N     0.65275   0.31006   0.85203   0.00000  Uiso   1.00
N46    N     0.95614   0.42970   0.95408   0.00000  Uiso   1.00
C47    C     0.45130   0.57913   0.44859   0.00000  Uiso   1.00
C48    C     0.40816   0.71387   0.46141   0.00000  Uiso   1.00
C49    C     0.31319   0.72269   0.48005   0.00000  Uiso   1.00
C50    C     0.28785   0.85571   0.48936   0.00000  Uiso   1.00
C51    C     0.21059   0.04672   0.51062   0.00000  Uiso   1.00
C52    C     0.41933   0.60382   0.42242   0.00000  Uiso   1.00
C53    C     0.33376   0.52009   0.40830   0.00000  Uiso   1.00
C54    C     0.31785   0.56047   0.38479   0.00000  Uiso   1.00
C55    C     0.25800   0.58055   0.34552   0.00000  Uiso   1.00
C56    C     0.61130   0.57086   0.45055   0.00000  Uiso   1.00
C57    C     0.68716   0.45939   0.46007   0.00000  Uiso   1.00
C58    C     0.83289   0.47200   0.46024   0.00000  Uiso   1.00
C59    C     0.07111   0.44091   0.46465   0.00000  Uiso   1.00
C60    C     0.57521   0.79970   0.43196   0.00000  Uiso   1.00
C61    C     0.47547   0.83368   0.45237   0.00000  Uiso   1.00
C62    C     0.45028   0.96673   0.46165   0.00000  Uiso   1.00
C63    C     0.35529   0.97574   0.48031   0.00000  Uiso   1.00
C64    C     0.48663   0.72362   0.41339   0.00000  Uiso   1.00
C65    C     0.47085   0.76413   0.38989   0.00000  Uiso   1.00
C66    C     0.38527   0.68049   0.37573   0.00000  Uiso   1.00
C67    C     0.67862   0.69067   0.44152   0.00000  Uiso   1.00
C68    C     0.82425   0.70344   0.44167   0.00000  Uiso   1.00
C69    C     0.90031   0.59203   0.45118   0.00000  Uiso   1.00
H70    H     0.39889   0.48585   0.45563   0.00000  Uiso   1.00
H71    H     0.26111   0.62995   0.48704   0.00000  Uiso   1.00
H72    H     0.28170   0.42737   0.41530   0.00000  Uiso   1.00
H73    H     0.63504   0.36670   0.46706   0.00000  Uiso   1.00
H74    H     0.13799   0.84254   0.51788   0.00000  Uiso   1.00
H75    H     0.18143   0.41538   0.36659   0.00000  Uiso   1.00
H76    H     0.92653   0.28742   0.47576   0.00000  Uiso   1.00
H77    H     0.62761   0.89298   0.42492   0.00000  Uiso   1.00
H78    H     0.50238   0.05942   0.45465   0.00000  Uiso   1.00
H79    H     0.52296   0.85684   0.38290   0.00000  Uiso   1.00
H80    H     0.87630   0.79617   0.43467   0.00000  Uiso   1.00
H81    H     0.33381   0.19112   0.49159   0.00000  Uiso   1.00
H82    H     0.37726   0.76395   0.34030   0.00000  Uiso   1.00
H83    H     0.12235   0.63600   0.44946   0.00000  Uiso   1.00
O84    O     0.14936   0.11898   0.52484   0.00000  Uiso   1.00
O85    O     0.20637   0.55854   0.32636   0.00000  Uiso   1.00
O86    O     0.18392   0.39067   0.46958   0.00000  Uiso   1.00
N87    N     0.20129   0.90174   0.50761   0.00000  Uiso   1.00
N88    N     0.24188   0.50237   0.36617   0.00000  Uiso   1.00
N89    N     0.93849   0.38273   0.46822   0.00000  Uiso   1.00
N90    N     0.30666   0.08930   0.49347   0.00000  Uiso   1.00
N91    N     0.34725   0.68994   0.35203   0.00000  Uiso   1.00
N92    N     0.04386   0.57030   0.45408   0.00000  Uiso   1.00
C93    C     0.57913   0.54870   0.19859   0.00000  Uiso   1.00
C94    C     0.71387   0.59184   0.21141   0.00000  Uiso   1.00
C95    C     0.72269   0.68681   0.23005   0.00000  Uiso   1.00
C96    C     0.85571   0.71215   0.23936   0.00000  Uiso   1.00
C97    C     0.04672   0.78941   0.26062   0.00000  Uiso   1.00
C98    C     0.60382   0.58067   0.17242   0.00000  Uiso   1.00
C99    C     0.52009   0.66624   0.15830   0.00000  Uiso   1.00
C100   C     0.56047   0.68215   0.13479   0.00000  Uiso   1.00
C101   C     0.58055   0.74200   0.09552   0.00000  Uiso   1.00
C102   C     0.57086   0.38870   0.20055   0.00000  Uiso   1.00
C103   C     0.45939   0.31284   0.21007   0.00000  Uiso   1.00
C104   C     0.47200   0.16711   0.21024   0.00000  Uiso   1.00
C105   C     0.44091   0.92889   0.21465   0.00000  Uiso   1.00
C106   C     0.79970   0.42479   0.18196   0.00000  Uiso   1.00
C107   C     0.83368   0.52453   0.20237   0.00000  Uiso   1.00
C108   C     0.96673   0.54972   0.21165   0.00000  Uiso   1.00
C109   C     0.97574   0.64471   0.23031   0.00000  Uiso   1.00
C110   C     0.72362   0.51337   0.16339   0.00000  Uiso   1.00
C111   C     0.76413   0.52915   0.13989   0.00000  Uiso   1.00
C112   C     0.68049   0.61473   0.12573   0.00000  Uiso   1.00
C113   C     0.69067   0.32138   0.19152   0.00000  Uiso   1.00
C114   C     0.70344   0.17575   0.19167   0.00000  Uiso   1.00
C115   C     0.59203   0.09969   0.20118   0.00000  Uiso   1.00
H116   H     0.48585   0.60111   0.20563   0.00000  Uiso   1.00
H117   H     0.62995   0.73889   0.23704   0.00000  Uiso   1.00
H118   H     0.42737   0.71830   0.16530   0.00000  Uiso   1.00
H119   H     0.36670   0.36496   0.21706   0.00000  Uiso   1.00
H120   H     0.84254   0.86201   0.26788   0.00000  Uiso   1.00
H121   H     0.41538   0.81857   0.11659   0.00000  Uiso   1.00
H122   H     0.28742   0.07347   0.22576   0.00000  Uiso   1.00
H123   H     0.89298   0.37239   0.17492   0.00000  Uiso   1.00
H124   H     0.05942   0.49762   0.20465   0.00000  Uiso   1.00
H125   H     0.85684   0.47704   0.13290   0.00000  Uiso   1.00
H126   H     0.79617   0.12370   0.18467   0.00000  Uiso   1.00
H127   H     0.19112   0.66619   0.24159   0.00000  Uiso   1.00
H128   H     0.76395   0.62274   0.09030   0.00000  Uiso   1.00
H129   H     0.63600   0.87765   0.19946   0.00000  Uiso   1.00
O130   O     0.11898   0.85064   0.27484   0.00000  Uiso   1.00
O131   O     0.55854   0.79363   0.07636   0.00000  Uiso   1.00
O132   O     0.39067   0.81608   0.21958   0.00000  Uiso   1.00
N133   N     0.90174   0.79871   0.25761   0.00000  Uiso   1.00
N134   N     0.50237   0.75812   0.11617   0.00000  Uiso   1.00
N135   N     0.38273   0.06151   0.21822   0.00000  Uiso   1.00
N136   N     0.08930   0.69334   0.24347   0.00000  Uiso   1.00
N137   N     0.68994   0.65275   0.10203   0.00000  Uiso   1.00
N138   N     0.57030   0.95614   0.20408   0.00000  Uiso   1.00
C139   C     0.42087   0.45130   0.69859   0.00000  Uiso   1.00
C140   C     0.28613   0.40816   0.71141   0.00000  Uiso   1.00
C141   C     0.27731   0.31319   0.73005   0.00000  Uiso   1.00
C142   C     0.14429   0.28785   0.73936   0.00000  Uiso   1.00
C143   C     0.95328   0.21059   0.76062   0.00000  Uiso   1.00
C144   C     0.39618   0.41933   0.67242   0.00000  Uiso   1.00
C145   C     0.47991   0.33376   0.65830   0.00000  Uiso   1.00
C146   C     0.43953   0.31785   0.63479   0.00000  Uiso   1.00
C147   C     0.41945   0.25800   0.59552   0.00000  Uiso   1.00
C148   C     0.42914   0.61130   0.70055   0.00000  Uiso   1.00
C149   C     0.54061   0.68716   0.71007   0.00000  Uiso   1.00
C150   C     0.52800   0.83289   0.71024   0.00000  Uiso   1.00
C151   C     0.55909   0.07111   0.71465   0.00000  Uiso   1.00
C152   C     0.20030   0.57521   0.68196   0.00000  Uiso   1.00
C153   C     0.16632   0.47547   0.70237   0.00000  Uiso   1.00
C154   C     0.03327   0.45028   0.71165   0.00000  Uiso   1.00
C155   C     0.02426   0.35529   0.73031   0.00000  Uiso   1.00
C156   C     0.27638   0.48663   0.66339   0.00000  Uiso   1.00
C157   C     0.23587   0.47085   0.63989   0.00000  Uiso   1.00
C158   C     0.31951   0.38527   0.62573   0.00000  Uiso   1.00
C159   C     0.30933   0.67862   0.69152   0.00000  Uiso   1.00
C160   C     0.29656   0.82425   0.69167   0.00000  Uiso   1.00
C161   C     0.40797   0.90031   0.70118   0.00000  Uiso   1.00
H162   H     0.51415   0.39889   0.70563   0.00000  Uiso   1.00
H163   H     0.37005   0.26111   0.73704   0.00000  Uiso   1.00
H164   H     0.57263   0.28170   0.66530   0.00000  Uiso   1.00
H165   H     0.63330   0.63504   0.71706   0.00000  Uiso   1.00
H166   H     0.15746   0.13799   0.76788   0.00000  Uiso   1.00
H167   H     0.58462   0.18143   0.61659   0.00000  Uiso   1.00
H168   H     0.71258   0.92653   0.72576   0.00000  Uiso   1.00
H169   H     0.10702   0.62761   0.67492   0.00000  Uiso   1.00
H170   H     0.94058   0.50238   0.70465   0.00000  Uiso   1.00
H171   H     0.14316   0.52296   0.63290   0.00000  Uiso   1.00
H172   H     0.20383   0.87630   0.68467   0.00000  Uiso   1.00
H173   H     0.80888   0.33381   0.74159   0.00000  Uiso   1.00
H174   H     0.23605   0.37726   0.59030   0.00000  Uiso   1.00
H175   H     0.36400   0.12235   0.69946   0.00000  Uiso   1.00
O176   O     0.88102   0.14936   0.77484   0.00000  Uiso   1.00
O177   O     0.44146   0.20637   0.57636   0.00000  Uiso   1.00
O178   O     0.60933   0.18392   0.71958   0.00000  Uiso   1.00
N179   N     0.09826   0.20129   0.75761   0.00000  Uiso   1.00
N180   N     0.49763   0.24188   0.61617   0.00000  Uiso   1.00
N181   N     0.61727   0.93849   0.71822   0.00000  Uiso   1.00
N182   N     0.91070   0.30666   0.74347   0.00000  Uiso   1.00
N183   N     0.31006   0.34725   0.60203   0.00000  Uiso   1.00
N184   N     0.42970   0.04386   0.70408   0.00000  Uiso   1.00
C185   C     0.45130   0.42087   0.05141   0.00000  Uiso   1.00
C186   C     0.40816   0.28613   0.03859   0.00000  Uiso   1.00
C187   C     0.31319   0.27731   0.01995   0.00000  Uiso   1.00
C188   C     0.28785   0.14429   0.01064   0.00000  Uiso   1.00
C189   C     0.21059   0.95328   0.98938   0.00000  Uiso   1.00
C190   C     0.41933   0.39618   0.07758   0.00000  Uiso   1.00
C191   C     0.33376   0.47991   0.09170   0.00000  Uiso   1.00
C192   C     0.31785   0.43953   0.11521   0.00000  Uiso   1.00
C193   C     0.25800   0.41945   0.15448   0.00000  Uiso   1.00
C194   C     0.61130   0.42914   0.04945   0.00000  Uiso   1.00
C195   C     0.68716   0.54061   0.03993   0.00000  Uiso   1.00
C196   C     0.83289   0.52800   0.03976   0.00000  Uiso   1.00
C197   C     0.07111   0.55909   0.03535   0.00000  Uiso   1.00
C198   C     0.57521   0.20030   0.06804   0.00000  Uiso   1.00
C199   C     0.47547   0.16632   0.04763   0.00000  Uiso   1.00
C200   C     0.45028   0.03327   0.03835   0.00000  Uiso   1.00
C201   C     0.35529   0.02426   0.01969   0.00000  Uiso   1.00
C202   C     0.48663   0.27638   0.08661   0.00000  Uiso   1.00
C203   C     0.47085   0.23587   0.11011   0.00000  Uiso   1.00
C204   C     0.38527   0.31951   0.12427   0.00000  Uiso   1.00
C205   C     0.67862   0.30933   0.05848   0.00000  Uiso   1.00
C206   C     0.82425   0.29656   0.05833   0.00000  Uiso   1.00
C207   C     0.90031   0.40797   0.04882   0.00000  Uiso   1.00
H208   H     0.39889   0.51415   0.04437   0.00000  Uiso   1.00
H209   H     0.26111   0.37005   0.01296   0.00000  Uiso   1.00
H210   H     0.28170   0.57263   0.08470   0.00000  Uiso   1.00
H211   H     0.63504   0.63330   0.03294   0.00000  Uiso   1.00
H212   H     0.13799   0.15746   0.98212   0.00000  Uiso   1.00
H213   H     0.18143   0.58462   0.13341   0.00000  Uiso   1.00
H214   H     0.92653   0.71258   0.02424   0.00000  Uiso   1.00
H215   H     0.62761   0.10702   0.07508   0.00000  Uiso   1.00
H216   H     0.50238   0.94058   0.04535   0.00000  Uiso   1.00
H217   H     0.52296   0.14316   0.11710   0.00000  Uiso   1.00
H218   H     0.87630   0.20383   0.06533   0.00000  Uiso   1.00
H219   H     0.33381   0.80888   0.00841   0.00000  Uiso   1.00
H220   H     0.37726   0.23605   0.15970   0.00000  Uiso   1.00
H221   H     0.12235   0.36400   0.05054   0.00000  Uiso   1.00
O222   O     0.14936   0.88102   0.97516   0.00000  Uiso   1.00
O223   O     0.20637   0.44146   0.17364   0.00000  Uiso   1.00
O224   O     0.18392   0.60933   0.03042   0.00000  Uiso   1.00
N225   N     0.20129   0.09826   0.99239   0.00000  Uiso   1.00
N226   N     0.24188   0.49763   0.13383   0.00000  Uiso   1.00
N227   N     0.93849   0.61727   0.03178   0.00000  Uiso   1.00
N228   N     0.30666   0.91070   0.00653   0.00000  Uiso   1.00
N229   N     0.34725   0.31006   0.14797   0.00000  Uiso   1.00
N230   N     0.04386   0.42970   0.04592   0.00000  Uiso   1.00
C231   C     0.54870   0.57913   0.55141   0.00000  Uiso   1.00
C232   C     0.59184   0.71387   0.53859   0.00000  Uiso   1.00
C233   C     0.68681   0.72269   0.51995   0.00000  Uiso   1.00
C234   C     0.71215   0.85571   0.51064   0.00000  Uiso   1.00
C235   C     0.78941   0.04672   0.48938   0.00000  Uiso   1.00
C236   C     0.58067   0.60382   0.57758   0.00000  Uiso   1.00
C237   C     0.66624   0.52009   0.59170   0.00000  Uiso   1.00
C238   C     0.68215   0.56047   0.61521   0.00000  Uiso   1.00
C239   C     0.74200   0.58055   0.65448   0.00000  Uiso   1.00
C240   C     0.38870   0.57086   0.54945   0.00000  Uiso   1.00
C241   C     0.31284   0.45939   0.53993   0.00000  Uiso   1.00
C242   C     0.16711   0.47200   0.53976   0.00000  Uiso   1.00
C243   C     0.92889   0.44091   0.53535   0.00000  Uiso   1.00
C244   C     0.42479   0.79970   0.56804   0.00000  Uiso   1.00
C245   C     0.52453   0.83368   0.54763   0.00000  Uiso   1.00
C246   C     0.54972   0.96673   0.53835   0.00000  Uiso   1.00
C247   C     0.64471   0.97574   0.51969   0.00000  Uiso   1.00
C248   C     0.51337   0.72362   0.58661   0.00000  Uiso   1.00
C249   C     0.52915   0.76413   0.61011   0.00000  Uiso   1.00
C250   C     0.61473   0.68049   0.62427   0.00000  Uiso   1.00
C251   C     0.32138   0.69067   0.55848   0.00000  Uiso   1.00
C252   C     0.17575   0.70344   0.55833   0.00000  Uiso   1.00
C253   C     0.09969   0.59203   0.54882   0.00000  Uiso   1.00
H254   H     0.60111   0.48585   0.54437   0.00000  Uiso   1.00
H255   H     0.73889   0.62995   0.51296   0.00000  Uiso   1.00
H256   H     0.71830   0.42737   0.58470   0.00000  Uiso   1.00
H257   H     0.36496   0.36670   0.53294   0.00000  Uiso   1.00
H258   H     0.86201   0.84254   0.48212   0.00000  Uiso   1.00
H259   H     0.81857   0.41538   0.63341   0.00000  Uiso   1.00
H260   H     0.07347   0.28742   0.52424   0.00000  Uiso   1.00
H261   H     0.37239   0.89298   0.57508   0.00000  Uiso   1.00
H262   H     0.49762   0.05942   0.54535   0.00000  Uiso   1.00
H263   H     0.47704   0.85684   0.61710   0.00000  Uiso   1.00
H264   H     0.12370   0.79617   0.56533   0.00000  Uiso   1.00
H265   H     0.66619   0.19112   0.50841   0.00000  Uiso   1.00
H266   H     0.62274   0.76395   0.65970   0.00000  Uiso   1.00
H267   H     0.87765   0.63600   0.55054   0.00000  Uiso   1.00
O268   O     0.85064   0.11898   0.47516   0.00000  Uiso   1.00
O269   O     0.79363   0.55854   0.67364   0.00000  Uiso   1.00
O270   O     0.81608   0.39067   0.53042   0.00000  Uiso   1.00
N271   N     0.79871   0.90174   0.49239   0.00000  Uiso   1.00
N272   N     0.75812   0.50237   0.63383   0.00000  Uiso   1.00
N273   N     0.06151   0.38273   0.53178   0.00000  Uiso   1.00
N274   N     0.69334   0.08930   0.50653   0.00000  Uiso   1.00
N275   N     0.65275   0.68994   0.64797   0.00000  Uiso   1.00
N276   N     0.95614   0.57030   0.54592   0.00000  Uiso   1.00
C277   C     0.42087   0.54870   0.80141   0.00000  Uiso   1.00
C278   C     0.28613   0.59184   0.78859   0.00000  Uiso   1.00
C279   C     0.27731   0.68681   0.76995   0.00000  Uiso   1.00
C280   C     0.14429   0.71215   0.76064   0.00000  Uiso   1.00
C281   C     0.95328   0.78941   0.73938   0.00000  Uiso   1.00
C282   C     0.39618   0.58067   0.82758   0.00000  Uiso   1.00
C283   C     0.47991   0.66624   0.84170   0.00000  Uiso   1.00
C284   C     0.43953   0.68215   0.86521   0.00000  Uiso   1.00
C285   C     0.41945   0.74200   0.90448   0.00000  Uiso   1.00
C286   C     0.42914   0.38870   0.79945   0.00000  Uiso   1.00
C287   C     0.54061   0.31284   0.78993   0.00000  Uiso   1.00
C288   C     0.52800   0.16711   0.78976   0.00000  Uiso   1.00
C289   C     0.55909   0.92889   0.78535   0.00000  Uiso   1.00
C290   C     0.20030   0.42479   0.81804   0.00000  Uiso   1.00
C291   C     0.16632   0.52453   0.79763   0.00000  Uiso   1.00
C292   C     0.03327   0.54972   0.78835   0.00000  Uiso   1.00
C293   C     0.02426   0.64471   0.76969   0.00000  Uiso   1.00
C294   C     0.27638   0.51337   0.83661   0.00000  Uiso   1.00
C295   C     0.23587   0.52915   0.86011   0.00000  Uiso   1.00
C296   C     0.31951   0.61473   0.87427   0.00000  Uiso   1.00
C297   C     0.30933   0.32138   0.80848   0.00000  Uiso   1.00
C298   C     0.29656   0.17575   0.80833   0.00000  Uiso   1.00
C299   C     0.40797   0.09969   0.79882   0.00000  Uiso   1.00
H300   H     0.51415   0.60111   0.79437   0.00000  Uiso   1.00
H301   H     0.37005   0.73889   0.76296   0.00000  Uiso   1.00
H302   H     0.57263   0.71830   0.83470   0.00000  Uiso   1.00
H303   H     0.63330   0.36496   0.78294   0.00000  Uiso   1.00
H304   H     0.15746   0.86201   0.73212   0.00000  Uiso   1.00
H305   H     0.58462   0.81857   0.88341   0.00000  Uiso   1.00
H306   H     0.71258   0.07347   0.77424   0.00000  Uiso   1.00
H307   H     0.10702   0.37239   0.82508   0.00000  Uiso   1.00
H308   H     0.94058   0.49762   0.79535   0.00000  Uiso   1.00
H309   H     0.14316   0.47704   0.86710   0.00000  Uiso   1.00
H310   H     0.20383   0.12370   0.81533   0.00000  Uiso   1.00
H311   H     0.80888   0.66619   0.75841   0.00000  Uiso   1.00
H312   H     0.23605   0.62274   0.90970   0.00000  Uiso   1.00
H313   H     0.36400   0.87765   0.80054   0.00000  Uiso   1.00
O314   O     0.88102   0.85064   0.72516   0.00000  Uiso   1.00
O315   O     0.44146   0.79363   0.92364   0.00000  Uiso   1.00
O316   O     0.60933   0.81608   0.78042   0.00000  Uiso   1.00
N317   N     0.09826   0.79871   0.74239   0.00000  Uiso   1.00
N318   N     0.49763   0.75812   0.88383   0.00000  Uiso   1.00
N319   N     0.61727   0.06151   0.78178   0.00000  Uiso   1.00
N320   N     0.91070   0.69334   0.75653   0.00000  Uiso   1.00
N321   N     0.31006   0.65275   0.89797   0.00000  Uiso   1.00
N322   N     0.42970   0.95614   0.79592   0.00000  Uiso   1.00
C323   C     0.57913   0.45130   0.30141   0.00000  Uiso   1.00
C324   C     0.71387   0.40816   0.28859   0.00000  Uiso   1.00
C325   C     0.72269   0.31319   0.26995   0.00000  Uiso   1.00
C326   C     0.85571   0.28785   0.26064   0.00000  Uiso   1.00
C327   C     0.04672   0.21059   0.23938   0.00000  Uiso   1.00
C328   C     0.60382   0.41933   0.32758   0.00000  Uiso   1.00
C329   C     0.52009   0.33376   0.34170   0.00000  Uiso   1.00
C330   C     0.56047   0.31785   0.36521   0.00000  Uiso   1.00
C331   C     0.58055   0.25800   0.40448   0.00000  Uiso   1.00
C332   C     0.57086   0.61130   0.29945   0.00000  Uiso   1.00
C333   C     0.45939   0.68716   0.28993   0.00000  Uiso   1.00
C334   C     0.47200   0.83289   0.28976   0.00000  Uiso   1.00
C335   C     0.44091   0.07111   0.28535   0.00000  Uiso   1.00
C336   C     0.79970   0.57521   0.31804   0.00000  Uiso   1.00
C337   C     0.83368   0.47547   0.29763   0.00000  Uiso   1.00
C338   C     0.96673   0.45028   0.28835   0.00000  Uiso   1.00
C339   C     0.97574   0.35529   0.26969   0.00000  Uiso   1.00
C340   C     0.72362   0.48663   0.33661   0.00000  Uiso   1.00
C341   C     0.76413   0.47085   0.36011   0.00000  Uiso   1.00
C342   C     0.68049   0.38527   0.37427   0.00000  Uiso   1.00
C343   C     0.69067   0.67862   0.30848   0.00000  Uiso   1.00
C344   C     0.70344   0.82425   0.30833   0.00000  Uiso   1.00
C345   C     0.59203   0.90031   0.29882   0.00000  Uiso   1.00
H346   H     0.48585   0.39889   0.29437   0.00000  Uiso   1.00
H347   H     0.62995   0.26111   0.26296   0.00000  Uiso   1.00
H348   H     0.42737   0.28170   0.33470   0.00000  Uiso   1.00
H349   H     0.36670   0.63504   0.28294   0.00000  Uiso   1.00
H350   H     0.84254   0.13799   0.23212   0.00000  Uiso   1.00
H351   H     0.41538   0.18143   0.38341   0.00000  Uiso   1.00
H352   H     0.28742   0.92653   0.27424   0.00000  Uiso   1.00
H353   H     0.89298   0.62761   0.32508   0.00000  Uiso   1.00
H354   H     0.05942   0.50238   0.29535   0.00000  Uiso   1.00
H355   H     0.85684   0.52296   0.36710   0.00000  Uiso   1.00
H356   H     0.79617   0.87630   0.31533   0.00000  Uiso   1.00
H357   H     0.19112   0.33381   0.25841   0.00000  Uiso   1.00
H358   H     0.76395   0.37726   0.40970   0.00000  Uiso   1.00
H359   H     0.63600   0.12235   0.30054   0.00000  Uiso   1.00
O360   O     0.11898   0.14936   0.22516   0.00000  Uiso   1.00
O361   O     0.55854   0.20637   0.42364   0.00000  Uiso   1.00
O362   O     0.39067   0.18392   0.28042   0.00000  Uiso   1.00
N363   N     0.90174   0.20129   0.24239   0.00000  Uiso   1.00
N364   N     0.50237   0.24188   0.38383   0.00000  Uiso   1.00
N365   N     0.38273   0.93849   0.28178   0.00000  Uiso   1.00
N366   N     0.08930   0.30666   0.25653   0.00000  Uiso   1.00
N367   N     0.68994   0.34725   0.39797   0.00000  Uiso   1.00
N368   N     0.57030   0.04386   0.29592   0.00000  Uiso   1.00
