data_job_02648
_audit_creation_date              2018-12-19
_audit_creation_method            'Materials Studio'
_symmetry_space_group_name_H-M    'P1'
_symmetry_Int_Tables_number       1
_symmetry_cell_setting            triclinic
loop_
_symmetry_equiv_pos_as_xyz
  x,y,z
_cell_length_a                    8.0100
_cell_length_b                    19.3882
_cell_length_c                    15.5234
_cell_angle_alpha                 90.0000
_cell_angle_beta                  90.1820
_cell_angle_gamma                 90.0000
loop_
_atom_site_label
_atom_site_type_symbol
_atom_site_fract_x
_atom_site_fract_y
_atom_site_fract_z
_atom_site_U_iso_or_equiv
_atom_site_adp_type
_atom_site_occupancy
C1     C     0.90057   0.90336   0.28203   0.00000  Uiso   1.00
C2     C     0.75762   0.85688   0.31078   0.00000  Uiso   1.00
C3     C     0.77434   0.79487   0.35460   0.00000  Uiso   1.00
C4     C     0.62833   0.76004   0.37511   0.00000  Uiso   1.00
C5     C     0.43025   0.68386   0.42315   0.00000  Uiso   1.00
C6     C     0.87934   0.91250   0.18505   0.00000  Uiso   1.00
C7     C     0.99842   0.89726   0.12315   0.00000  Uiso   1.00
C8     C     0.95487   0.90926   0.03781   0.00000  Uiso   1.00
C9     C     0.94581   0.91948   0.89064   0.00000  Uiso   1.00
C10    C     0.86666   0.97387   0.32182   0.00000  Uiso   1.00
C11    C     0.97510   0.01023   0.37491   0.00000  Uiso   1.00
C12    C     0.92090   0.07391   0.40470   0.00000  Uiso   1.00
C13    C     0.89216   0.17941   0.46990   0.00000  Uiso   1.00
C14    C     0.61152   0.95179   0.24053   0.00000  Uiso   1.00
C15    C     0.60062   0.88319   0.28824   0.00000  Uiso   1.00
C16    C     0.45454   0.84845   0.30869   0.00000  Uiso   1.00
C17    C     0.47105   0.78639   0.35254   0.00000  Uiso   1.00
C18    C     0.72234   0.93881   0.16250   0.00000  Uiso   1.00
C19    C     0.67862   0.95084   0.07724   0.00000  Uiso   1.00
C20    C     0.79759   0.93561   0.01523   0.00000  Uiso   1.00
C21    C     0.70966   0.00018   0.29928   0.00000  Uiso   1.00
C22    C     0.65529   0.06381   0.32900   0.00000  Uiso   1.00
C23    C     0.76362   0.10026   0.38212   0.00000  Uiso   1.00
H24    H     0.02280   0.88288   0.29957   0.00000  Uiso   1.00
H25    H     0.89587   0.77452   0.37203   0.00000  Uiso   1.00
H26    H     0.11990   0.87691   0.14061   0.00000  Uiso   1.00
H27    H     0.09658   0.98986   0.39233   0.00000  Uiso   1.00
H28    H     0.68590   0.66598   0.44239   0.00000  Uiso   1.00
H29    H     0.15832   0.88188   0.95444   0.00000  Uiso   1.00
H30    H     0.10915   0.12007   0.48524   0.00000  Uiso   1.00
H31    H     0.48928   0.97227   0.22298   0.00000  Uiso   1.00
H32    H     0.33306   0.86881   0.29124   0.00000  Uiso   1.00
H33    H     0.55711   0.97120   0.05982   0.00000  Uiso   1.00
H34    H     0.53379   0.08415   0.31154   0.00000  Uiso   1.00
H35    H     0.22911   0.74251   0.37682   0.00000  Uiso   1.00
H36    H     0.70154   0.95841   0.88886   0.00000  Uiso   1.00
H37    H     0.65236   0.19660   0.41966   0.00000  Uiso   1.00
O38    O     0.36437   0.63456   0.45586   0.00000  Uiso   1.00
O39    O     0.98419   0.91784   0.81569   0.00000  Uiso   1.00
O40    O     0.91967   0.23033   0.51209   0.00000  Uiso   1.00
N41    N     0.59983   0.69819   0.41761   0.00000  Uiso   1.00
N42    N     0.04151   0.90004   0.96140   0.00000  Uiso   1.00
N43    N     0.99556   0.12273   0.45763   0.00000  Uiso   1.00
N44    N     0.35404   0.73937   0.38232   0.00000  Uiso   1.00
N45    N     0.79572   0.94122   0.92611   0.00000  Uiso   1.00
N46    N     0.74976   0.16391   0.42235   0.00000  Uiso   1.00
C47    C     0.09943   0.40336   0.21797   0.00000  Uiso   1.00
C48    C     0.24238   0.35688   0.18922   0.00000  Uiso   1.00
C49    C     0.22566   0.29487   0.14540   0.00000  Uiso   1.00
C50    C     0.37167   0.26004   0.12489   0.00000  Uiso   1.00
C51    C     0.56975   0.18386   0.07685   0.00000  Uiso   1.00
C52    C     0.12066   0.41250   0.31495   0.00000  Uiso   1.00
C53    C     0.00158   0.39726   0.37685   0.00000  Uiso   1.00
C54    C     0.04513   0.40926   0.46219   0.00000  Uiso   1.00
C55    C     0.05419   0.41948   0.60936   0.00000  Uiso   1.00
C56    C     0.13334   0.47387   0.17818   0.00000  Uiso   1.00
C57    C     0.02490   0.51023   0.12509   0.00000  Uiso   1.00
C58    C     0.07910   0.57391   0.09530   0.00000  Uiso   1.00
C59    C     0.10784   0.67941   0.03010   0.00000  Uiso   1.00
C60    C     0.38848   0.45179   0.25947   0.00000  Uiso   1.00
C61    C     0.39938   0.38319   0.21176   0.00000  Uiso   1.00
C62    C     0.54546   0.34845   0.19131   0.00000  Uiso   1.00
C63    C     0.52895   0.28639   0.14746   0.00000  Uiso   1.00
C64    C     0.27766   0.43881   0.33750   0.00000  Uiso   1.00
C65    C     0.32138   0.45084   0.42276   0.00000  Uiso   1.00
C66    C     0.20241   0.43561   0.48477   0.00000  Uiso   1.00
C67    C     0.29034   0.50018   0.20072   0.00000  Uiso   1.00
C68    C     0.34471   0.56381   0.17100   0.00000  Uiso   1.00
C69    C     0.23638   0.60026   0.11788   0.00000  Uiso   1.00
H70    H     0.97720   0.38288   0.20043   0.00000  Uiso   1.00
H71    H     0.10413   0.27452   0.12797   0.00000  Uiso   1.00
H72    H     0.88010   0.37691   0.35939   0.00000  Uiso   1.00
H73    H     0.90342   0.48986   0.10767   0.00000  Uiso   1.00
H74    H     0.31410   0.16598   0.05761   0.00000  Uiso   1.00
H75    H     0.84168   0.38188   0.54556   0.00000  Uiso   1.00
H76    H     0.89085   0.62007   0.01476   0.00000  Uiso   1.00
H77    H     0.51072   0.47227   0.27702   0.00000  Uiso   1.00
H78    H     0.66694   0.36881   0.20876   0.00000  Uiso   1.00
H79    H     0.44289   0.47120   0.44018   0.00000  Uiso   1.00
H80    H     0.46621   0.58415   0.18846   0.00000  Uiso   1.00
H81    H     0.77089   0.24251   0.12318   0.00000  Uiso   1.00
H82    H     0.29846   0.45841   0.61114   0.00000  Uiso   1.00
H83    H     0.34764   0.69660   0.08034   0.00000  Uiso   1.00
O84    O     0.63563   0.13456   0.04414   0.00000  Uiso   1.00
O85    O     0.01581   0.41784   0.68431   0.00000  Uiso   1.00
O86    O     0.08033   0.73033   0.98791   0.00000  Uiso   1.00
N87    N     0.40017   0.19819   0.08239   0.00000  Uiso   1.00
N88    N     0.95849   0.40004   0.53860   0.00000  Uiso   1.00
N89    N     0.00444   0.62273   0.04237   0.00000  Uiso   1.00
N90    N     0.64596   0.23937   0.11768   0.00000  Uiso   1.00
N91    N     0.20428   0.44122   0.57389   0.00000  Uiso   1.00
N92    N     0.25024   0.66391   0.07765   0.00000  Uiso   1.00
C93    C     0.09943   0.09664   0.71797   0.00000  Uiso   1.00
C94    C     0.24238   0.14312   0.68922   0.00000  Uiso   1.00
C95    C     0.22566   0.20513   0.64540   0.00000  Uiso   1.00
C96    C     0.37167   0.23996   0.62489   0.00000  Uiso   1.00
C97    C     0.56975   0.31614   0.57685   0.00000  Uiso   1.00
C98    C     0.12066   0.08750   0.81495   0.00000  Uiso   1.00
C99    C     0.00158   0.10274   0.87685   0.00000  Uiso   1.00
C100   C     0.04513   0.09074   0.96219   0.00000  Uiso   1.00
C101   C     0.05419   0.08052   0.10936   0.00000  Uiso   1.00
C102   C     0.13334   0.02613   0.67818   0.00000  Uiso   1.00
C103   C     0.02490   0.98977   0.62509   0.00000  Uiso   1.00
C104   C     0.07910   0.92609   0.59530   0.00000  Uiso   1.00
C105   C     0.10784   0.82059   0.53010   0.00000  Uiso   1.00
C106   C     0.38848   0.04821   0.75947   0.00000  Uiso   1.00
C107   C     0.39938   0.11681   0.71176   0.00000  Uiso   1.00
C108   C     0.54546   0.15155   0.69131   0.00000  Uiso   1.00
C109   C     0.52895   0.21361   0.64746   0.00000  Uiso   1.00
C110   C     0.27766   0.06119   0.83750   0.00000  Uiso   1.00
C111   C     0.32138   0.04916   0.92276   0.00000  Uiso   1.00
C112   C     0.20241   0.06439   0.98477   0.00000  Uiso   1.00
C113   C     0.29034   0.99982   0.70072   0.00000  Uiso   1.00
C114   C     0.34471   0.93619   0.67100   0.00000  Uiso   1.00
C115   C     0.23638   0.89974   0.61788   0.00000  Uiso   1.00
H116   H     0.97720   0.11712   0.70043   0.00000  Uiso   1.00
H117   H     0.10413   0.22548   0.62797   0.00000  Uiso   1.00
H118   H     0.88010   0.12309   0.85939   0.00000  Uiso   1.00
H119   H     0.90342   0.01014   0.60767   0.00000  Uiso   1.00
H120   H     0.31410   0.33402   0.55761   0.00000  Uiso   1.00
H121   H     0.84168   0.11812   0.04556   0.00000  Uiso   1.00
H122   H     0.89085   0.87993   0.51476   0.00000  Uiso   1.00
H123   H     0.51072   0.02773   0.77702   0.00000  Uiso   1.00
H124   H     0.66694   0.13119   0.70876   0.00000  Uiso   1.00
H125   H     0.44289   0.02880   0.94018   0.00000  Uiso   1.00
H126   H     0.46621   0.91585   0.68846   0.00000  Uiso   1.00
H127   H     0.77089   0.25749   0.62318   0.00000  Uiso   1.00
H128   H     0.29846   0.04159   0.11114   0.00000  Uiso   1.00
H129   H     0.34764   0.80340   0.58034   0.00000  Uiso   1.00
O130   O     0.63563   0.36544   0.54414   0.00000  Uiso   1.00
O131   O     0.01581   0.08216   0.18431   0.00000  Uiso   1.00
O132   O     0.08033   0.76967   0.48791   0.00000  Uiso   1.00
N133   N     0.40017   0.30181   0.58239   0.00000  Uiso   1.00
N134   N     0.95849   0.09996   0.03860   0.00000  Uiso   1.00
N135   N     0.00444   0.87727   0.54237   0.00000  Uiso   1.00
N136   N     0.64596   0.26063   0.61768   0.00000  Uiso   1.00
N137   N     0.20428   0.05878   0.07389   0.00000  Uiso   1.00
N138   N     0.25024   0.83609   0.57765   0.00000  Uiso   1.00
C139   C     0.90057   0.59664   0.78203   0.00000  Uiso   1.00
C140   C     0.75762   0.64312   0.81078   0.00000  Uiso   1.00
C141   C     0.77434   0.70513   0.85460   0.00000  Uiso   1.00
C142   C     0.62833   0.73996   0.87511   0.00000  Uiso   1.00
C143   C     0.43025   0.81614   0.92315   0.00000  Uiso   1.00
C144   C     0.87934   0.58750   0.68505   0.00000  Uiso   1.00
C145   C     0.99842   0.60274   0.62315   0.00000  Uiso   1.00
C146   C     0.95487   0.59074   0.53781   0.00000  Uiso   1.00
C147   C     0.94581   0.58052   0.39064   0.00000  Uiso   1.00
C148   C     0.86666   0.52613   0.82182   0.00000  Uiso   1.00
C149   C     0.97510   0.48977   0.87491   0.00000  Uiso   1.00
C150   C     0.92090   0.42609   0.90470   0.00000  Uiso   1.00
C151   C     0.89216   0.32059   0.96990   0.00000  Uiso   1.00
C152   C     0.61152   0.54821   0.74053   0.00000  Uiso   1.00
C153   C     0.60062   0.61681   0.78824   0.00000  Uiso   1.00
C154   C     0.45454   0.65155   0.80869   0.00000  Uiso   1.00
C155   C     0.47105   0.71361   0.85254   0.00000  Uiso   1.00
C156   C     0.72234   0.56119   0.66250   0.00000  Uiso   1.00
C157   C     0.67862   0.54916   0.57724   0.00000  Uiso   1.00
C158   C     0.79759   0.56439   0.51523   0.00000  Uiso   1.00
C159   C     0.70966   0.49982   0.79928   0.00000  Uiso   1.00
C160   C     0.65529   0.43619   0.82900   0.00000  Uiso   1.00
C161   C     0.76362   0.39974   0.88212   0.00000  Uiso   1.00
H162   H     0.02280   0.61712   0.79957   0.00000  Uiso   1.00
H163   H     0.89587   0.72548   0.87203   0.00000  Uiso   1.00
H164   H     0.11990   0.62309   0.64061   0.00000  Uiso   1.00
H165   H     0.09658   0.51014   0.89233   0.00000  Uiso   1.00
H166   H     0.68590   0.83402   0.94239   0.00000  Uiso   1.00
H167   H     0.15832   0.61812   0.45444   0.00000  Uiso   1.00
H168   H     0.10915   0.37993   0.98524   0.00000  Uiso   1.00
H169   H     0.48928   0.52773   0.72298   0.00000  Uiso   1.00
H170   H     0.33306   0.63119   0.79124   0.00000  Uiso   1.00
H171   H     0.55711   0.52880   0.55982   0.00000  Uiso   1.00
H172   H     0.53379   0.41585   0.81154   0.00000  Uiso   1.00
H173   H     0.22911   0.75749   0.87682   0.00000  Uiso   1.00
H174   H     0.70154   0.54159   0.38886   0.00000  Uiso   1.00
H175   H     0.65236   0.30340   0.91966   0.00000  Uiso   1.00
O176   O     0.36437   0.86544   0.95586   0.00000  Uiso   1.00
O177   O     0.98419   0.58216   0.31569   0.00000  Uiso   1.00
O178   O     0.91967   0.26967   0.01209   0.00000  Uiso   1.00
N179   N     0.59983   0.80181   0.91761   0.00000  Uiso   1.00
N180   N     0.04151   0.59996   0.46140   0.00000  Uiso   1.00
N181   N     0.99556   0.37727   0.95763   0.00000  Uiso   1.00
N182   N     0.35404   0.76063   0.88232   0.00000  Uiso   1.00
N183   N     0.79572   0.55878   0.42611   0.00000  Uiso   1.00
N184   N     0.74976   0.33609   0.92235   0.00000  Uiso   1.00
