data_job_06985
_audit_creation_date              2018-12-19
_audit_creation_method            'Materials Studio'
_symmetry_space_group_name_H-M    'P1'
_symmetry_Int_Tables_number       1
_symmetry_cell_setting            triclinic
loop_
_symmetry_equiv_pos_as_xyz
  x,y,z
_cell_length_a                    20.8397
_cell_length_b                    22.0473
_cell_length_c                    24.1283
_cell_angle_alpha                 64.9958
_cell_angle_beta                  73.6471
_cell_angle_gamma                 64.9351
loop_
_atom_site_label
_atom_site_type_symbol
_atom_site_fract_x
_atom_site_fract_y
_atom_site_fract_z
_atom_site_U_iso_or_equiv
_atom_site_adp_type
_atom_site_occupancy
C1     C     0.13542   0.01036   0.56305   0.00000  Uiso   1.00
C2     C     0.13815   0.02785   0.61692   0.00000  Uiso   1.00
C3     C     0.08205   0.07355   0.64368   0.00000  Uiso   1.00
C4     C     0.09530   0.08248   0.69250   0.00000  Uiso   1.00
C5     C     0.08936   0.11507   0.77290   0.00000  Uiso   1.00
C6     C     0.19505   0.02913   0.51351   0.00000  Uiso   1.00
C7     C     0.18679   0.07590   0.45332   0.00000  Uiso   1.00
C8     C     0.24794   0.08589   0.41509   0.00000  Uiso   1.00
C9     C     0.33034   0.12043   0.33492   0.00000  Uiso   1.00
C10    C     0.15756   0.92928   0.58551   0.00000  Uiso   1.00
C11    C     0.11778   0.89208   0.58586   0.00000  Uiso   1.00
C12    C     0.14737   0.81801   0.60823   0.00000  Uiso   1.00
C13    C     0.17156   0.69751   0.63987   0.00000  Uiso   1.00
C14    C     0.25872   0.94495   0.60215   0.00000  Uiso   1.00
C15    C     0.20512   0.99232   0.63816   0.00000  Uiso   1.00
C16    C     0.21846   0.00118   0.68695   0.00000  Uiso   1.00
C17    C     0.16239   0.04688   0.71378   0.00000  Uiso   1.00
C18    C     0.26202   0.99360   0.53475   0.00000  Uiso   1.00
C19    C     0.32320   0.00352   0.49659   0.00000  Uiso   1.00
C20    C     0.31503   0.05030   0.43636   0.00000  Uiso   1.00
C21    C     0.22453   0.89375   0.60676   0.00000  Uiso   1.00
C22    C     0.25419   0.81971   0.62913   0.00000  Uiso   1.00
C23    C     0.21446   0.78241   0.62951   0.00000  Uiso   1.00
H24    H     0.08328   0.03802   0.54651   0.00000  Uiso   1.00
H25    H     0.03023   0.10104   0.62723   0.00000  Uiso   1.00
H26    H     0.13495   0.10338   0.43690   0.00000  Uiso   1.00
H27    H     0.06596   0.91960   0.56942   0.00000  Uiso   1.00
H28    H     0.00095   0.15526   0.72607   0.00000  Uiso   1.00
H29    H     0.22177   0.16017   0.32474   0.00000  Uiso   1.00
H30    H     0.07627   0.77263   0.60419   0.00000  Uiso   1.00
H31    H     0.31086   0.91728   0.61869   0.00000  Uiso   1.00
H32    H     0.27030   0.97367   0.70338   0.00000  Uiso   1.00
H33    H     0.37502   0.97601   0.51304   0.00000  Uiso   1.00
H34    H     0.30602   0.79223   0.64556   0.00000  Uiso   1.00
H35    H     0.19580   0.05189   0.78788   0.00000  Uiso   1.00
H36    H     0.41662   0.05680   0.38654   0.00000  Uiso   1.00
H37    H     0.27112   0.66926   0.66599   0.00000  Uiso   1.00
O38    O     0.06759   0.14287   0.81137   0.00000  Uiso   1.00
O39    O     0.35729   0.14930   0.28484   0.00000  Uiso   1.00
O40    O     0.16640   0.64086   0.65146   0.00000  Uiso   1.00
N41    N     0.05237   0.12318   0.72901   0.00000  Uiso   1.00
N42    N     0.25882   0.12778   0.35379   0.00000  Uiso   1.00
N43    N     0.12280   0.76546   0.61503   0.00000  Uiso   1.00
N44    N     0.15722   0.06756   0.76226   0.00000  Uiso   1.00
N45    N     0.36367   0.07216   0.38704   0.00000  Uiso   1.00
N46    N     0.22765   0.70984   0.64828   0.00000  Uiso   1.00
C47    C     0.67851   0.23914   0.33926   0.00000  Uiso   1.00
C48    C     0.72214   0.16600   0.38042   0.00000  Uiso   1.00
C49    C     0.79608   0.13565   0.37431   0.00000  Uiso   1.00
C50    C     0.82582   0.06823   0.41658   0.00000  Uiso   1.00
C51    C     0.90006   0.96009   0.47337   0.00000  Uiso   1.00
C52    C     0.62800   0.22600   0.31414   0.00000  Uiso   1.00
C53    C     0.62279   0.24610   0.25229   0.00000  Uiso   1.00
C54    C     0.57329   0.22920   0.23877   0.00000  Uiso   1.00
C55    C     0.50135   0.21424   0.19266   0.00000  Uiso   1.00
C56    C     0.63148   0.28036   0.38213   0.00000  Uiso   1.00
C57    C     0.62917   0.34617   0.37744   0.00000  Uiso   1.00
C58    C     0.58257   0.37504   0.42116   0.00000  Uiso   1.00
C59    C     0.51603   0.44449   0.48061   0.00000  Uiso   1.00
C60    C     0.59984   0.17339   0.42521   0.00000  Uiso   1.00
C61    C     0.67940   0.13029   0.42710   0.00000  Uiso   1.00
C62    C     0.70904   0.06290   0.46940   0.00000  Uiso   1.00
C63    C     0.78302   0.03246   0.46335   0.00000  Uiso   1.00
C64    C     0.58527   0.19029   0.36082   0.00000  Uiso   1.00
C65    C     0.53576   0.17336   0.34739   0.00000  Uiso   1.00
C66    C     0.53048   0.19342   0.28554   0.00000  Uiso   1.00
C67    C     0.58874   0.24465   0.42881   0.00000  Uiso   1.00
C68    C     0.54214   0.27343   0.47254   0.00000  Uiso   1.00
C69    C     0.53977   0.33927   0.46793   0.00000  Uiso   1.00
H70    H     0.71177   0.26694   0.30291   0.00000  Uiso   1.00
H71    H     0.82913   0.16330   0.33817   0.00000  Uiso   1.00
H72    H     0.65586   0.27374   0.21618   0.00000  Uiso   1.00
H73    H     0.66225   0.37379   0.34131   0.00000  Uiso   1.00
H74    H     0.94040   0.03263   0.39783   0.00000  Uiso   1.00
H75    H     0.57504   0.26552   0.14060   0.00000  Uiso   1.00
H76    H     0.58849   0.47651   0.40447   0.00000  Uiso   1.00
H77    H     0.56657   0.14559   0.46156   0.00000  Uiso   1.00
H78    H     0.67596   0.03528   0.50552   0.00000  Uiso   1.00
H79    H     0.50270   0.14572   0.38353   0.00000  Uiso   1.00
H80    H     0.50908   0.24578   0.50866   0.00000  Uiso   1.00
H81    H     0.81608   0.92873   0.53366   0.00000  Uiso   1.00
H82    H     0.45072   0.16162   0.27643   0.00000  Uiso   1.00
H83    H     0.46418   0.37260   0.54030   0.00000  Uiso   1.00
O84    O     0.95282   0.91030   0.49179   0.00000  Uiso   1.00
O85    O     0.47348   0.21585   0.15432   0.00000  Uiso   1.00
O86    O     0.49113   0.49266   0.50051   0.00000  Uiso   1.00
N87    N     0.89613   0.02332   0.42377   0.00000  Uiso   1.00
N88    N     0.55455   0.24105   0.18328   0.00000  Uiso   1.00
N89    N     0.56711   0.43831   0.42996   0.00000  Uiso   1.00
N90    N     0.82923   0.96741   0.49686   0.00000  Uiso   1.00
N91    N     0.48766   0.18514   0.25637   0.00000  Uiso   1.00
N92    N     0.50022   0.38240   0.50305   0.00000  Uiso   1.00
C93    C     0.75319   0.66315   0.42476   0.00000  Uiso   1.00
C94    C     0.72731   0.60177   0.46842   0.00000  Uiso   1.00
C95    C     0.71221   0.55718   0.45105   0.00000  Uiso   1.00
C96    C     0.68915   0.50420   0.49794   0.00000  Uiso   1.00
C97    C     0.65009   0.41014   0.55630   0.00000  Uiso   1.00
C98    C     0.69966   0.72957   0.43877   0.00000  Uiso   1.00
C99    C     0.66132   0.79244   0.39647   0.00000  Uiso   1.00
C100   C     0.61499   0.84704   0.41841   0.00000  Uiso   1.00
C101   C     0.53304   0.95141   0.43073   0.00000  Uiso   1.00
C102   C     0.82295   0.64797   0.44533   0.00000  Uiso   1.00
C103   C     0.88828   0.64225   0.40853   0.00000  Uiso   1.00
C104   C     0.94576   0.62817   0.43598   0.00000  Uiso   1.00
C105   C     0.05524   0.60584   0.45848   0.00000  Uiso   1.00
C106   C     0.73910   0.64835   0.53893   0.00000  Uiso   1.00
C107   C     0.71965   0.59374   0.53043   0.00000  Uiso   1.00
C108   C     0.69662   0.54081   0.57737   0.00000  Uiso   1.00
C109   C     0.68149   0.49614   0.56007   0.00000  Uiso   1.00
C110   C     0.69200   0.72154   0.50078   0.00000  Uiso   1.00
C111   C     0.64573   0.77606   0.52279   0.00000  Uiso   1.00
C112   C     0.60733   0.83899   0.48053   0.00000  Uiso   1.00
C113   C     0.81530   0.63993   0.50734   0.00000  Uiso   1.00
C114   C     0.87268   0.62587   0.53485   0.00000  Uiso   1.00
C115   C     0.93809   0.62012   0.49811   0.00000  Uiso   1.00
H116   H     0.75915   0.66941   0.37648   0.00000  Uiso   1.00
H117   H     0.71813   0.56342   0.40305   0.00000  Uiso   1.00
H118   H     0.66726   0.79864   0.34848   0.00000  Uiso   1.00
H119   H     0.89418   0.64847   0.36054   0.00000  Uiso   1.00
H120   H     0.66926   0.44238   0.45986   0.00000  Uiso   1.00
H121   H     0.56200   0.93837   0.34479   0.00000  Uiso   1.00
H122   H     0.04051   0.62170   0.37022   0.00000  Uiso   1.00
H123   H     0.73314   0.64210   0.58722   0.00000  Uiso   1.00
H124   H     0.69070   0.53460   0.62536   0.00000  Uiso   1.00
H125   H     0.63982   0.76982   0.57078   0.00000  Uiso   1.00
H126   H     0.86674   0.61965   0.58285   0.00000  Uiso   1.00
H127   H     0.64699   0.41899   0.64029   0.00000  Uiso   1.00
H128   H     0.53973   0.91498   0.52522   0.00000  Uiso   1.00
H129   H     0.01824   0.59831   0.55066   0.00000  Uiso   1.00
O130   O     0.63065   0.36048   0.57136   0.00000  Uiso   1.00
O131   O     0.48995   0.01120   0.42039   0.00000  Uiso   1.00
O132   O     0.11774   0.59574   0.45376   0.00000  Uiso   1.00
N133   N     0.66986   0.45162   0.49709   0.00000  Uiso   1.00
N134   N     0.56957   0.91533   0.38951   0.00000  Uiso   1.00
N135   N     0.01693   0.61930   0.41328   0.00000  Uiso   1.00
N136   N     0.65787   0.43903   0.59418   0.00000  Uiso   1.00
N137   N     0.55759   0.90275   0.48660   0.00000  Uiso   1.00
N138   N     0.00495   0.60671   0.51037   0.00000  Uiso   1.00
C139   C     0.13422   0.63672   0.90740   0.00000  Uiso   1.00
C140   C     0.19346   0.61641   0.94418   0.00000  Uiso   1.00
C141   C     0.26548   0.58049   0.93029   0.00000  Uiso   1.00
C142   C     0.31119   0.56694   0.96966   0.00000  Uiso   1.00
C143   C     0.40706   0.53215   0.01894   0.00000  Uiso   1.00
C144   C     0.09691   0.71739   0.89009   0.00000  Uiso   1.00
C145   C     0.08773   0.76636   0.83073   0.00000  Uiso   1.00
C146   C     0.05215   0.83781   0.82456   0.00000  Uiso   1.00
C147   C     0.99807   0.95978   0.78988   0.00000  Uiso   1.00
C148   C     0.08017   0.60364   0.95275   0.00000  Uiso   1.00
C149   C     0.05689   0.55700   0.94605   0.00000  Uiso   1.00
C150   C     0.00721   0.53270   0.99263   0.00000  Uiso   1.00
C151   C     0.92714   0.47806   0.05522   0.00000  Uiso   1.00
C152   C     0.08735   0.67652   0.00201   0.00000  Uiso   1.00
C153   C     0.16800   0.63803   0.99557   0.00000  Uiso   1.00
C154   C     0.21362   0.62453   0.03497   0.00000  Uiso   1.00
C155   C     0.28569   0.58859   0.02114   0.00000  Uiso   1.00
C156   C     0.07145   0.73901   0.94148   0.00000  Uiso   1.00
C157   C     0.03587   0.81040   0.93541   0.00000  Uiso   1.00
C158   C     0.02665   0.85947   0.87605   0.00000  Uiso   1.00
C159   C     0.05471   0.62526   0.00414   0.00000  Uiso   1.00
C160   C     0.00505   0.60104   0.05073   0.00000  Uiso   1.00
C161   C     0.98171   0.55436   0.04411   0.00000  Uiso   1.00
H162   H     0.15403   0.61989   0.86739   0.00000  Uiso   1.00
H163   H     0.28516   0.56377   0.89051   0.00000  Uiso   1.00
H164   H     0.10743   0.74961   0.79097   0.00000  Uiso   1.00
H165   H     0.07661   0.54028   0.90628   0.00000  Uiso   1.00
H166   H     0.41931   0.51111   0.93881   0.00000  Uiso   1.00
H167   H     0.04454   0.90297   0.72891   0.00000  Uiso   1.00
H168   H     0.97954   0.46154   0.97206   0.00000  Uiso   1.00
H169   H     0.06753   0.69336   0.04202   0.00000  Uiso   1.00
H170   H     0.19391   0.64127   0.07474   0.00000  Uiso   1.00
H171   H     0.01618   0.82711   0.97519   0.00000  Uiso   1.00
H172   H     0.98536   0.61778   0.09050   0.00000  Uiso   1.00
H173   H     0.34525   0.57402   0.08833   0.00000  Uiso   1.00
H174   H     0.97047   0.96587   0.87843   0.00000  Uiso   1.00
H175   H     0.90548   0.52445   0.12158   0.00000  Uiso   1.00
O176   O     0.46698   0.50699   0.03192   0.00000  Uiso   1.00
O177   O     0.97528   0.02109   0.75655   0.00000  Uiso   1.00
O178   O     0.89001   0.44195   0.07556   0.00000  Uiso   1.00
N179   N     0.38453   0.53305   0.96951   0.00000  Uiso   1.00
N180   N     0.03415   0.89941   0.77327   0.00000  Uiso   1.00
N181   N     0.97337   0.48674   0.00059   0.00000  Uiso   1.00
N182   N     0.34468   0.56690   0.04997   0.00000  Uiso   1.00
N183   N     0.99430   0.93326   0.85372   0.00000  Uiso   1.00
N184   N     0.93352   0.52058   0.08104   0.00000  Uiso   1.00
C185   C     0.24369   0.96898   0.10198   0.00000  Uiso   1.00
C186   C     0.21249   0.00458   0.15050   0.00000  Uiso   1.00
C187   C     0.22602   0.06144   0.14968   0.00000  Uiso   1.00
C188   C     0.19229   0.08637   0.19832   0.00000  Uiso   1.00
C189   C     0.15076   0.14638   0.26639   0.00000  Uiso   1.00
C190   C     0.18004   0.97350   0.07916   0.00000  Uiso   1.00
C191   C     0.16628   0.00421   0.01835   0.00000  Uiso   1.00
C192   C     0.10524   0.00298   0.00694   0.00000  Uiso   1.00
C193   C     0.01335   0.01468   0.96425   0.00000  Uiso   1.00
C194   C     0.28100   0.88993   0.13649   0.00000  Uiso   1.00
C195   C     0.35214   0.85035   0.12387   0.00000  Uiso   1.00
C196   C     0.37609   0.77874   0.16072   0.00000  Uiso   1.00
C197   C     0.44097   0.66068   0.20704   0.00000  Uiso   1.00
C198   C     0.15974   0.91217   0.18985   0.00000  Uiso   1.00
C199   C     0.16689   0.97373   0.19823   0.00000  Uiso   1.00
C200   C     0.13314   0.99858   0.24689   0.00000  Uiso   1.00
C201   C     0.14661   0.05546   0.24614   0.00000  Uiso   1.00
C202   C     0.13444   0.94265   0.12689   0.00000  Uiso   1.00
C203   C     0.07340   0.94136   0.11557   0.00000  Uiso   1.00
C204   C     0.05956   0.97207   0.05476   0.00000  Uiso   1.00
C205   C     0.23541   0.85907   0.18422   0.00000  Uiso   1.00
C206   C     0.25926   0.78750   0.22109   0.00000  Uiso   1.00
C207   C     0.33041   0.74783   0.20854   0.00000  Uiso   1.00
H208   H     0.27919   0.99300   0.06482   0.00000  Uiso   1.00
H209   H     0.26131   0.08531   0.11273   0.00000  Uiso   1.00
H210   H     0.20158   0.02808   0.98143   0.00000  Uiso   1.00
H211   H     0.38741   0.87425   0.08693   0.00000  Uiso   1.00
H212   H     0.22135   0.17405   0.18688   0.00000  Uiso   1.00
H213   H     0.09544   0.05337   0.91002   0.00000  Uiso   1.00
H214   H     0.48728   0.72898   0.13250   0.00000  Uiso   1.00
H215   H     0.12424   0.88814   0.22701   0.00000  Uiso   1.00
H216   H     0.09786   0.97469   0.28382   0.00000  Uiso   1.00
H217   H     0.03813   0.91747   0.15252   0.00000  Uiso   1.00
H218   H     0.22396   0.76364   0.25803   0.00000  Uiso   1.00
H219   H     0.08869   0.08427   0.32574   0.00000  Uiso   1.00
H220   H     0.96277   0.96360   0.04888   0.00000  Uiso   1.00
H221   H     0.35462   0.63921   0.27136   0.00000  Uiso   1.00
O222   O     0.14044   0.18800   0.29074   0.00000  Uiso   1.00
O223   O     0.97525   0.02967   0.92751   0.00000  Uiso   1.00
O224   O     0.48935   0.60408   0.21940   0.00000  Uiso   1.00
N225   N     0.19376   0.14103   0.21177   0.00000  Uiso   1.00
N226   N     0.07603   0.02822   0.95292   0.00000  Uiso   1.00
N227   N     0.44237   0.72494   0.16091   0.00000  Uiso   1.00
N228   N     0.12238   0.09273   0.28649   0.00000  Uiso   1.00
N229   N     0.00465   0.97991   0.02764   0.00000  Uiso   1.00
N230   N     0.37099   0.67663   0.23564   0.00000  Uiso   1.00
C231   C     0.66336   0.25599   0.00037   0.00000  Uiso   1.00
C232   C     0.67142   0.18663   0.05552   0.00000  Uiso   1.00
C233   C     0.62173   0.15253   0.08123   0.00000  Uiso   1.00
C234   C     0.63912   0.08959   0.13153   0.00000  Uiso   1.00
C235   C     0.64181   0.98609   0.21354   0.00000  Uiso   1.00
C236   C     0.72813   0.23911   0.95314   0.00000  Uiso   1.00
C237   C     0.72610   0.24915   0.89278   0.00000  Uiso   1.00
C238   C     0.79122   0.23040   0.85689   0.00000  Uiso   1.00
C239   C     0.88194   0.20844   0.77995   0.00000  Uiso   1.00
C240   C     0.67224   0.30717   0.02231   0.00000  Uiso   1.00
C241   C     0.62323   0.37445   0.02009   0.00000  Uiso   1.00
C242   C     0.64131   0.41300   0.04243   0.00000  Uiso   1.00
C243   C     0.64525   0.49672   0.07289   0.00000  Uiso   1.00
C244   C     0.78259   0.20484   0.04396   0.00000  Uiso   1.00
C245   C     0.73619   0.15885   0.07920   0.00000  Uiso   1.00
C246   C     0.75365   0.09594   0.12947   0.00000  Uiso   1.00
C247   C     0.70400   0.06176   0.15525   0.00000  Uiso   1.00
C248   C     0.79289   0.21133   0.97682   0.00000  Uiso   1.00
C249   C     0.85802   0.19256   0.94102   0.00000  Uiso   1.00
C250   C     0.85610   0.20257   0.88062   0.00000  Uiso   1.00
C251   C     0.73700   0.27939   0.04599   0.00000  Uiso   1.00
C252   C     0.75515   0.31785   0.06833   0.00000  Uiso   1.00
C253   C     0.70619   0.38517   0.06615   0.00000  Uiso   1.00
H254   H     0.61294   0.27761   0.98193   0.00000  Uiso   1.00
H255   H     0.57162   0.17404   0.06289   0.00000  Uiso   1.00
H256   H     0.67598   0.27066   0.87446   0.00000  Uiso   1.00
H257   H     0.57312   0.39593   0.00176   0.00000  Uiso   1.00
H258   H     0.55439   0.04695   0.16308   0.00000  Uiso   1.00
H259   H     0.77443   0.25069   0.76577   0.00000  Uiso   1.00
H260   H     0.55754   0.51485   0.03420   0.00000  Uiso   1.00
H261   H     0.83302   0.18321   0.06240   0.00000  Uiso   1.00
H262   H     0.80378   0.07445   0.14778   0.00000  Uiso   1.00
H263   H     0.90813   0.17107   0.95936   0.00000  Uiso   1.00
H264   H     0.80528   0.29634   0.08666   0.00000  Uiso   1.00
H265   H     0.74281   0.96612   0.23198   0.00000  Uiso   1.00
H266   H     0.96285   0.16986   0.83467   0.00000  Uiso   1.00
H267   H     0.74596   0.43402   0.10310   0.00000  Uiso   1.00
O268   O     0.62540   0.93668   0.25223   0.00000  Uiso   1.00
O269   O     0.91409   0.20400   0.73097   0.00000  Uiso   1.00
O270   O     0.62953   0.55056   0.08315   0.00000  Uiso   1.00
N271   N     0.60274   0.04286   0.16758   0.00000  Uiso   1.00
N272   N     0.80846   0.23333   0.79613   0.00000  Uiso   1.00
N273   N     0.60570   0.48031   0.04707   0.00000  Uiso   1.00
N274   N     0.70413   0.99936   0.20466   0.00000  Uiso   1.00
N275   N     0.90985   0.18984   0.83320   0.00000  Uiso   1.00
N276   N     0.70709   0.43681   0.08415   0.00000  Uiso   1.00
C277   C     0.93543   0.85239   0.33680   0.00000  Uiso   1.00
C278   C     0.91099   0.82205   0.30350   0.00000  Uiso   1.00
C279   C     0.95526   0.77379   0.27407   0.00000  Uiso   1.00
C280   C     0.92253   0.75251   0.24632   0.00000  Uiso   1.00
C281   C     0.89589   0.70141   0.19439   0.00000  Uiso   1.00
C282   C     0.89681   0.83459   0.40228   0.00000  Uiso   1.00
C283   C     0.92916   0.79688   0.45590   0.00000  Uiso   1.00
C284   C     0.88449   0.78616   0.51130   0.00000  Uiso   1.00
C285   C     0.83583   0.75457   0.61273   0.00000  Uiso   1.00
C286   C     0.90472   0.93343   0.30672   0.00000  Uiso   1.00
C287   C     0.94370   0.97882   0.27999   0.00000  Uiso   1.00
C288   C     0.90569   0.05132   0.25495   0.00000  Uiso   1.00
C289   C     0.86930   0.17319   0.20799   0.00000  Uiso   1.00
C290   C     0.79860   0.90042   0.33986   0.00000  Uiso   1.00
C291   C     0.83667   0.84814   0.30517   0.00000  Uiso   1.00
C292   C     0.80386   0.82693   0.27745   0.00000  Uiso   1.00
C293   C     0.84807   0.77864   0.24797   0.00000  Uiso   1.00
C294   C     0.82249   0.86068   0.40394   0.00000  Uiso   1.00
C295   C     0.77777   0.85002   0.45928   0.00000  Uiso   1.00
C296   C     0.81003   0.81229   0.51296   0.00000  Uiso   1.00
C297   C     0.83039   0.95952   0.30837   0.00000  Uiso   1.00
C298   C     0.79231   0.03196   0.28337   0.00000  Uiso   1.00
C299   C     0.83123   0.07746   0.25661   0.00000  Uiso   1.00
H300   H     0.99329   0.83207   0.33552   0.00000  Uiso   1.00
H301   H     0.01277   0.75361   0.27280   0.00000  Uiso   1.00
H302   H     0.98668   0.77670   0.45460   0.00000  Uiso   1.00
H303   H     0.00122   0.95861   0.27872   0.00000  Uiso   1.00
H304   H     0.00159   0.67809   0.20402   0.00000  Uiso   1.00
H305   H     0.94656   0.72681   0.58736   0.00000  Uiso   1.00
H306   H     0.97723   0.11041   0.21648   0.00000  Uiso   1.00
H307   H     0.74073   0.92073   0.34115   0.00000  Uiso   1.00
H308   H     0.74635   0.84713   0.27874   0.00000  Uiso   1.00
H309   H     0.72025   0.87022   0.46054   0.00000  Uiso   1.00
H310   H     0.73479   0.05213   0.28466   0.00000  Uiso   1.00
H311   H     0.78535   0.75400   0.20884   0.00000  Uiso   1.00
H312   H     0.73032   0.80271   0.59218   0.00000  Uiso   1.00
H313   H     0.76099   0.18632   0.22130   0.00000  Uiso   1.00
O314   O     0.90172   0.66601   0.16529   0.00000  Uiso   1.00
O315   O     0.82953   0.72993   0.66822   0.00000  Uiso   1.00
O316   O     0.86976   0.23321   0.18163   0.00000  Uiso   1.00
N317   N     0.94993   0.70607   0.21371   0.00000  Uiso   1.00
N318   N     0.89848   0.75160   0.57211   0.00000  Uiso   1.00
N319   N     0.92715   0.11025   0.22538   0.00000  Uiso   1.00
N320   N     0.83357   0.74691   0.21630   0.00000  Uiso   1.00
N321   N     0.78212   0.79245   0.57470   0.00000  Uiso   1.00
N322   N     0.81079   0.15109   0.22798   0.00000  Uiso   1.00
C323   C     0.27560   0.62394   0.51311   0.00000  Uiso   1.00
C324   C     0.24504   0.70449   0.48006   0.00000  Uiso   1.00
C325   C     0.17357   0.74720   0.48504   0.00000  Uiso   1.00
C326   C     0.15643   0.81969   0.45109   0.00000  Uiso   1.00
C327   C     0.10100   0.94040   0.40551   0.00000  Uiso   1.00
C328   C     0.33222   0.61163   0.54908   0.00000  Uiso   1.00
C329   C     0.33405   0.57625   0.61209   0.00000  Uiso   1.00
C330   C     0.39030   0.57058   0.63624   0.00000  Uiso   1.00
C331   C     0.47024   0.54707   0.69781   0.00000  Uiso   1.00
C332   C     0.31577   0.59191   0.46279   0.00000  Uiso   1.00
C333   C     0.30379   0.53993   0.45325   0.00000  Uiso   1.00
C334   C     0.34620   0.51764   0.40476   0.00000  Uiso   1.00
C335   C     0.40060   0.46351   0.33235   0.00000  Uiso   1.00
C336   C     0.37224   0.67675   0.44395   0.00000  Uiso   1.00
C337   C     0.29753   0.73317   0.44250   0.00000  Uiso   1.00
C338   C     0.28049   0.80562   0.40853   0.00000  Uiso   1.00
C339   C     0.20901   0.84843   0.41346   0.00000  Uiso   1.00
C340   C     0.38471   0.64031   0.51152   0.00000  Uiso   1.00
C341   C     0.44097   0.63468   0.53558   0.00000  Uiso   1.00
C342   C     0.44289   0.59931   0.59861   0.00000  Uiso   1.00
C343   C     0.36826   0.62059   0.42523   0.00000  Uiso   1.00
C344   C     0.41071   0.59836   0.37674   0.00000  Uiso   1.00
C345   C     0.39879   0.54637   0.36713   0.00000  Uiso   1.00
H346   H     0.23474   0.60161   0.54235   0.00000  Uiso   1.00
H347   H     0.13297   0.72498   0.51412   0.00000  Uiso   1.00
H348   H     0.29343   0.55406   0.64115   0.00000  Uiso   1.00
H349   H     0.26316   0.51775   0.48233   0.00000  Uiso   1.00
H350   H     0.04329   0.87441   0.46627   0.00000  Uiso   1.00
H351   H     0.38164   0.51399   0.73411   0.00000  Uiso   1.00
H352   H     0.31783   0.43742   0.39922   0.00000  Uiso   1.00
H353   H     0.41311   0.69908   0.41471   0.00000  Uiso   1.00
H354   H     0.32112   0.82780   0.37947   0.00000  Uiso   1.00
H355   H     0.48158   0.65688   0.50650   0.00000  Uiso   1.00
H356   H     0.45132   0.62057   0.34768   0.00000  Uiso   1.00
H357   H     0.19600   0.95786   0.35698   0.00000  Uiso   1.00
H358   H     0.53435   0.59744   0.62483   0.00000  Uiso   1.00
H359   H     0.47054   0.52087   0.28993   0.00000  Uiso   1.00
O360   O     0.05592   0.99906   0.39076   0.00000  Uiso   1.00
O361   O     0.49983   0.52619   0.74216   0.00000  Uiso   1.00
O362   O     0.41611   0.42573   0.30279   0.00000  Uiso   1.00
N363   N     0.09185   0.87638   0.44537   0.00000  Uiso   1.00
N364   N     0.40818   0.53942   0.69579   0.00000  Uiso   1.00
N365   N     0.34854   0.46782   0.38271   0.00000  Uiso   1.00
N366   N     0.17403   0.92129   0.38657   0.00000  Uiso   1.00
N367   N     0.49036   0.58433   0.63699   0.00000  Uiso   1.00
N368   N     0.43071   0.51273   0.32390   0.00000  Uiso   1.00
C369   C     0.11369   0.41755   0.43243   0.00000  Uiso   1.00
C370   C     0.16104   0.43868   0.37192   0.00000  Uiso   1.00
C371   C     0.17850   0.49997   0.34693   0.00000  Uiso   1.00
C372   C     0.22257   0.50959   0.29115   0.00000  Uiso   1.00
C373   C     0.29222   0.54997   0.20173   0.00000  Uiso   1.00
C374   C     0.15844   0.34354   0.47147   0.00000  Uiso   1.00
C375   C     0.17370   0.32483   0.53017   0.00000  Uiso   1.00
C376   C     0.21557   0.25436   0.55818   0.00000  Uiso   1.00
C377   C     0.28113   0.14703   0.62332   0.00000  Uiso   1.00
C378   C     0.05394   0.40746   0.41647   0.00000  Uiso   1.00
C379   C     0.98134   0.44248   0.42895   0.00000  Uiso   1.00
C380   C     0.93523   0.42582   0.41067   0.00000  Uiso   1.00
C381   C     0.83855   0.41773   0.39042   0.00000  Uiso   1.00
C382   C     0.16089   0.32567   0.37780   0.00000  Uiso   1.00
C383   C     0.18668   0.38877   0.34226   0.00000  Uiso   1.00
C384   C     0.23072   0.39831   0.28649   0.00000  Uiso   1.00
C385   C     0.24825   0.45959   0.26142   0.00000  Uiso   1.00
C386   C     0.18407   0.29363   0.44180   0.00000  Uiso   1.00
C387   C     0.22592   0.22317   0.46973   0.00000  Uiso   1.00
C388   C     0.24125   0.20436   0.52846   0.00000  Uiso   1.00
C389   C     0.07958   0.35755   0.38680   0.00000  Uiso   1.00
C390   C     0.03357   0.34082   0.36850   0.00000  Uiso   1.00
C391   C     0.96091   0.37582   0.38095   0.00000  Uiso   1.00
H392   H     0.09373   0.45641   0.45553   0.00000  Uiso   1.00
H393   H     0.15865   0.53857   0.36991   0.00000  Uiso   1.00
H394   H     0.15385   0.36347   0.55312   0.00000  Uiso   1.00
H395   H     0.96152   0.48110   0.45191   0.00000  Uiso   1.00
H396   H     0.24196   0.60765   0.26191   0.00000  Uiso   1.00
H397   H     0.23181   0.23842   0.64822   0.00000  Uiso   1.00
H398   H     0.82625   0.48648   0.43480   0.00000  Uiso   1.00
H399   H     0.18085   0.28681   0.35471   0.00000  Uiso   1.00
H400   H     0.25056   0.35967   0.26354   0.00000  Uiso   1.00
H401   H     0.24575   0.18456   0.44676   0.00000  Uiso   1.00
H402   H     0.05342   0.30220   0.34554   0.00000  Uiso   1.00
H403   H     0.31656   0.46245   0.17558   0.00000  Uiso   1.00
H404   H     0.30640   0.09321   0.56190   0.00000  Uiso   1.00
H405   H     0.90084   0.34127   0.34847   0.00000  Uiso   1.00
O406   O     0.32356   0.58603   0.16060   0.00000  Uiso   1.00
O407   O     0.31023   0.10161   0.66744   0.00000  Uiso   1.00
O408   O     0.77814   0.42706   0.38743   0.00000  Uiso   1.00
N409   N     0.24994   0.56348   0.25409   0.00000  Uiso   1.00
N410   N     0.24046   0.21828   0.61527   0.00000  Uiso   1.00
N411   N     0.86129   0.45018   0.41576   0.00000  Uiso   1.00
N412   N     0.29008   0.48535   0.20764   0.00000  Uiso   1.00
N413   N     0.28059   0.14015   0.56882   0.00000  Uiso   1.00
N414   N     0.90143   0.37204   0.36930   0.00000  Uiso   1.00
C415   C     0.87995   0.44740   0.89308   0.00000  Uiso   1.00
C416   C     0.86024   0.42964   0.84692   0.00000  Uiso   1.00
C417   C     0.79142   0.44437   0.83813   0.00000  Uiso   1.00
C418   C     0.78463   0.42384   0.79364   0.00000  Uiso   1.00
C419   C     0.74491   0.40141   0.72721   0.00000  Uiso   1.00
C420   C     0.92857   0.37692   0.93321   0.00000  Uiso   1.00
C421   C     0.91720   0.34734   0.99698   0.00000  Uiso   1.00
C422   C     0.96793   0.28243   0.02514   0.00000  Uiso   1.00
C423   C     0.03432   0.17818   0.09270   0.00000  Uiso   1.00
C424   C     0.92664   0.49270   0.85569   0.00000  Uiso   1.00
C425   C     0.91365   0.56046   0.85429   0.00000  Uiso   1.00
C426   C     0.96276   0.59303   0.81719   0.00000  Uiso   1.00
C427   C     0.02615   0.66853   0.76438   0.00000  Uiso   1.00
C428   C     0.99027   0.38474   0.82971   0.00000  Uiso   1.00
C429   C     0.92017   0.39560   0.81250   0.00000  Uiso   1.00
C430   C     0.91348   0.37505   0.76801   0.00000  Uiso   1.00
C431   C     0.84466   0.38975   0.75915   0.00000  Uiso   1.00
C432   C     0.98849   0.34288   0.89879   0.00000  Uiso   1.00
C433   C     0.03926   0.27801   0.92686   0.00000  Uiso   1.00
C434   C     0.02796   0.24834   0.99066   0.00000  Uiso   1.00
C435   C     0.98656   0.45866   0.82127   0.00000  Uiso   1.00
C436   C     0.03571   0.49113   0.78417   0.00000  Uiso   1.00
C437   C     0.02279   0.55893   0.78270   0.00000  Uiso   1.00
H438   H     0.83330   0.47389   0.91989   0.00000  Uiso   1.00
H439   H     0.74506   0.47071   0.86478   0.00000  Uiso   1.00
H440   H     0.87082   0.37369   0.02361   0.00000  Uiso   1.00
H441   H     0.86727   0.58678   0.88093   0.00000  Uiso   1.00
H442   H     0.67366   0.45214   0.78852   0.00000  Uiso   1.00
H443   H     0.93885   0.24759   0.12342   0.00000  Uiso   1.00
H444   H     0.93136   0.69693   0.82256   0.00000  Uiso   1.00
H445   H     0.03693   0.35824   0.80291   0.00000  Uiso   1.00
H446   H     0.95986   0.34871   0.74138   0.00000  Uiso   1.00
H447   H     0.08562   0.25169   0.90021   0.00000  Uiso   1.00
H448   H     0.08207   0.46478   0.75754   0.00000  Uiso   1.00
H449   H     0.84800   0.35312   0.68836   0.00000  Uiso   1.00
H450   H     0.11319   0.14857   0.02327   0.00000  Uiso   1.00
H451   H     0.10570   0.59790   0.72241   0.00000  Uiso   1.00
O452   O     0.70646   0.39842   0.70009   0.00000  Uiso   1.00
O453   O     0.05438   0.13007   0.13947   0.00000  Uiso   1.00
O454   O     0.04456   0.71959   0.74475   0.00000  Uiso   1.00
N455   N     0.72526   0.43016   0.77338   0.00000  Uiso   1.00
N456   N     0.97320   0.23891   0.08650   0.00000  Uiso   1.00
N457   N     0.96621   0.65899   0.80523   0.00000  Uiso   1.00
N458   N     0.81907   0.37687   0.71949   0.00000  Uiso   1.00
N459   N     0.06701   0.18562   0.03260   0.00000  Uiso   1.00
N460   N     0.06002   0.60571   0.75134   0.00000  Uiso   1.00
C461   C     0.71799   0.98093   0.79915   0.00000  Uiso   1.00
C462   C     0.78107   0.94990   0.75652   0.00000  Uiso   1.00
C463   C     0.79706   0.88668   0.74744   0.00000  Uiso   1.00
C464   C     0.85711   0.86751   0.70654   0.00000  Uiso   1.00
C465   C     0.94861   0.81285   0.64503   0.00000  Uiso   1.00
C466   C     0.74975   0.99061   0.84327   0.00000  Uiso   1.00
C467   C     0.73939   0.96162   0.90713   0.00000  Uiso   1.00
C468   C     0.77308   0.97673   0.93926   0.00000  Uiso   1.00
C469   C     0.81591   0.98531   0.01244   0.00000  Uiso   1.00
C470   C     0.67677   0.05599   0.75896   0.00000  Uiso   1.00
C471   C     0.60504   0.08198   0.75194   0.00000  Uiso   1.00
C472   C     0.57727   0.15216   0.71309   0.00000  Uiso   1.00
C473   C     0.50679   0.26225   0.65537   0.00000  Uiso   1.00
C474   C     0.79621   0.05933   0.74267   0.00000  Uiso   1.00
C475   C     0.82355   0.99249   0.72584   0.00000  Uiso   1.00
C476   C     0.88360   0.97342   0.68494   0.00000  Uiso   1.00
C477   C     0.89968   0.91018   0.67580   0.00000  Uiso   1.00
C478   C     0.79223   0.03320   0.81260   0.00000  Uiso   1.00
C479   C     0.82593   0.04836   0.84464   0.00000  Uiso   1.00
C480   C     0.81564   0.01940   0.90852   0.00000  Uiso   1.00
C481   C     0.71925   0.09858   0.72828   0.00000  Uiso   1.00
C482   C     0.69159   0.16873   0.68944   0.00000  Uiso   1.00
C483   C     0.61984   0.19482   0.68236   0.00000  Uiso   1.00
H484   H     0.68492   0.94777   0.82304   0.00000  Uiso   1.00
H485   H     0.76417   0.85373   0.77119   0.00000  Uiso   1.00
H486   H     0.70651   0.92867   0.93086   0.00000  Uiso   1.00
H487   H     0.57218   0.04901   0.77569   0.00000  Uiso   1.00
H488   H     0.87079   0.76823   0.70019   0.00000  Uiso   1.00
H489   H     0.74919   0.92626   0.03686   0.00000  Uiso   1.00
H490   H     0.46593   0.18004   0.70966   0.00000  Uiso   1.00
H491   H     0.82929   0.09249   0.71878   0.00000  Uiso   1.00
H492   H     0.91647   0.00639   0.66121   0.00000  Uiso   1.00
H493   H     0.85880   0.08133   0.82088   0.00000  Uiso   1.00
H494   H     0.72448   0.20167   0.66571   0.00000  Uiso   1.00
H495   H     0.99440   0.89214   0.61093   0.00000  Uiso   1.00
H496   H     0.87279   0.05017   0.94760   0.00000  Uiso   1.00
H497   H     0.58954   0.30394   0.62040   0.00000  Uiso   1.00
O498   O     0.98735   0.77092   0.61959   0.00000  Uiso   1.00
O499   O     0.82780   0.97826   0.06128   0.00000  Uiso   1.00
O500   O     0.45618   0.31120   0.63200   0.00000  Uiso   1.00
N501   N     0.88791   0.80922   0.68708   0.00000  Uiso   1.00
N502   N     0.77423   0.95696   0.00184   0.00000  Uiso   1.00
N503   N     0.50940   0.19422   0.69595   0.00000  Uiso   1.00
N504   N     0.95442   0.87589   0.63905   0.00000  Uiso   1.00
N505   N     0.84074   0.02363   0.95381   0.00000  Uiso   1.00
N506   N     0.57591   0.26089   0.64792   0.00000  Uiso   1.00
C507   C     0.40751   0.77438   0.96005   0.00000  Uiso   1.00
C508   C     0.39924   0.84739   0.90972   0.00000  Uiso   1.00
C509   C     0.43014   0.89441   0.90496   0.00000  Uiso   1.00
C510   C     0.41607   0.95857   0.85556   0.00000  Uiso   1.00
C511   C     0.40981   0.06944   0.78399   0.00000  Uiso   1.00
C512   C     0.33201   0.77578   0.98922   0.00000  Uiso   1.00
C513   C     0.30639   0.76259   0.05130   0.00000  Uiso   1.00
C514   C     0.23573   0.76646   0.06882   0.00000  Uiso   1.00
C515   C     0.12511   0.76611   0.12068   0.00000  Uiso   1.00
C516   C     0.43649   0.72076   0.92688   0.00000  Uiso   1.00
C517   C     0.49871   0.66129   0.93656   0.00000  Uiso   1.00
C518   C     0.51601   0.61883   0.90161   0.00000  Uiso   1.00
C519   C     0.56761   0.53305   0.85667   0.00000  Uiso   1.00
C520   C     0.32758   0.80471   0.88079   0.00000  Uiso   1.00
C521   C     0.35582   0.86386   0.86668   0.00000  Uiso   1.00
C522   C     0.34171   0.92796   0.81727   0.00000  Uiso   1.00
C523   C     0.37258   0.97507   0.81243   0.00000  Uiso   1.00
C524   C     0.28860   0.79225   0.94618   0.00000  Uiso   1.00
C525   C     0.21796   0.79614   0.96361   0.00000  Uiso   1.00
C526   C     0.19224   0.78296   0.02570   0.00000  Uiso   1.00
C527   C     0.39308   0.73723   0.88383   0.00000  Uiso   1.00
C528   C     0.41028   0.69485   0.84887   0.00000  Uiso   1.00
C529   C     0.47252   0.63533   0.85848   0.00000  Uiso   1.00
H530   H     0.44130   0.76156   0.99356   0.00000  Uiso   1.00
H531   H     0.46372   0.88165   0.93829   0.00000  Uiso   1.00
H532   H     0.34000   0.74984   0.08460   0.00000  Uiso   1.00
H533   H     0.53229   0.64856   0.96987   0.00000  Uiso   1.00
H534   H     0.46942   0.02207   0.85803   0.00000  Uiso   1.00
H535   H     0.20854   0.74411   0.16655   0.00000  Uiso   1.00
H536   H     0.61403   0.53055   0.92463   0.00000  Uiso   1.00
H537   H     0.29378   0.81753   0.84727   0.00000  Uiso   1.00
H538   H     0.30811   0.94069   0.78396   0.00000  Uiso   1.00
H539   H     0.18438   0.80888   0.93028   0.00000  Uiso   1.00
H540   H     0.37667   0.70761   0.81556   0.00000  Uiso   1.00
H541   H     0.34311   0.06999   0.73278   0.00000  Uiso   1.00
H542   H     0.08224   0.79203   0.04130   0.00000  Uiso   1.00
H543   H     0.48772   0.57847   0.79937   0.00000  Uiso   1.00
O544   O     0.41834   0.12605   0.75641   0.00000  Uiso   1.00
O545   O     0.07609   0.76137   0.16118   0.00000  Uiso   1.00
O546   O     0.60807   0.48119   0.84378   0.00000  Uiso   1.00
N547   N     0.43774   0.01644   0.83723   0.00000  Uiso   1.00
N548   N     0.19383   0.75658   0.12568   0.00000  Uiso   1.00
N549   N     0.57292   0.55690   0.89951   0.00000  Uiso   1.00
N550   N     0.36978   0.04223   0.76984   0.00000  Uiso   1.00
N551   N     0.12587   0.78236   0.05828   0.00000  Uiso   1.00
N552   N     0.50495   0.58269   0.83211   0.00000  Uiso   1.00
