data_job_06252
_audit_creation_date              2018-12-19
_audit_creation_method            'Materials Studio'
_symmetry_space_group_name_H-M    'P1'
_symmetry_Int_Tables_number       1
_symmetry_cell_setting            triclinic
loop_
_symmetry_equiv_pos_as_xyz
  x,y,z
_cell_length_a                    12.4989
_cell_length_b                    19.8562
_cell_length_c                    19.9006
_cell_angle_alpha                 64.3980
_cell_angle_beta                  78.0856
_cell_angle_gamma                 101.8977
loop_
_atom_site_label
_atom_site_type_symbol
_atom_site_fract_x
_atom_site_fract_y
_atom_site_fract_z
_atom_site_U_iso_or_equiv
_atom_site_adp_type
_atom_site_occupancy
C1     C     0.65572   0.79389   0.85246   0.00000  Uiso   1.00
C2     C     0.71156   0.88359   0.81233   0.00000  Uiso   1.00
C3     C     0.69997   0.92951   0.84796   0.00000  Uiso   1.00
C4     C     0.75794   0.01056   0.80118   0.00000  Uiso   1.00
C5     C     0.83440   0.14471   0.75096   0.00000  Uiso   1.00
C6     C     0.58532   0.77896   0.80315   0.00000  Uiso   1.00
C7     C     0.46759   0.73689   0.83106   0.00000  Uiso   1.00
C8     C     0.41929   0.72985   0.77654   0.00000  Uiso   1.00
C9     C     0.29977   0.70149   0.71209   0.00000  Uiso   1.00
C10    C     0.75494   0.76181   0.84152   0.00000  Uiso   1.00
C11    C     0.77982   0.70530   0.90170   0.00000  Uiso   1.00
C12    C     0.87432   0.68381   0.87948   0.00000  Uiso   1.00
C13    C     0.01816   0.62883   0.87460   0.00000  Uiso   1.00
C14    C     0.77928   0.85618   0.70600   0.00000  Uiso   1.00
C15    C     0.77867   0.91742   0.73278   0.00000  Uiso   1.00
C16    C     0.83668   0.99843   0.68593   0.00000  Uiso   1.00
C17    C     0.82518   0.04446   0.72149   0.00000  Uiso   1.00
C18    C     0.65242   0.81279   0.72360   0.00000  Uiso   1.00
C19    C     0.60429   0.80580   0.66903   0.00000  Uiso   1.00
C20    C     0.48652   0.76374   0.69685   0.00000  Uiso   1.00
C21    C     0.82205   0.79564   0.76197   0.00000  Uiso   1.00
C22    C     0.91652   0.77422   0.73966   0.00000  Uiso   1.00
C23    C     0.94155   0.71770   0.79979   0.00000  Uiso   1.00
H24    H     0.60346   0.76755   0.91438   0.00000  Uiso   1.00
H25    H     0.64802   0.90331   0.90952   0.00000  Uiso   1.00
H26    H     0.41568   0.71071   0.89263   0.00000  Uiso   1.00
H27    H     0.72786   0.67913   0.96325   0.00000  Uiso   1.00
H28    H     0.72698   0.06875   0.86905   0.00000  Uiso   1.00
H29    H     0.23708   0.66262   0.83342   0.00000  Uiso   1.00
H30    H     0.89538   0.59603   0.98234   0.00000  Uiso   1.00
H31    H     0.83153   0.88252   0.64407   0.00000  Uiso   1.00
H32    H     0.88860   0.02459   0.62437   0.00000  Uiso   1.00
H33    H     0.65626   0.83199   0.60748   0.00000  Uiso   1.00
H34    H     0.96844   0.80042   0.67810   0.00000  Uiso   1.00
H35    H     0.92224   0.16719   0.63761   0.00000  Uiso   1.00
H36    H     0.43234   0.76105   0.60199   0.00000  Uiso   1.00
H37    H     0.09065   0.69447   0.75090   0.00000  Uiso   1.00
O38    O     0.85801   0.20935   0.74524   0.00000  Uiso   1.00
O39    O     0.21529   0.67651   0.69851   0.00000  Uiso   1.00
O40    O     0.07897   0.58916   0.89389   0.00000  Uiso   1.00
N41    N     0.76512   0.07242   0.81728   0.00000  Uiso   1.00
N42    N     0.30709   0.69272   0.78398   0.00000  Uiso   1.00
N43    N     0.92253   0.63045   0.92320   0.00000  Uiso   1.00
N44    N     0.87019   0.12538   0.69275   0.00000  Uiso   1.00
N45    N     0.41216   0.74569   0.65944   0.00000  Uiso   1.00
N46    N     0.02760   0.68342   0.79867   0.00000  Uiso   1.00
C47    C     0.85866   0.35413   0.79210   0.00000  Uiso   1.00
C48    C     0.82572   0.30500   0.88164   0.00000  Uiso   1.00
C49    C     0.76888   0.22376   0.92707   0.00000  Uiso   1.00
C50    C     0.74659   0.18988   0.00805   0.00000  Uiso   1.00
C51    C     0.69031   0.10663   0.14187   0.00000  Uiso   1.00
C52    C     0.80306   0.41845   0.77718   0.00000  Uiso   1.00
C53    C     0.72719   0.43260   0.73477   0.00000  Uiso   1.00
C54    C     0.68584   0.49424   0.72780   0.00000  Uiso   1.00
C55    C     0.59445   0.58715   0.69939   0.00000  Uiso   1.00
C56    C     0.98933   0.39671   0.76069   0.00000  Uiso   1.00
C57    C     0.07007   0.39261   0.70439   0.00000  Uiso   1.00
C58    C     0.18555   0.43597   0.68352   0.00000  Uiso   1.00
C59    C     0.38337   0.49514   0.62951   0.00000  Uiso   1.00
C60    C     0.92015   0.43842   0.85513   0.00000  Uiso   1.00
C61    C     0.85912   0.35079   0.91587   0.00000  Uiso   1.00
C62    C     0.83692   0.31702   0.99681   0.00000  Uiso   1.00
C63    C     0.78006   0.23575   0.04234   0.00000  Uiso   1.00
C64    C     0.83646   0.46423   0.81141   0.00000  Uiso   1.00
C65    C     0.79522   0.52586   0.80450   0.00000  Uiso   1.00
C66    C     0.71930   0.54010   0.76209   0.00000  Uiso   1.00
C67    C     0.02273   0.44250   0.79492   0.00000  Uiso   1.00
C68    C     0.13811   0.48587   0.77413   0.00000  Uiso   1.00
C69    C     0.21901   0.48184   0.71782   0.00000  Uiso   1.00
H70    H     0.83266   0.31849   0.76545   0.00000  Uiso   1.00
H71    H     0.74304   0.18835   0.90055   0.00000  Uiso   1.00
H72    H     0.70137   0.39716   0.70827   0.00000  Uiso   1.00
H73    H     0.04420   0.35718   0.67791   0.00000  Uiso   1.00
H74    H     0.65838   0.06427   0.06544   0.00000  Uiso   1.00
H75    H     0.57053   0.50458   0.65999   0.00000  Uiso   1.00
H76    H     0.29346   0.42026   0.59595   0.00000  Uiso   1.00
H77    H     0.94616   0.47407   0.88179   0.00000  Uiso   1.00
H78    H     0.86277   0.35247   0.02328   0.00000  Uiso   1.00
H79    H     0.82109   0.56128   0.83100   0.00000  Uiso   1.00
H80    H     0.16392   0.52130   0.80063   0.00000  Uiso   1.00
H81    H     0.75555   0.19747   0.16506   0.00000  Uiso   1.00
H82    H     0.66771   0.63779   0.75959   0.00000  Uiso   1.00
H83    H     0.39063   0.55347   0.69556   0.00000  Uiso   1.00
O84    O     0.65003   0.04807   0.20623   0.00000  Uiso   1.00
O85    O     0.53480   0.62575   0.67427   0.00000  Uiso   1.00
O86    O     0.48325   0.51512   0.59027   0.00000  Uiso   1.00
N87    N     0.69271   0.11230   0.06947   0.00000  Uiso   1.00
N88    N     0.61057   0.52396   0.69040   0.00000  Uiso   1.00
N89    N     0.28644   0.44514   0.63052   0.00000  Uiso   1.00
N90    N     0.74500   0.18398   0.12307   0.00000  Uiso   1.00
N91    N     0.66286   0.59564   0.74400   0.00000  Uiso   1.00
N92    N     0.33873   0.51682   0.68412   0.00000  Uiso   1.00
C93    C     0.50520   0.85435   0.35319   0.00000  Uiso   1.00
C94    C     0.52103   0.81369   0.30385   0.00000  Uiso   1.00
C95    C     0.54463   0.84910   0.22270   0.00000  Uiso   1.00
C96    C     0.55600   0.80183   0.18860   0.00000  Uiso   1.00
C97    C     0.58231   0.75083   0.10508   0.00000  Uiso   1.00
C98    C     0.38618   0.80550   0.41692   0.00000  Uiso   1.00
C99    C     0.29641   0.83403   0.43085   0.00000  Uiso   1.00
C100   C     0.19427   0.77985   0.49195   0.00000  Uiso   1.00
C101   C     0.01126   0.71615   0.58402   0.00000  Uiso   1.00
C102   C     0.59348   0.84315   0.39618   0.00000  Uiso   1.00
C103   C     0.67798   0.90334   0.39268   0.00000  Uiso   1.00
C104   C     0.75036   0.88087   0.43633   0.00000  Uiso   1.00
C105   C     0.88920   0.87563   0.49619   0.00000  Uiso   1.00
C106   C     0.48344   0.70741   0.43694   0.00000  Uiso   1.00
C107   C     0.50921   0.73388   0.34934   0.00000  Uiso   1.00
C108   C     0.52055   0.68653   0.31536   0.00000  Uiso   1.00
C109   C     0.54416   0.72187   0.23417   0.00000  Uiso   1.00
C110   C     0.37436   0.72569   0.46241   0.00000  Uiso   1.00
C111   C     0.27233   0.67146   0.52351   0.00000  Uiso   1.00
C112   C     0.18242   0.69990   0.53752   0.00000  Uiso   1.00
C113   C     0.58166   0.76334   0.44167   0.00000  Uiso   1.00
C114   C     0.65391   0.74077   0.48534   0.00000  Uiso   1.00
C115   C     0.73851   0.80091   0.48190   0.00000  Uiso   1.00
H116   H     0.51440   0.91648   0.31777   0.00000  Uiso   1.00
H117   H     0.55376   0.91087   0.18751   0.00000  Uiso   1.00
H118   H     0.30558   0.89580   0.39564   0.00000  Uiso   1.00
H119   H     0.68710   0.96510   0.35747   0.00000  Uiso   1.00
H120   H     0.59214   0.86945   0.06317   0.00000  Uiso   1.00
H121   H     0.06886   0.83767   0.50203   0.00000  Uiso   1.00
H122   H     0.87337   0.98380   0.42155   0.00000  Uiso   1.00
H123   H     0.47424   0.64527   0.47236   0.00000  Uiso   1.00
H124   H     0.51140   0.62477   0.35058   0.00000  Uiso   1.00
H125   H     0.26322   0.60970   0.55871   0.00000  Uiso   1.00
H126   H     0.64474   0.67900   0.52054   0.00000  Uiso   1.00
H127   H     0.55775   0.63724   0.19551   0.00000  Uiso   1.00
H128   H     0.03448   0.60546   0.63438   0.00000  Uiso   1.00
H129   H     0.83898   0.75159   0.55390   0.00000  Uiso   1.00
O130   O     0.60007   0.74475   0.04645   0.00000  Uiso   1.00
O131   O     0.91357   0.70306   0.62223   0.00000  Uiso   1.00
O132   O     0.96906   0.89478   0.51663   0.00000  Uiso   1.00
N133   N     0.57897   0.81761   0.11102   0.00000  Uiso   1.00
N134   N     0.08973   0.78790   0.52133   0.00000  Uiso   1.00
N135   N     0.84186   0.92452   0.44610   0.00000  Uiso   1.00
N136   N     0.56047   0.69266   0.18224   0.00000  Uiso   1.00
N137   N     0.07123   0.66295   0.59254   0.00000  Uiso   1.00
N138   N     0.82336   0.79957   0.51732   0.00000  Uiso   1.00
C139   C     0.34428   0.20611   0.14754   0.00000  Uiso   1.00
C140   C     0.28844   0.11641   0.18767   0.00000  Uiso   1.00
C141   C     0.30003   0.07049   0.15204   0.00000  Uiso   1.00
C142   C     0.24206   0.98944   0.19882   0.00000  Uiso   1.00
C143   C     0.16560   0.85529   0.24904   0.00000  Uiso   1.00
C144   C     0.41468   0.22104   0.19685   0.00000  Uiso   1.00
C145   C     0.53241   0.26311   0.16894   0.00000  Uiso   1.00
C146   C     0.58071   0.27015   0.22346   0.00000  Uiso   1.00
C147   C     0.70023   0.29851   0.28791   0.00000  Uiso   1.00
C148   C     0.24506   0.23819   0.15848   0.00000  Uiso   1.00
C149   C     0.22018   0.29470   0.09830   0.00000  Uiso   1.00
C150   C     0.12568   0.31619   0.12052   0.00000  Uiso   1.00
C151   C     0.98184   0.37118   0.12540   0.00000  Uiso   1.00
C152   C     0.22072   0.14382   0.29400   0.00000  Uiso   1.00
C153   C     0.22133   0.08258   0.26722   0.00000  Uiso   1.00
C154   C     0.16332   0.00157   0.31407   0.00000  Uiso   1.00
C155   C     0.17482   0.95554   0.27851   0.00000  Uiso   1.00
C156   C     0.34758   0.18721   0.27640   0.00000  Uiso   1.00
C157   C     0.39571   0.19420   0.33097   0.00000  Uiso   1.00
C158   C     0.51348   0.23626   0.30315   0.00000  Uiso   1.00
C159   C     0.17795   0.20436   0.23803   0.00000  Uiso   1.00
C160   C     0.08348   0.22578   0.26034   0.00000  Uiso   1.00
C161   C     0.05845   0.28230   0.20021   0.00000  Uiso   1.00
H162   H     0.39654   0.23245   0.08562   0.00000  Uiso   1.00
H163   H     0.35198   0.09669   0.09048   0.00000  Uiso   1.00
H164   H     0.58432   0.28929   0.10737   0.00000  Uiso   1.00
H165   H     0.27214   0.32087   0.03675   0.00000  Uiso   1.00
H166   H     0.27302   0.93125   0.13095   0.00000  Uiso   1.00
H167   H     0.76292   0.33738   0.16658   0.00000  Uiso   1.00
H168   H     0.10462   0.40397   0.01766   0.00000  Uiso   1.00
H169   H     0.16847   0.11748   0.35593   0.00000  Uiso   1.00
H170   H     0.11140   0.97541   0.37563   0.00000  Uiso   1.00
H171   H     0.34374   0.16801   0.39252   0.00000  Uiso   1.00
H172   H     0.03156   0.19958   0.32190   0.00000  Uiso   1.00
H173   H     0.07776   0.83281   0.36239   0.00000  Uiso   1.00
H174   H     0.56766   0.23895   0.39801   0.00000  Uiso   1.00
H175   H     0.90935   0.30553   0.24910   0.00000  Uiso   1.00
O176   O     0.14199   0.79065   0.25476   0.00000  Uiso   1.00
O177   O     0.78471   0.32349   0.30149   0.00000  Uiso   1.00
O178   O     0.92103   0.41084   0.10611   0.00000  Uiso   1.00
N179   N     0.23488   0.92759   0.18272   0.00000  Uiso   1.00
N180   N     0.69291   0.30728   0.21602   0.00000  Uiso   1.00
N181   N     0.07747   0.36955   0.07680   0.00000  Uiso   1.00
N182   N     0.12981   0.87462   0.30725   0.00000  Uiso   1.00
N183   N     0.58784   0.25432   0.34056   0.00000  Uiso   1.00
N184   N     0.97240   0.31658   0.20133   0.00000  Uiso   1.00
C185   C     0.14134   0.64587   0.20790   0.00000  Uiso   1.00
C186   C     0.17428   0.69500   0.11836   0.00000  Uiso   1.00
C187   C     0.23112   0.77624   0.07293   0.00000  Uiso   1.00
C188   C     0.25341   0.81012   0.99195   0.00000  Uiso   1.00
C189   C     0.30969   0.89337   0.85813   0.00000  Uiso   1.00
C190   C     0.19694   0.58156   0.22282   0.00000  Uiso   1.00
C191   C     0.27281   0.56740   0.26523   0.00000  Uiso   1.00
C192   C     0.31416   0.50577   0.27220   0.00000  Uiso   1.00
C193   C     0.40555   0.41285   0.30061   0.00000  Uiso   1.00
C194   C     0.01067   0.60329   0.23931   0.00000  Uiso   1.00
C195   C     0.92993   0.60739   0.29561   0.00000  Uiso   1.00
C196   C     0.81445   0.56404   0.31648   0.00000  Uiso   1.00
C197   C     0.61663   0.50486   0.37049   0.00000  Uiso   1.00
C198   C     0.07985   0.56158   0.14487   0.00000  Uiso   1.00
C199   C     0.14088   0.64922   0.08413   0.00000  Uiso   1.00
C200   C     0.16308   0.68298   0.00319   0.00000  Uiso   1.00
C201   C     0.21994   0.76425   0.95766   0.00000  Uiso   1.00
C202   C     0.16354   0.53577   0.18859   0.00000  Uiso   1.00
C203   C     0.20478   0.47414   0.19550   0.00000  Uiso   1.00
C204   C     0.28070   0.45990   0.23791   0.00000  Uiso   1.00
C205   C     0.97727   0.55750   0.20508   0.00000  Uiso   1.00
C206   C     0.86189   0.51413   0.22587   0.00000  Uiso   1.00
C207   C     0.78099   0.51817   0.28218   0.00000  Uiso   1.00
H208   H     0.16734   0.68151   0.23455   0.00000  Uiso   1.00
H209   H     0.25696   0.81165   0.09945   0.00000  Uiso   1.00
H210   H     0.29863   0.60284   0.29173   0.00000  Uiso   1.00
H211   H     0.95580   0.64282   0.32209   0.00000  Uiso   1.00
H212   H     0.34162   0.93573   0.93456   0.00000  Uiso   1.00
H213   H     0.42947   0.49542   0.34001   0.00000  Uiso   1.00
H214   H     0.70654   0.57974   0.40405   0.00000  Uiso   1.00
H215   H     0.05384   0.52593   0.11821   0.00000  Uiso   1.00
H216   H     0.13723   0.64753   0.97672   0.00000  Uiso   1.00
H217   H     0.17891   0.43872   0.16900   0.00000  Uiso   1.00
H218   H     0.83608   0.47870   0.19937   0.00000  Uiso   1.00
H219   H     0.24445   0.80253   0.83494   0.00000  Uiso   1.00
H220   H     0.33229   0.36221   0.24041   0.00000  Uiso   1.00
H221   H     0.60937   0.44653   0.30444   0.00000  Uiso   1.00
O222   O     0.34997   0.95193   0.79377   0.00000  Uiso   1.00
O223   O     0.46520   0.37425   0.32573   0.00000  Uiso   1.00
O224   O     0.51675   0.48488   0.40973   0.00000  Uiso   1.00
N225   N     0.30729   0.88770   0.93053   0.00000  Uiso   1.00
N226   N     0.38943   0.47604   0.30960   0.00000  Uiso   1.00
N227   N     0.71356   0.55486   0.36948   0.00000  Uiso   1.00
N228   N     0.25500   0.81602   0.87693   0.00000  Uiso   1.00
N229   N     0.33714   0.40436   0.25600   0.00000  Uiso   1.00
N230   N     0.66127   0.48318   0.31588   0.00000  Uiso   1.00
C231   C     0.49480   0.14565   0.64681   0.00000  Uiso   1.00
C232   C     0.47897   0.18631   0.69615   0.00000  Uiso   1.00
C233   C     0.45537   0.15090   0.77730   0.00000  Uiso   1.00
C234   C     0.44400   0.19817   0.81140   0.00000  Uiso   1.00
C235   C     0.41769   0.24917   0.89492   0.00000  Uiso   1.00
C236   C     0.61382   0.19450   0.58308   0.00000  Uiso   1.00
C237   C     0.70359   0.16597   0.56915   0.00000  Uiso   1.00
C238   C     0.80573   0.22015   0.50805   0.00000  Uiso   1.00
C239   C     0.98874   0.28385   0.41598   0.00000  Uiso   1.00
C240   C     0.40652   0.15685   0.60382   0.00000  Uiso   1.00
C241   C     0.32202   0.09666   0.60732   0.00000  Uiso   1.00
C242   C     0.24964   0.11913   0.56367   0.00000  Uiso   1.00
C243   C     0.11080   0.12437   0.50381   0.00000  Uiso   1.00
C244   C     0.51656   0.29259   0.56306   0.00000  Uiso   1.00
C245   C     0.49079   0.26612   0.65066   0.00000  Uiso   1.00
C246   C     0.47945   0.31347   0.68464   0.00000  Uiso   1.00
C247   C     0.45584   0.27813   0.76583   0.00000  Uiso   1.00
C248   C     0.62564   0.27431   0.53759   0.00000  Uiso   1.00
C249   C     0.72767   0.32854   0.47649   0.00000  Uiso   1.00
C250   C     0.81758   0.30010   0.46248   0.00000  Uiso   1.00
C251   C     0.41834   0.23666   0.55833   0.00000  Uiso   1.00
C252   C     0.34609   0.25923   0.51466   0.00000  Uiso   1.00
C253   C     0.26149   0.19909   0.51810   0.00000  Uiso   1.00
H254   H     0.48560   0.08352   0.68223   0.00000  Uiso   1.00
H255   H     0.44624   0.08913   0.81249   0.00000  Uiso   1.00
H256   H     0.69442   0.10420   0.60436   0.00000  Uiso   1.00
H257   H     0.31290   0.03490   0.64253   0.00000  Uiso   1.00
H258   H     0.40786   0.13056   0.93683   0.00000  Uiso   1.00
H259   H     0.93114   0.16233   0.49797   0.00000  Uiso   1.00
H260   H     0.12663   0.01620   0.57845   0.00000  Uiso   1.00
H261   H     0.52576   0.35473   0.52764   0.00000  Uiso   1.00
H262   H     0.48860   0.37523   0.64942   0.00000  Uiso   1.00
H263   H     0.73678   0.39030   0.44129   0.00000  Uiso   1.00
H264   H     0.35526   0.32100   0.47946   0.00000  Uiso   1.00
H265   H     0.44225   0.36276   0.80449   0.00000  Uiso   1.00
H266   H     0.96552   0.39454   0.36562   0.00000  Uiso   1.00
H267   H     0.16102   0.24841   0.44610   0.00000  Uiso   1.00
O268   O     0.39993   0.25526   0.95355   0.00000  Uiso   1.00
O269   O     0.08643   0.29694   0.37777   0.00000  Uiso   1.00
O270   O     0.03094   0.10522   0.48337   0.00000  Uiso   1.00
N271   N     0.42103   0.18239   0.88898   0.00000  Uiso   1.00
N272   N     0.91027   0.21210   0.47867   0.00000  Uiso   1.00
N273   N     0.15814   0.07548   0.55390   0.00000  Uiso   1.00
N274   N     0.43953   0.30734   0.81776   0.00000  Uiso   1.00
N275   N     0.92877   0.33705   0.40746   0.00000  Uiso   1.00
N276   N     0.17664   0.20043   0.48268   0.00000  Uiso   1.00
