data_job_04132
_audit_creation_date              2018-12-19
_audit_creation_method            'Materials Studio'
_symmetry_space_group_name_H-M    'P1'
_symmetry_Int_Tables_number       1
_symmetry_cell_setting            triclinic
loop_
_symmetry_equiv_pos_as_xyz
  x,y,z
_cell_length_a                    21.3299
_cell_length_b                    13.7580
_cell_length_c                    34.7825
_cell_angle_alpha                 90.0000
_cell_angle_beta                  128.0114
_cell_angle_gamma                 90.0000
loop_
_atom_site_label
_atom_site_type_symbol
_atom_site_fract_x
_atom_site_fract_y
_atom_site_fract_z
_atom_site_U_iso_or_equiv
_atom_site_adp_type
_atom_site_occupancy
C1     C     0.60538   0.28344   0.58472   0.00000  Uiso   1.00
C2     C     0.55860   0.30333   0.60379   0.00000  Uiso   1.00
C3     C     0.47976   0.27823   0.58051   0.00000  Uiso   1.00
C4     C     0.44777   0.30283   0.60393   0.00000  Uiso   1.00
C5     C     0.36823   0.32645   0.62667   0.00000  Uiso   1.00
C6     C     0.63611   0.38186   0.58268   0.00000  Uiso   1.00
C7     C     0.62245   0.42278   0.54165   0.00000  Uiso   1.00
C8     C     0.65573   0.51348   0.54730   0.00000  Uiso   1.00
C9     C     0.69658   0.65898   0.53727   0.00000  Uiso   1.00
C10    C     0.67859   0.22567   0.62457   0.00000  Uiso   1.00
C11    C     0.70065   0.13528   0.61876   0.00000  Uiso   1.00
C12    C     0.76970   0.09449   0.65967   0.00000  Uiso   1.00
C13    C     0.87649   0.99749   0.71467   0.00000  Uiso   1.00
C14    C     0.68879   0.37175   0.66771   0.00000  Uiso   1.00
C15    C     0.60390   0.35130   0.64886   0.00000  Uiso   1.00
C16    C     0.57203   0.37593   0.67232   0.00000  Uiso   1.00
C17    C     0.49316   0.35087   0.64908   0.00000  Uiso   1.00
C18    C     0.68141   0.42982   0.62775   0.00000  Uiso   1.00
C19    C     0.71473   0.52048   0.63346   0.00000  Uiso   1.00
C20    C     0.70112   0.56153   0.59245   0.00000  Uiso   1.00
C21    C     0.72389   0.27363   0.66964   0.00000  Uiso   1.00
C22    C     0.79292   0.23298   0.71057   0.00000  Uiso   1.00
C23    C     0.81509   0.14254   0.70482   0.00000  Uiso   1.00
H24    H     0.57012   0.24611   0.54963   0.00000  Uiso   1.00
H25    H     0.44472   0.24112   0.54563   0.00000  Uiso   1.00
H26    H     0.58740   0.38564   0.50678   0.00000  Uiso   1.00
H27    H     0.66558   0.09818   0.58387   0.00000  Uiso   1.00
H28    H     0.32566   0.25677   0.56106   0.00000  Uiso   1.00
H29    H     0.62653   0.56149   0.47914   0.00000  Uiso   1.00
H30    H     0.79140   0.95533   0.64171   0.00000  Uiso   1.00
H31    H     0.72406   0.40910   0.70280   0.00000  Uiso   1.00
H32    H     0.60711   0.41305   0.70720   0.00000  Uiso   1.00
H33    H     0.74978   0.55757   0.66835   0.00000  Uiso   1.00
H34    H     0.82797   0.27012   0.74544   0.00000  Uiso   1.00
H35    H     0.45746   0.39632   0.69220   0.00000  Uiso   1.00
H36    H     0.75833   0.70104   0.61028   0.00000  Uiso   1.00
H37    H     0.92319   0.09488   0.77285   0.00000  Uiso   1.00
O38    O     0.31184   0.32624   0.62675   0.00000  Uiso   1.00
O39    O     0.70658   0.72600   0.51928   0.00000  Uiso   1.00
O40    O     0.92288   0.93074   0.73257   0.00000  Uiso   1.00
N41    N     0.37273   0.28906   0.59132   0.00000  Uiso   1.00
N42    N     0.65402   0.57395   0.51473   0.00000  Uiso   1.00
N43    N     0.80817   0.00726   0.66672   0.00000  Uiso   1.00
N44    N     0.44365   0.36415   0.66189   0.00000  Uiso   1.00
N45    N     0.72494   0.64904   0.58530   0.00000  Uiso   1.00
N46    N     0.87909   0.08235   0.73728   0.00000  Uiso   1.00
C47    C     0.10538   0.78344   0.58472   0.00000  Uiso   1.00
C48    C     0.05860   0.80333   0.60379   0.00000  Uiso   1.00
C49    C     0.97976   0.77823   0.58051   0.00000  Uiso   1.00
C50    C     0.94777   0.80283   0.60393   0.00000  Uiso   1.00
C51    C     0.86823   0.82645   0.62667   0.00000  Uiso   1.00
C52    C     0.13611   0.88186   0.58268   0.00000  Uiso   1.00
C53    C     0.12245   0.92278   0.54165   0.00000  Uiso   1.00
C54    C     0.15573   0.01348   0.54730   0.00000  Uiso   1.00
C55    C     0.19658   0.15898   0.53727   0.00000  Uiso   1.00
C56    C     0.17859   0.72567   0.62457   0.00000  Uiso   1.00
C57    C     0.20065   0.63528   0.61876   0.00000  Uiso   1.00
C58    C     0.26970   0.59449   0.65967   0.00000  Uiso   1.00
C59    C     0.37649   0.49749   0.71467   0.00000  Uiso   1.00
C60    C     0.18879   0.87175   0.66771   0.00000  Uiso   1.00
C61    C     0.10390   0.85130   0.64886   0.00000  Uiso   1.00
C62    C     0.07203   0.87593   0.67232   0.00000  Uiso   1.00
C63    C     0.99316   0.85087   0.64908   0.00000  Uiso   1.00
C64    C     0.18141   0.92982   0.62775   0.00000  Uiso   1.00
C65    C     0.21473   0.02048   0.63346   0.00000  Uiso   1.00
C66    C     0.20112   0.06153   0.59245   0.00000  Uiso   1.00
C67    C     0.22389   0.77363   0.66964   0.00000  Uiso   1.00
C68    C     0.29292   0.73298   0.71057   0.00000  Uiso   1.00
C69    C     0.31509   0.64254   0.70482   0.00000  Uiso   1.00
H70    H     0.07012   0.74611   0.54963   0.00000  Uiso   1.00
H71    H     0.94472   0.74112   0.54563   0.00000  Uiso   1.00
H72    H     0.08740   0.88564   0.50678   0.00000  Uiso   1.00
H73    H     0.16558   0.59818   0.58387   0.00000  Uiso   1.00
H74    H     0.82566   0.75677   0.56106   0.00000  Uiso   1.00
H75    H     0.12653   0.06149   0.47914   0.00000  Uiso   1.00
H76    H     0.29140   0.45533   0.64171   0.00000  Uiso   1.00
H77    H     0.22406   0.90910   0.70280   0.00000  Uiso   1.00
H78    H     0.10711   0.91305   0.70720   0.00000  Uiso   1.00
H79    H     0.24978   0.05757   0.66835   0.00000  Uiso   1.00
H80    H     0.32797   0.77012   0.74544   0.00000  Uiso   1.00
H81    H     0.95746   0.89632   0.69220   0.00000  Uiso   1.00
H82    H     0.25833   0.20104   0.61028   0.00000  Uiso   1.00
H83    H     0.42319   0.59488   0.77285   0.00000  Uiso   1.00
O84    O     0.81184   0.82624   0.62675   0.00000  Uiso   1.00
O85    O     0.20658   0.22600   0.51928   0.00000  Uiso   1.00
O86    O     0.42288   0.43074   0.73257   0.00000  Uiso   1.00
N87    N     0.87273   0.78906   0.59132   0.00000  Uiso   1.00
N88    N     0.15402   0.07395   0.51473   0.00000  Uiso   1.00
N89    N     0.30817   0.50726   0.66672   0.00000  Uiso   1.00
N90    N     0.94365   0.86415   0.66189   0.00000  Uiso   1.00
N91    N     0.22494   0.14904   0.58530   0.00000  Uiso   1.00
N92    N     0.37909   0.58235   0.73728   0.00000  Uiso   1.00
C93    C     0.39462   0.28344   0.91528   0.00000  Uiso   1.00
C94    C     0.44140   0.30333   0.89621   0.00000  Uiso   1.00
C95    C     0.52024   0.27823   0.91949   0.00000  Uiso   1.00
C96    C     0.55223   0.30283   0.89607   0.00000  Uiso   1.00
C97    C     0.63177   0.32645   0.87333   0.00000  Uiso   1.00
C98    C     0.36389   0.38186   0.91732   0.00000  Uiso   1.00
C99    C     0.37755   0.42278   0.95835   0.00000  Uiso   1.00
C100   C     0.34427   0.51348   0.95270   0.00000  Uiso   1.00
C101   C     0.30342   0.65898   0.96273   0.00000  Uiso   1.00
C102   C     0.32141   0.22567   0.87543   0.00000  Uiso   1.00
C103   C     0.29935   0.13528   0.88124   0.00000  Uiso   1.00
C104   C     0.23030   0.09449   0.84033   0.00000  Uiso   1.00
C105   C     0.12351   0.99749   0.78533   0.00000  Uiso   1.00
C106   C     0.31121   0.37175   0.83229   0.00000  Uiso   1.00
C107   C     0.39610   0.35130   0.85114   0.00000  Uiso   1.00
C108   C     0.42797   0.37593   0.82768   0.00000  Uiso   1.00
C109   C     0.50684   0.35087   0.85092   0.00000  Uiso   1.00
C110   C     0.31859   0.42982   0.87225   0.00000  Uiso   1.00
C111   C     0.28527   0.52048   0.86654   0.00000  Uiso   1.00
C112   C     0.29888   0.56153   0.90755   0.00000  Uiso   1.00
C113   C     0.27611   0.27363   0.83036   0.00000  Uiso   1.00
C114   C     0.20708   0.23298   0.78943   0.00000  Uiso   1.00
C115   C     0.18491   0.14254   0.79518   0.00000  Uiso   1.00
H116   H     0.42988   0.24611   0.95037   0.00000  Uiso   1.00
H117   H     0.55528   0.24112   0.95437   0.00000  Uiso   1.00
H118   H     0.41260   0.38564   0.99322   0.00000  Uiso   1.00
H119   H     0.33442   0.09818   0.91613   0.00000  Uiso   1.00
H120   H     0.67434   0.25677   0.93894   0.00000  Uiso   1.00
H121   H     0.37347   0.56149   0.02086   0.00000  Uiso   1.00
H122   H     0.20860   0.95533   0.85829   0.00000  Uiso   1.00
H123   H     0.27594   0.40910   0.79720   0.00000  Uiso   1.00
H124   H     0.39289   0.41305   0.79280   0.00000  Uiso   1.00
H125   H     0.25022   0.55757   0.83165   0.00000  Uiso   1.00
H126   H     0.17203   0.27012   0.75456   0.00000  Uiso   1.00
H127   H     0.54254   0.39632   0.80780   0.00000  Uiso   1.00
H128   H     0.24167   0.70104   0.88972   0.00000  Uiso   1.00
H129   H     0.07681   0.09488   0.72715   0.00000  Uiso   1.00
O130   O     0.68816   0.32624   0.87325   0.00000  Uiso   1.00
O131   O     0.29342   0.72600   0.98072   0.00000  Uiso   1.00
O132   O     0.07712   0.93074   0.76743   0.00000  Uiso   1.00
N133   N     0.62727   0.28906   0.90868   0.00000  Uiso   1.00
N134   N     0.34598   0.57395   0.98527   0.00000  Uiso   1.00
N135   N     0.19183   0.00726   0.83328   0.00000  Uiso   1.00
N136   N     0.55635   0.36415   0.83811   0.00000  Uiso   1.00
N137   N     0.27506   0.64904   0.91470   0.00000  Uiso   1.00
N138   N     0.12091   0.08235   0.76272   0.00000  Uiso   1.00
C139   C     0.89462   0.78344   0.91528   0.00000  Uiso   1.00
C140   C     0.94140   0.80333   0.89621   0.00000  Uiso   1.00
C141   C     0.02024   0.77823   0.91949   0.00000  Uiso   1.00
C142   C     0.05223   0.80283   0.89607   0.00000  Uiso   1.00
C143   C     0.13177   0.82645   0.87333   0.00000  Uiso   1.00
C144   C     0.86389   0.88186   0.91732   0.00000  Uiso   1.00
C145   C     0.87755   0.92278   0.95835   0.00000  Uiso   1.00
C146   C     0.84427   0.01348   0.95270   0.00000  Uiso   1.00
C147   C     0.80342   0.15898   0.96273   0.00000  Uiso   1.00
C148   C     0.82141   0.72567   0.87543   0.00000  Uiso   1.00
C149   C     0.79935   0.63528   0.88124   0.00000  Uiso   1.00
C150   C     0.73030   0.59449   0.84033   0.00000  Uiso   1.00
C151   C     0.62351   0.49749   0.78533   0.00000  Uiso   1.00
C152   C     0.81121   0.87175   0.83229   0.00000  Uiso   1.00
C153   C     0.89610   0.85130   0.85114   0.00000  Uiso   1.00
C154   C     0.92797   0.87593   0.82768   0.00000  Uiso   1.00
C155   C     0.00684   0.85087   0.85092   0.00000  Uiso   1.00
C156   C     0.81859   0.92982   0.87225   0.00000  Uiso   1.00
C157   C     0.78527   0.02048   0.86654   0.00000  Uiso   1.00
C158   C     0.79888   0.06153   0.90755   0.00000  Uiso   1.00
C159   C     0.77611   0.77363   0.83036   0.00000  Uiso   1.00
C160   C     0.70708   0.73298   0.78943   0.00000  Uiso   1.00
C161   C     0.68491   0.64254   0.79518   0.00000  Uiso   1.00
H162   H     0.92988   0.74611   0.95037   0.00000  Uiso   1.00
H163   H     0.05528   0.74112   0.95437   0.00000  Uiso   1.00
H164   H     0.91260   0.88564   0.99322   0.00000  Uiso   1.00
H165   H     0.83442   0.59818   0.91613   0.00000  Uiso   1.00
H166   H     0.17434   0.75677   0.93894   0.00000  Uiso   1.00
H167   H     0.87347   0.06149   0.02086   0.00000  Uiso   1.00
H168   H     0.70860   0.45533   0.85829   0.00000  Uiso   1.00
H169   H     0.77594   0.90910   0.79720   0.00000  Uiso   1.00
H170   H     0.89289   0.91305   0.79280   0.00000  Uiso   1.00
H171   H     0.75022   0.05757   0.83165   0.00000  Uiso   1.00
H172   H     0.67203   0.77012   0.75456   0.00000  Uiso   1.00
H173   H     0.04254   0.89632   0.80780   0.00000  Uiso   1.00
H174   H     0.74167   0.20104   0.88972   0.00000  Uiso   1.00
H175   H     0.57681   0.59488   0.72715   0.00000  Uiso   1.00
O176   O     0.18816   0.82624   0.87325   0.00000  Uiso   1.00
O177   O     0.79342   0.22600   0.98072   0.00000  Uiso   1.00
O178   O     0.57712   0.43074   0.76743   0.00000  Uiso   1.00
N179   N     0.12727   0.78906   0.90868   0.00000  Uiso   1.00
N180   N     0.84598   0.07395   0.98527   0.00000  Uiso   1.00
N181   N     0.69183   0.50726   0.83328   0.00000  Uiso   1.00
N182   N     0.05635   0.86415   0.83811   0.00000  Uiso   1.00
N183   N     0.77506   0.14904   0.91470   0.00000  Uiso   1.00
N184   N     0.62091   0.58235   0.76272   0.00000  Uiso   1.00
C185   C     0.39462   0.71656   0.41528   0.00000  Uiso   1.00
C186   C     0.44140   0.69667   0.39621   0.00000  Uiso   1.00
C187   C     0.52024   0.72177   0.41949   0.00000  Uiso   1.00
C188   C     0.55223   0.69717   0.39607   0.00000  Uiso   1.00
C189   C     0.63177   0.67355   0.37333   0.00000  Uiso   1.00
C190   C     0.36389   0.61814   0.41732   0.00000  Uiso   1.00
C191   C     0.37755   0.57722   0.45835   0.00000  Uiso   1.00
C192   C     0.34427   0.48652   0.45270   0.00000  Uiso   1.00
C193   C     0.30342   0.34102   0.46273   0.00000  Uiso   1.00
C194   C     0.32141   0.77433   0.37543   0.00000  Uiso   1.00
C195   C     0.29935   0.86472   0.38124   0.00000  Uiso   1.00
C196   C     0.23030   0.90551   0.34033   0.00000  Uiso   1.00
C197   C     0.12351   0.00251   0.28533   0.00000  Uiso   1.00
C198   C     0.31121   0.62825   0.33229   0.00000  Uiso   1.00
C199   C     0.39610   0.64870   0.35114   0.00000  Uiso   1.00
C200   C     0.42797   0.62407   0.32768   0.00000  Uiso   1.00
C201   C     0.50684   0.64913   0.35092   0.00000  Uiso   1.00
C202   C     0.31859   0.57018   0.37225   0.00000  Uiso   1.00
C203   C     0.28527   0.47952   0.36654   0.00000  Uiso   1.00
C204   C     0.29888   0.43847   0.40755   0.00000  Uiso   1.00
C205   C     0.27611   0.72637   0.33036   0.00000  Uiso   1.00
C206   C     0.20708   0.76702   0.28943   0.00000  Uiso   1.00
C207   C     0.18491   0.85746   0.29518   0.00000  Uiso   1.00
H208   H     0.42988   0.75389   0.45037   0.00000  Uiso   1.00
H209   H     0.55528   0.75888   0.45437   0.00000  Uiso   1.00
H210   H     0.41260   0.61436   0.49322   0.00000  Uiso   1.00
H211   H     0.33442   0.90182   0.41613   0.00000  Uiso   1.00
H212   H     0.67434   0.74323   0.43894   0.00000  Uiso   1.00
H213   H     0.37347   0.43851   0.52086   0.00000  Uiso   1.00
H214   H     0.20860   0.04467   0.35829   0.00000  Uiso   1.00
H215   H     0.27594   0.59090   0.29720   0.00000  Uiso   1.00
H216   H     0.39289   0.58695   0.29280   0.00000  Uiso   1.00
H217   H     0.25022   0.44243   0.33165   0.00000  Uiso   1.00
H218   H     0.17203   0.72988   0.25456   0.00000  Uiso   1.00
H219   H     0.54254   0.60368   0.30780   0.00000  Uiso   1.00
H220   H     0.24167   0.29896   0.38972   0.00000  Uiso   1.00
H221   H     0.07681   0.90512   0.22715   0.00000  Uiso   1.00
O222   O     0.68816   0.67376   0.37325   0.00000  Uiso   1.00
O223   O     0.29342   0.27400   0.48072   0.00000  Uiso   1.00
O224   O     0.07712   0.06926   0.26743   0.00000  Uiso   1.00
N225   N     0.62727   0.71094   0.40868   0.00000  Uiso   1.00
N226   N     0.34598   0.42605   0.48527   0.00000  Uiso   1.00
N227   N     0.19183   0.99274   0.33328   0.00000  Uiso   1.00
N228   N     0.55635   0.63585   0.33811   0.00000  Uiso   1.00
N229   N     0.27506   0.35096   0.41470   0.00000  Uiso   1.00
N230   N     0.12091   0.91765   0.26272   0.00000  Uiso   1.00
C231   C     0.89462   0.21656   0.41528   0.00000  Uiso   1.00
C232   C     0.94140   0.19667   0.39621   0.00000  Uiso   1.00
C233   C     0.02024   0.22177   0.41949   0.00000  Uiso   1.00
C234   C     0.05223   0.19717   0.39607   0.00000  Uiso   1.00
C235   C     0.13177   0.17355   0.37333   0.00000  Uiso   1.00
C236   C     0.86389   0.11814   0.41732   0.00000  Uiso   1.00
C237   C     0.87755   0.07722   0.45835   0.00000  Uiso   1.00
C238   C     0.84427   0.98652   0.45270   0.00000  Uiso   1.00
C239   C     0.80342   0.84102   0.46273   0.00000  Uiso   1.00
C240   C     0.82141   0.27433   0.37543   0.00000  Uiso   1.00
C241   C     0.79935   0.36472   0.38124   0.00000  Uiso   1.00
C242   C     0.73030   0.40551   0.34033   0.00000  Uiso   1.00
C243   C     0.62351   0.50251   0.28533   0.00000  Uiso   1.00
C244   C     0.81121   0.12825   0.33229   0.00000  Uiso   1.00
C245   C     0.89610   0.14870   0.35114   0.00000  Uiso   1.00
C246   C     0.92797   0.12407   0.32768   0.00000  Uiso   1.00
C247   C     0.00684   0.14913   0.35092   0.00000  Uiso   1.00
C248   C     0.81859   0.07018   0.37225   0.00000  Uiso   1.00
C249   C     0.78527   0.97952   0.36654   0.00000  Uiso   1.00
C250   C     0.79888   0.93847   0.40755   0.00000  Uiso   1.00
C251   C     0.77611   0.22637   0.33036   0.00000  Uiso   1.00
C252   C     0.70708   0.26702   0.28943   0.00000  Uiso   1.00
C253   C     0.68491   0.35746   0.29518   0.00000  Uiso   1.00
H254   H     0.92988   0.25389   0.45037   0.00000  Uiso   1.00
H255   H     0.05528   0.25888   0.45437   0.00000  Uiso   1.00
H256   H     0.91260   0.11436   0.49322   0.00000  Uiso   1.00
H257   H     0.83442   0.40182   0.41613   0.00000  Uiso   1.00
H258   H     0.17434   0.24323   0.43894   0.00000  Uiso   1.00
H259   H     0.87347   0.93851   0.52086   0.00000  Uiso   1.00
H260   H     0.70860   0.54467   0.35829   0.00000  Uiso   1.00
H261   H     0.77594   0.09090   0.29720   0.00000  Uiso   1.00
H262   H     0.89289   0.08695   0.29280   0.00000  Uiso   1.00
H263   H     0.75022   0.94243   0.33165   0.00000  Uiso   1.00
H264   H     0.67203   0.22988   0.25456   0.00000  Uiso   1.00
H265   H     0.04254   0.10368   0.30780   0.00000  Uiso   1.00
H266   H     0.74167   0.79896   0.38972   0.00000  Uiso   1.00
H267   H     0.57681   0.40512   0.22715   0.00000  Uiso   1.00
O268   O     0.18816   0.17376   0.37325   0.00000  Uiso   1.00
O269   O     0.79342   0.77400   0.48072   0.00000  Uiso   1.00
O270   O     0.57712   0.56926   0.26743   0.00000  Uiso   1.00
N271   N     0.12727   0.21094   0.40868   0.00000  Uiso   1.00
N272   N     0.84598   0.92605   0.48527   0.00000  Uiso   1.00
N273   N     0.69183   0.49274   0.33328   0.00000  Uiso   1.00
N274   N     0.05635   0.13585   0.33811   0.00000  Uiso   1.00
N275   N     0.77506   0.85096   0.41470   0.00000  Uiso   1.00
N276   N     0.62091   0.41765   0.26272   0.00000  Uiso   1.00
C277   C     0.60538   0.71656   0.08472   0.00000  Uiso   1.00
C278   C     0.55860   0.69667   0.10379   0.00000  Uiso   1.00
C279   C     0.47976   0.72177   0.08051   0.00000  Uiso   1.00
C280   C     0.44777   0.69717   0.10393   0.00000  Uiso   1.00
C281   C     0.36823   0.67355   0.12667   0.00000  Uiso   1.00
C282   C     0.63611   0.61814   0.08268   0.00000  Uiso   1.00
C283   C     0.62245   0.57722   0.04165   0.00000  Uiso   1.00
C284   C     0.65573   0.48652   0.04730   0.00000  Uiso   1.00
C285   C     0.69658   0.34102   0.03727   0.00000  Uiso   1.00
C286   C     0.67859   0.77433   0.12457   0.00000  Uiso   1.00
C287   C     0.70065   0.86472   0.11876   0.00000  Uiso   1.00
C288   C     0.76970   0.90551   0.15967   0.00000  Uiso   1.00
C289   C     0.87649   0.00251   0.21467   0.00000  Uiso   1.00
C290   C     0.68879   0.62825   0.16771   0.00000  Uiso   1.00
C291   C     0.60390   0.64870   0.14886   0.00000  Uiso   1.00
C292   C     0.57203   0.62407   0.17232   0.00000  Uiso   1.00
C293   C     0.49316   0.64913   0.14908   0.00000  Uiso   1.00
C294   C     0.68141   0.57018   0.12775   0.00000  Uiso   1.00
C295   C     0.71473   0.47952   0.13346   0.00000  Uiso   1.00
C296   C     0.70112   0.43847   0.09245   0.00000  Uiso   1.00
C297   C     0.72389   0.72637   0.16964   0.00000  Uiso   1.00
C298   C     0.79292   0.76702   0.21057   0.00000  Uiso   1.00
C299   C     0.81509   0.85746   0.20482   0.00000  Uiso   1.00
H300   H     0.57012   0.75389   0.04963   0.00000  Uiso   1.00
H301   H     0.44472   0.75888   0.04563   0.00000  Uiso   1.00
H302   H     0.58740   0.61436   0.00678   0.00000  Uiso   1.00
H303   H     0.66558   0.90182   0.08387   0.00000  Uiso   1.00
H304   H     0.32566   0.74323   0.06106   0.00000  Uiso   1.00
H305   H     0.62653   0.43851   0.97914   0.00000  Uiso   1.00
H306   H     0.79140   0.04467   0.14171   0.00000  Uiso   1.00
H307   H     0.72406   0.59090   0.20280   0.00000  Uiso   1.00
H308   H     0.60711   0.58695   0.20720   0.00000  Uiso   1.00
H309   H     0.74978   0.44243   0.16835   0.00000  Uiso   1.00
H310   H     0.82797   0.72988   0.24544   0.00000  Uiso   1.00
H311   H     0.45746   0.60368   0.19220   0.00000  Uiso   1.00
H312   H     0.75833   0.29896   0.11028   0.00000  Uiso   1.00
H313   H     0.92319   0.90512   0.27285   0.00000  Uiso   1.00
O314   O     0.31184   0.67376   0.12675   0.00000  Uiso   1.00
O315   O     0.70658   0.27400   0.01928   0.00000  Uiso   1.00
O316   O     0.92288   0.06926   0.23257   0.00000  Uiso   1.00
N317   N     0.37273   0.71094   0.09132   0.00000  Uiso   1.00
N318   N     0.65402   0.42605   0.01473   0.00000  Uiso   1.00
N319   N     0.80817   0.99274   0.16672   0.00000  Uiso   1.00
N320   N     0.44365   0.63585   0.16189   0.00000  Uiso   1.00
N321   N     0.72494   0.35096   0.08530   0.00000  Uiso   1.00
N322   N     0.87909   0.91765   0.23728   0.00000  Uiso   1.00
C323   C     0.10538   0.21656   0.08472   0.00000  Uiso   1.00
C324   C     0.05860   0.19667   0.10379   0.00000  Uiso   1.00
C325   C     0.97976   0.22177   0.08051   0.00000  Uiso   1.00
C326   C     0.94777   0.19717   0.10393   0.00000  Uiso   1.00
C327   C     0.86823   0.17355   0.12667   0.00000  Uiso   1.00
C328   C     0.13611   0.11814   0.08268   0.00000  Uiso   1.00
C329   C     0.12245   0.07722   0.04165   0.00000  Uiso   1.00
C330   C     0.15573   0.98652   0.04730   0.00000  Uiso   1.00
C331   C     0.19658   0.84102   0.03727   0.00000  Uiso   1.00
C332   C     0.17859   0.27433   0.12457   0.00000  Uiso   1.00
C333   C     0.20065   0.36472   0.11876   0.00000  Uiso   1.00
C334   C     0.26970   0.40551   0.15967   0.00000  Uiso   1.00
C335   C     0.37649   0.50251   0.21467   0.00000  Uiso   1.00
C336   C     0.18879   0.12825   0.16771   0.00000  Uiso   1.00
C337   C     0.10390   0.14870   0.14886   0.00000  Uiso   1.00
C338   C     0.07203   0.12407   0.17232   0.00000  Uiso   1.00
C339   C     0.99316   0.14913   0.14908   0.00000  Uiso   1.00
C340   C     0.18141   0.07018   0.12775   0.00000  Uiso   1.00
C341   C     0.21473   0.97952   0.13346   0.00000  Uiso   1.00
C342   C     0.20112   0.93847   0.09245   0.00000  Uiso   1.00
C343   C     0.22389   0.22637   0.16964   0.00000  Uiso   1.00
C344   C     0.29292   0.26702   0.21057   0.00000  Uiso   1.00
C345   C     0.31509   0.35746   0.20482   0.00000  Uiso   1.00
H346   H     0.07012   0.25389   0.04963   0.00000  Uiso   1.00
H347   H     0.94472   0.25888   0.04563   0.00000  Uiso   1.00
H348   H     0.08740   0.11436   0.00678   0.00000  Uiso   1.00
H349   H     0.16558   0.40182   0.08387   0.00000  Uiso   1.00
H350   H     0.82566   0.24323   0.06106   0.00000  Uiso   1.00
H351   H     0.12653   0.93851   0.97914   0.00000  Uiso   1.00
H352   H     0.29140   0.54467   0.14171   0.00000  Uiso   1.00
H353   H     0.22406   0.09090   0.20280   0.00000  Uiso   1.00
H354   H     0.10711   0.08695   0.20720   0.00000  Uiso   1.00
H355   H     0.24978   0.94243   0.16835   0.00000  Uiso   1.00
H356   H     0.32797   0.22988   0.24544   0.00000  Uiso   1.00
H357   H     0.95746   0.10368   0.19220   0.00000  Uiso   1.00
H358   H     0.25833   0.79896   0.11028   0.00000  Uiso   1.00
H359   H     0.42319   0.40512   0.27285   0.00000  Uiso   1.00
O360   O     0.81184   0.17376   0.12675   0.00000  Uiso   1.00
O361   O     0.20658   0.77400   0.01928   0.00000  Uiso   1.00
O362   O     0.42288   0.56926   0.23257   0.00000  Uiso   1.00
N363   N     0.87273   0.21094   0.09132   0.00000  Uiso   1.00
N364   N     0.15402   0.92605   0.01473   0.00000  Uiso   1.00
N365   N     0.30817   0.49274   0.16672   0.00000  Uiso   1.00
N366   N     0.94365   0.13585   0.16189   0.00000  Uiso   1.00
N367   N     0.22494   0.85096   0.08530   0.00000  Uiso   1.00
N368   N     0.37909   0.41765   0.23728   0.00000  Uiso   1.00
