data_job_01096
_audit_creation_date              2018-12-19
_audit_creation_method            'Materials Studio'
_symmetry_space_group_name_H-M    'P1'
_symmetry_Int_Tables_number       1
_symmetry_cell_setting            triclinic
loop_
_symmetry_equiv_pos_as_xyz
  x,y,z
_cell_length_a                    12.6571
_cell_length_b                    12.6571
_cell_length_c                    48.6221
_cell_angle_alpha                 90.0000
_cell_angle_beta                  90.0000
_cell_angle_gamma                 120.0000
loop_
_atom_site_label
_atom_site_type_symbol
_atom_site_fract_x
_atom_site_fract_y
_atom_site_fract_z
_atom_site_U_iso_or_equiv
_atom_site_adp_type
_atom_site_occupancy
C1     C     0.51813   0.62832   0.01193   0.00000  Uiso   1.00
C2     C     0.51595   0.52477   0.99543   0.00000  Uiso   1.00
C3     C     0.41340   0.41259   0.99007   0.00000  Uiso   1.00
C4     C     0.43045   0.33011   0.97459   0.00000  Uiso   1.00
C5     C     0.40950   0.16492   0.95048   0.00000  Uiso   1.00
C6     C     0.61016   0.65714   0.03502   0.00000  Uiso   1.00
C7     C     0.58682   0.65628   0.06293   0.00000  Uiso   1.00
C8     C     0.68318   0.68525   0.08078   0.00000  Uiso   1.00
C9     C     0.80852   0.72566   0.11812   0.00000  Uiso   1.00
C10    C     0.57400   0.73937   0.99304   0.00000  Uiso   1.00
C11    C     0.52028   0.80768   0.98566   0.00000  Uiso   1.00
C12    C     0.58622   0.90590   0.96817   0.00000  Uiso   1.00
C13    C     0.65542   0.07398   0.94033   0.00000  Uiso   1.00
C14    C     0.73076   0.68133   0.99399   0.00000  Uiso   1.00
C15    C     0.63144   0.55357   0.98569   0.00000  Uiso   1.00
C16    C     0.64864   0.47124   0.97022   0.00000  Uiso   1.00
C17    C     0.54614   0.35895   0.96483   0.00000  Uiso   1.00
C18    C     0.72564   0.68594   0.02528   0.00000  Uiso   1.00
C19    C     0.82206   0.71492   0.04309   0.00000  Uiso   1.00
C20    C     0.79888   0.71409   0.07102   0.00000  Uiso   1.00
C21    C     0.68949   0.76817   0.98329   0.00000  Uiso   1.00
C22    C     0.75553   0.86632   0.96581   0.00000  Uiso   1.00
C23    C     0.70192   0.93475   0.95841   0.00000  Uiso   1.00
H24    H     0.42822   0.60591   0.01951   0.00000  Uiso   1.00
H25    H     0.32404   0.39034   0.99761   0.00000  Uiso   1.00
H26    H     0.49744   0.63400   0.07046   0.00000  Uiso   1.00
H27    H     0.43091   0.78537   0.99320   0.00000  Uiso   1.00
H28    H     0.25948   0.16402   0.96904   0.00000  Uiso   1.00
H29    H     0.62511   0.67784   0.12265   0.00000  Uiso   1.00
H30    H     0.48482   0.99703   0.95974   0.00000  Uiso   1.00
H31    H     0.82067   0.70375   0.98640   0.00000  Uiso   1.00
H32    H     0.73803   0.49354   0.96268   0.00000  Uiso   1.00
H33    H     0.91142   0.73721   0.03554   0.00000  Uiso   1.00
H34    H     0.84489   0.88857   0.95828   0.00000  Uiso   1.00
H35    H     0.59548   0.24778   0.94070   0.00000  Uiso   1.00
H36    H     0.96112   0.76161   0.09431   0.00000  Uiso   1.00
H37    H     0.82082   0.08079   0.93139   0.00000  Uiso   1.00
O38    O     0.36604   0.06584   0.93987   0.00000  Uiso   1.00
O39    O     0.84574   0.73997   0.14140   0.00000  Uiso   1.00
O40    O     0.66168   0.15873   0.92766   0.00000  Uiso   1.00
N41    N     0.34990   0.21259   0.96562   0.00000  Uiso   1.00
N42    N     0.69173   0.69296   0.10924   0.00000  Uiso   1.00
N43    N     0.56059   0.99139   0.95693   0.00000  Uiso   1.00
N44    N     0.53070   0.25766   0.95037   0.00000  Uiso   1.00
N45    N     0.87253   0.73803   0.09399   0.00000  Uiso   1.00
N46    N     0.74139   0.03647   0.94168   0.00000  Uiso   1.00
C47    C     0.37168   0.88981   0.67859   0.00000  Uiso   1.00
C48    C     0.47523   0.99118   0.66210   0.00000  Uiso   1.00
C49    C     0.58741   0.00081   0.65673   0.00000  Uiso   1.00
C50    C     0.66989   0.10034   0.64126   0.00000  Uiso   1.00
C51    C     0.83508   0.24458   0.61714   0.00000  Uiso   1.00
C52    C     0.34286   0.95301   0.70168   0.00000  Uiso   1.00
C53    C     0.34372   0.93054   0.72960   0.00000  Uiso   1.00
C54    C     0.31475   0.99793   0.74744   0.00000  Uiso   1.00
C55    C     0.27434   0.08286   0.78478   0.00000  Uiso   1.00
C56    C     0.26063   0.83463   0.65970   0.00000  Uiso   1.00
C57    C     0.19232   0.71261   0.65233   0.00000  Uiso   1.00
C58    C     0.09410   0.68032   0.63484   0.00000  Uiso   1.00
C59    C     0.92602   0.58143   0.60700   0.00000  Uiso   1.00
C60    C     0.31867   0.04942   0.66066   0.00000  Uiso   1.00
C61    C     0.44643   0.07787   0.65236   0.00000  Uiso   1.00
C62    C     0.52876   0.17741   0.63689   0.00000  Uiso   1.00
C63    C     0.64105   0.18719   0.63150   0.00000  Uiso   1.00
C64    C     0.31406   0.03971   0.69194   0.00000  Uiso   1.00
C65    C     0.28508   0.10714   0.70975   0.00000  Uiso   1.00
C66    C     0.28591   0.08479   0.73768   0.00000  Uiso   1.00
C67    C     0.23183   0.92132   0.64996   0.00000  Uiso   1.00
C68    C     0.13368   0.88921   0.63248   0.00000  Uiso   1.00
C69    C     0.06525   0.76717   0.62508   0.00000  Uiso   1.00
H70    H     0.39409   0.82232   0.68618   0.00000  Uiso   1.00
H71    H     0.60966   0.93371   0.66428   0.00000  Uiso   1.00
H72    H     0.36600   0.86344   0.73713   0.00000  Uiso   1.00
H73    H     0.21463   0.64555   0.65987   0.00000  Uiso   1.00
H74    H     0.83598   0.09546   0.63571   0.00000  Uiso   1.00
H75    H     0.32216   0.94727   0.78932   0.00000  Uiso   1.00
H76    H     0.00297   0.48779   0.62640   0.00000  Uiso   1.00
H77    H     0.29625   0.11692   0.65307   0.00000  Uiso   1.00
H78    H     0.50646   0.24448   0.62935   0.00000  Uiso   1.00
H79    H     0.26279   0.17422   0.70221   0.00000  Uiso   1.00
H80    H     0.11143   0.95632   0.62495   0.00000  Uiso   1.00
H81    H     0.75222   0.34770   0.60736   0.00000  Uiso   1.00
H82    H     0.23839   0.19951   0.76098   0.00000  Uiso   1.00
H83    H     0.91921   0.74003   0.59806   0.00000  Uiso   1.00
O84    O     0.93416   0.30020   0.60654   0.00000  Uiso   1.00
O85    O     0.26003   0.10576   0.80807   0.00000  Uiso   1.00
O86    O     0.84127   0.50294   0.59433   0.00000  Uiso   1.00
N87    N     0.78741   0.13731   0.63229   0.00000  Uiso   1.00
N88    N     0.30704   0.99877   0.77591   0.00000  Uiso   1.00
N89    N     0.00861   0.56919   0.62360   0.00000  Uiso   1.00
N90    N     0.74234   0.27303   0.61703   0.00000  Uiso   1.00
N91    N     0.26197   0.13450   0.76065   0.00000  Uiso   1.00
N92    N     0.96353   0.70492   0.60835   0.00000  Uiso   1.00
C93    C     0.11019   0.48187   0.34526   0.00000  Uiso   1.00
C94    C     0.00882   0.48405   0.32877   0.00000  Uiso   1.00
C95    C     0.99919   0.58660   0.32340   0.00000  Uiso   1.00
C96    C     0.89966   0.56955   0.30793   0.00000  Uiso   1.00
C97    C     0.75542   0.59050   0.28381   0.00000  Uiso   1.00
C98    C     0.04699   0.38984   0.36835   0.00000  Uiso   1.00
C99    C     0.06946   0.41318   0.39626   0.00000  Uiso   1.00
C100   C     0.00207   0.31682   0.41411   0.00000  Uiso   1.00
C101   C     0.91714   0.19148   0.45145   0.00000  Uiso   1.00
C102   C     0.16537   0.42600   0.32637   0.00000  Uiso   1.00
C103   C     0.28739   0.47972   0.31899   0.00000  Uiso   1.00
C104   C     0.31968   0.41378   0.30150   0.00000  Uiso   1.00
C105   C     0.41857   0.34458   0.27366   0.00000  Uiso   1.00
C106   C     0.95058   0.26924   0.32732   0.00000  Uiso   1.00
C107   C     0.92213   0.36856   0.31903   0.00000  Uiso   1.00
C108   C     0.82259   0.35136   0.30355   0.00000  Uiso   1.00
C109   C     0.81281   0.45386   0.29816   0.00000  Uiso   1.00
C110   C     0.96029   0.27436   0.35861   0.00000  Uiso   1.00
C111   C     0.89286   0.17794   0.37642   0.00000  Uiso   1.00
C112   C     0.91521   0.20112   0.40435   0.00000  Uiso   1.00
C113   C     0.07868   0.31051   0.31663   0.00000  Uiso   1.00
C114   C     0.11079   0.24447   0.29915   0.00000  Uiso   1.00
C115   C     0.23283   0.29808   0.29174   0.00000  Uiso   1.00
H116   H     0.17768   0.57178   0.35285   0.00000  Uiso   1.00
H117   H     0.06629   0.67596   0.33094   0.00000  Uiso   1.00
H118   H     0.13656   0.50256   0.40380   0.00000  Uiso   1.00
H119   H     0.35445   0.56909   0.32654   0.00000  Uiso   1.00
H120   H     0.90454   0.74052   0.30238   0.00000  Uiso   1.00
H121   H     0.05273   0.37489   0.45599   0.00000  Uiso   1.00
H122   H     0.51221   0.51518   0.29307   0.00000  Uiso   1.00
H123   H     0.88308   0.17933   0.31974   0.00000  Uiso   1.00
H124   H     0.75552   0.26197   0.29602   0.00000  Uiso   1.00
H125   H     0.82578   0.08858   0.36887   0.00000  Uiso   1.00
H126   H     0.04368   0.15511   0.29161   0.00000  Uiso   1.00
H127   H     0.65230   0.40452   0.27403   0.00000  Uiso   1.00
H128   H     0.80049   0.03888   0.42764   0.00000  Uiso   1.00
H129   H     0.25997   0.17918   0.26472   0.00000  Uiso   1.00
O130   O     0.69980   0.63396   0.27320   0.00000  Uiso   1.00
O131   O     0.89424   0.15426   0.47474   0.00000  Uiso   1.00
O132   O     0.49706   0.33832   0.26099   0.00000  Uiso   1.00
N133   N     0.86269   0.65010   0.29895   0.00000  Uiso   1.00
N134   N     0.00123   0.30827   0.44257   0.00000  Uiso   1.00
N135   N     0.43081   0.43941   0.29027   0.00000  Uiso   1.00
N136   N     0.72697   0.46930   0.28370   0.00000  Uiso   1.00
N137   N     0.86550   0.12747   0.42732   0.00000  Uiso   1.00
N138   N     0.29508   0.25861   0.27501   0.00000  Uiso   1.00
C139   C     0.48187   0.37168   0.51193   0.00000  Uiso   1.00
C140   C     0.48405   0.47523   0.49543   0.00000  Uiso   1.00
C141   C     0.58660   0.58741   0.49007   0.00000  Uiso   1.00
C142   C     0.56955   0.66989   0.47459   0.00000  Uiso   1.00
C143   C     0.59050   0.83508   0.45048   0.00000  Uiso   1.00
C144   C     0.38984   0.34286   0.53502   0.00000  Uiso   1.00
C145   C     0.41318   0.34372   0.56293   0.00000  Uiso   1.00
C146   C     0.31682   0.31475   0.58078   0.00000  Uiso   1.00
C147   C     0.19148   0.27434   0.61812   0.00000  Uiso   1.00
C148   C     0.42600   0.26063   0.49304   0.00000  Uiso   1.00
C149   C     0.47972   0.19232   0.48566   0.00000  Uiso   1.00
C150   C     0.41378   0.09410   0.46817   0.00000  Uiso   1.00
C151   C     0.34458   0.92602   0.44033   0.00000  Uiso   1.00
C152   C     0.26924   0.31867   0.49399   0.00000  Uiso   1.00
C153   C     0.36856   0.44643   0.48569   0.00000  Uiso   1.00
C154   C     0.35136   0.52876   0.47022   0.00000  Uiso   1.00
C155   C     0.45386   0.64105   0.46483   0.00000  Uiso   1.00
C156   C     0.27436   0.31406   0.52528   0.00000  Uiso   1.00
C157   C     0.17794   0.28508   0.54309   0.00000  Uiso   1.00
C158   C     0.20112   0.28591   0.57102   0.00000  Uiso   1.00
C159   C     0.31051   0.23183   0.48329   0.00000  Uiso   1.00
C160   C     0.24447   0.13368   0.46581   0.00000  Uiso   1.00
C161   C     0.29808   0.06525   0.45841   0.00000  Uiso   1.00
H162   H     0.57178   0.39409   0.51951   0.00000  Uiso   1.00
H163   H     0.67596   0.60966   0.49761   0.00000  Uiso   1.00
H164   H     0.50256   0.36600   0.57046   0.00000  Uiso   1.00
H165   H     0.56909   0.21463   0.49320   0.00000  Uiso   1.00
H166   H     0.74052   0.83598   0.46904   0.00000  Uiso   1.00
H167   H     0.37489   0.32216   0.62265   0.00000  Uiso   1.00
H168   H     0.51518   0.00297   0.45974   0.00000  Uiso   1.00
H169   H     0.17933   0.29625   0.48640   0.00000  Uiso   1.00
H170   H     0.26197   0.50646   0.46268   0.00000  Uiso   1.00
H171   H     0.08858   0.26279   0.53554   0.00000  Uiso   1.00
H172   H     0.15511   0.11143   0.45828   0.00000  Uiso   1.00
H173   H     0.40452   0.75222   0.44070   0.00000  Uiso   1.00
H174   H     0.03888   0.23839   0.59431   0.00000  Uiso   1.00
H175   H     0.17918   0.91921   0.43139   0.00000  Uiso   1.00
O176   O     0.63396   0.93416   0.43987   0.00000  Uiso   1.00
O177   O     0.15426   0.26003   0.64140   0.00000  Uiso   1.00
O178   O     0.33832   0.84127   0.42766   0.00000  Uiso   1.00
N179   N     0.65010   0.78741   0.46562   0.00000  Uiso   1.00
N180   N     0.30827   0.30704   0.60924   0.00000  Uiso   1.00
N181   N     0.43941   0.00861   0.45693   0.00000  Uiso   1.00
N182   N     0.46930   0.74234   0.45037   0.00000  Uiso   1.00
N183   N     0.12747   0.26197   0.59399   0.00000  Uiso   1.00
N184   N     0.25861   0.96353   0.44168   0.00000  Uiso   1.00
C185   C     0.62832   0.11019   0.17859   0.00000  Uiso   1.00
C186   C     0.52477   0.00882   0.16210   0.00000  Uiso   1.00
C187   C     0.41259   0.99919   0.15673   0.00000  Uiso   1.00
C188   C     0.33011   0.89966   0.14126   0.00000  Uiso   1.00
C189   C     0.16492   0.75542   0.11714   0.00000  Uiso   1.00
C190   C     0.65714   0.04699   0.20168   0.00000  Uiso   1.00
C191   C     0.65628   0.06946   0.22960   0.00000  Uiso   1.00
C192   C     0.68525   0.00207   0.24744   0.00000  Uiso   1.00
C193   C     0.72566   0.91714   0.28478   0.00000  Uiso   1.00
C194   C     0.73937   0.16537   0.15970   0.00000  Uiso   1.00
C195   C     0.80768   0.28739   0.15233   0.00000  Uiso   1.00
C196   C     0.90590   0.31968   0.13484   0.00000  Uiso   1.00
C197   C     0.07398   0.41857   0.10700   0.00000  Uiso   1.00
C198   C     0.68133   0.95058   0.16066   0.00000  Uiso   1.00
C199   C     0.55357   0.92213   0.15236   0.00000  Uiso   1.00
C200   C     0.47124   0.82259   0.13689   0.00000  Uiso   1.00
C201   C     0.35895   0.81281   0.13150   0.00000  Uiso   1.00
C202   C     0.68594   0.96029   0.19194   0.00000  Uiso   1.00
C203   C     0.71492   0.89286   0.20975   0.00000  Uiso   1.00
C204   C     0.71409   0.91521   0.23768   0.00000  Uiso   1.00
C205   C     0.76817   0.07868   0.14996   0.00000  Uiso   1.00
C206   C     0.86632   0.11079   0.13248   0.00000  Uiso   1.00
C207   C     0.93475   0.23283   0.12508   0.00000  Uiso   1.00
H208   H     0.60591   0.17768   0.18618   0.00000  Uiso   1.00
H209   H     0.39034   0.06629   0.16428   0.00000  Uiso   1.00
H210   H     0.63400   0.13656   0.23713   0.00000  Uiso   1.00
H211   H     0.78537   0.35445   0.15987   0.00000  Uiso   1.00
H212   H     0.16402   0.90454   0.13571   0.00000  Uiso   1.00
H213   H     0.67784   0.05273   0.28932   0.00000  Uiso   1.00
H214   H     0.99703   0.51221   0.12640   0.00000  Uiso   1.00
H215   H     0.70375   0.88308   0.15307   0.00000  Uiso   1.00
H216   H     0.49354   0.75552   0.12935   0.00000  Uiso   1.00
H217   H     0.73721   0.82578   0.20221   0.00000  Uiso   1.00
H218   H     0.88857   0.04368   0.12495   0.00000  Uiso   1.00
H219   H     0.24778   0.65230   0.10736   0.00000  Uiso   1.00
H220   H     0.76161   0.80049   0.26098   0.00000  Uiso   1.00
H221   H     0.08079   0.25997   0.09806   0.00000  Uiso   1.00
O222   O     0.06584   0.69980   0.10654   0.00000  Uiso   1.00
O223   O     0.73997   0.89424   0.30807   0.00000  Uiso   1.00
O224   O     0.15873   0.49706   0.09433   0.00000  Uiso   1.00
N225   N     0.21259   0.86269   0.13229   0.00000  Uiso   1.00
N226   N     0.69296   0.00123   0.27591   0.00000  Uiso   1.00
N227   N     0.99139   0.43081   0.12360   0.00000  Uiso   1.00
N228   N     0.25766   0.72697   0.11703   0.00000  Uiso   1.00
N229   N     0.73803   0.86550   0.26065   0.00000  Uiso   1.00
N230   N     0.03647   0.29508   0.10835   0.00000  Uiso   1.00
C231   C     0.88981   0.51813   0.84526   0.00000  Uiso   1.00
C232   C     0.99118   0.51595   0.82877   0.00000  Uiso   1.00
C233   C     0.00081   0.41340   0.82340   0.00000  Uiso   1.00
C234   C     0.10034   0.43045   0.80793   0.00000  Uiso   1.00
C235   C     0.24458   0.40950   0.78381   0.00000  Uiso   1.00
C236   C     0.95301   0.61016   0.86835   0.00000  Uiso   1.00
C237   C     0.93054   0.58682   0.89626   0.00000  Uiso   1.00
C238   C     0.99793   0.68318   0.91411   0.00000  Uiso   1.00
C239   C     0.08286   0.80852   0.95145   0.00000  Uiso   1.00
C240   C     0.83463   0.57400   0.82637   0.00000  Uiso   1.00
C241   C     0.71261   0.52028   0.81899   0.00000  Uiso   1.00
C242   C     0.68032   0.58622   0.80150   0.00000  Uiso   1.00
C243   C     0.58143   0.65542   0.77366   0.00000  Uiso   1.00
C244   C     0.04942   0.73076   0.82732   0.00000  Uiso   1.00
C245   C     0.07787   0.63144   0.81903   0.00000  Uiso   1.00
C246   C     0.17741   0.64864   0.80355   0.00000  Uiso   1.00
C247   C     0.18719   0.54614   0.79816   0.00000  Uiso   1.00
C248   C     0.03971   0.72564   0.85861   0.00000  Uiso   1.00
C249   C     0.10714   0.82206   0.87642   0.00000  Uiso   1.00
C250   C     0.08479   0.79888   0.90435   0.00000  Uiso   1.00
C251   C     0.92132   0.68949   0.81663   0.00000  Uiso   1.00
C252   C     0.88921   0.75553   0.79915   0.00000  Uiso   1.00
C253   C     0.76717   0.70192   0.79174   0.00000  Uiso   1.00
H254   H     0.82232   0.42822   0.85285   0.00000  Uiso   1.00
H255   H     0.93371   0.32404   0.83094   0.00000  Uiso   1.00
H256   H     0.86344   0.49744   0.90380   0.00000  Uiso   1.00
H257   H     0.64555   0.43091   0.82654   0.00000  Uiso   1.00
H258   H     0.09546   0.25948   0.80238   0.00000  Uiso   1.00
H259   H     0.94727   0.62511   0.95599   0.00000  Uiso   1.00
H260   H     0.48779   0.48482   0.79307   0.00000  Uiso   1.00
H261   H     0.11692   0.82067   0.81974   0.00000  Uiso   1.00
H262   H     0.24448   0.73803   0.79602   0.00000  Uiso   1.00
H263   H     0.17422   0.91142   0.86887   0.00000  Uiso   1.00
H264   H     0.95632   0.84489   0.79161   0.00000  Uiso   1.00
H265   H     0.34770   0.59548   0.77403   0.00000  Uiso   1.00
H266   H     0.19951   0.96112   0.92764   0.00000  Uiso   1.00
H267   H     0.74003   0.82082   0.76472   0.00000  Uiso   1.00
O268   O     0.30020   0.36604   0.77320   0.00000  Uiso   1.00
O269   O     0.10576   0.84574   0.97474   0.00000  Uiso   1.00
O270   O     0.50294   0.66168   0.76099   0.00000  Uiso   1.00
N271   N     0.13731   0.34990   0.79895   0.00000  Uiso   1.00
N272   N     0.99877   0.69173   0.94257   0.00000  Uiso   1.00
N273   N     0.56919   0.56059   0.79027   0.00000  Uiso   1.00
N274   N     0.27303   0.53070   0.78370   0.00000  Uiso   1.00
N275   N     0.13450   0.87253   0.92732   0.00000  Uiso   1.00
N276   N     0.70492   0.74139   0.77501   0.00000  Uiso   1.00
C277   C     0.62832   0.51813   0.65474   0.00000  Uiso   1.00
C278   C     0.52477   0.51595   0.67123   0.00000  Uiso   1.00
C279   C     0.41259   0.41340   0.67660   0.00000  Uiso   1.00
C280   C     0.33011   0.43045   0.69207   0.00000  Uiso   1.00
C281   C     0.16492   0.40950   0.71619   0.00000  Uiso   1.00
C282   C     0.65714   0.61016   0.63165   0.00000  Uiso   1.00
C283   C     0.65628   0.58682   0.60374   0.00000  Uiso   1.00
C284   C     0.68525   0.68318   0.58589   0.00000  Uiso   1.00
C285   C     0.72566   0.80852   0.54855   0.00000  Uiso   1.00
C286   C     0.73937   0.57400   0.67363   0.00000  Uiso   1.00
C287   C     0.80768   0.52028   0.68101   0.00000  Uiso   1.00
C288   C     0.90590   0.58622   0.69850   0.00000  Uiso   1.00
C289   C     0.07398   0.65542   0.72634   0.00000  Uiso   1.00
C290   C     0.68133   0.73076   0.67268   0.00000  Uiso   1.00
C291   C     0.55357   0.63144   0.68097   0.00000  Uiso   1.00
C292   C     0.47124   0.64864   0.69645   0.00000  Uiso   1.00
C293   C     0.35895   0.54614   0.70184   0.00000  Uiso   1.00
C294   C     0.68594   0.72564   0.64139   0.00000  Uiso   1.00
C295   C     0.71492   0.82206   0.62358   0.00000  Uiso   1.00
C296   C     0.71409   0.79888   0.59565   0.00000  Uiso   1.00
C297   C     0.76817   0.68949   0.68337   0.00000  Uiso   1.00
C298   C     0.86632   0.75553   0.70085   0.00000  Uiso   1.00
C299   C     0.93475   0.70192   0.70826   0.00000  Uiso   1.00
H300   H     0.60591   0.42822   0.64715   0.00000  Uiso   1.00
H301   H     0.39034   0.32404   0.66906   0.00000  Uiso   1.00
H302   H     0.63400   0.49744   0.59620   0.00000  Uiso   1.00
H303   H     0.78537   0.43091   0.67346   0.00000  Uiso   1.00
H304   H     0.16402   0.25948   0.69762   0.00000  Uiso   1.00
H305   H     0.67784   0.62511   0.54401   0.00000  Uiso   1.00
H306   H     0.99703   0.48482   0.70693   0.00000  Uiso   1.00
H307   H     0.70375   0.82067   0.68026   0.00000  Uiso   1.00
H308   H     0.49354   0.73803   0.70398   0.00000  Uiso   1.00
H309   H     0.73721   0.91142   0.63113   0.00000  Uiso   1.00
H310   H     0.88857   0.84489   0.70839   0.00000  Uiso   1.00
H311   H     0.24778   0.59548   0.72597   0.00000  Uiso   1.00
H312   H     0.76161   0.96112   0.57236   0.00000  Uiso   1.00
H313   H     0.08079   0.82082   0.73528   0.00000  Uiso   1.00
O314   O     0.06584   0.36604   0.72680   0.00000  Uiso   1.00
O315   O     0.73997   0.84574   0.52526   0.00000  Uiso   1.00
O316   O     0.15873   0.66168   0.73901   0.00000  Uiso   1.00
N317   N     0.21259   0.34990   0.70105   0.00000  Uiso   1.00
N318   N     0.69296   0.69173   0.55743   0.00000  Uiso   1.00
N319   N     0.99139   0.56059   0.70973   0.00000  Uiso   1.00
N320   N     0.25766   0.53070   0.71630   0.00000  Uiso   1.00
N321   N     0.73803   0.87253   0.57268   0.00000  Uiso   1.00
N322   N     0.03647   0.74139   0.72499   0.00000  Uiso   1.00
C323   C     0.88981   0.37168   0.98807   0.00000  Uiso   1.00
C324   C     0.99118   0.47523   0.00457   0.00000  Uiso   1.00
C325   C     0.00081   0.58741   0.00993   0.00000  Uiso   1.00
C326   C     0.10034   0.66989   0.02541   0.00000  Uiso   1.00
C327   C     0.24458   0.83508   0.04952   0.00000  Uiso   1.00
C328   C     0.95301   0.34286   0.96498   0.00000  Uiso   1.00
C329   C     0.93054   0.34372   0.93707   0.00000  Uiso   1.00
C330   C     0.99793   0.31475   0.91922   0.00000  Uiso   1.00
C331   C     0.08286   0.27434   0.88188   0.00000  Uiso   1.00
C332   C     0.83463   0.26063   0.00696   0.00000  Uiso   1.00
C333   C     0.71261   0.19232   0.01434   0.00000  Uiso   1.00
C334   C     0.68032   0.09410   0.03183   0.00000  Uiso   1.00
C335   C     0.58143   0.92602   0.05967   0.00000  Uiso   1.00
C336   C     0.04942   0.31867   0.00601   0.00000  Uiso   1.00
C337   C     0.07787   0.44643   0.01431   0.00000  Uiso   1.00
C338   C     0.17741   0.52876   0.02978   0.00000  Uiso   1.00
C339   C     0.18719   0.64105   0.03517   0.00000  Uiso   1.00
C340   C     0.03971   0.31406   0.97472   0.00000  Uiso   1.00
C341   C     0.10714   0.28508   0.95691   0.00000  Uiso   1.00
C342   C     0.08479   0.28591   0.92898   0.00000  Uiso   1.00
C343   C     0.92132   0.23183   0.01671   0.00000  Uiso   1.00
C344   C     0.88921   0.13368   0.03419   0.00000  Uiso   1.00
C345   C     0.76717   0.06525   0.04159   0.00000  Uiso   1.00
H346   H     0.82232   0.39409   0.98049   0.00000  Uiso   1.00
H347   H     0.93371   0.60966   0.00239   0.00000  Uiso   1.00
H348   H     0.86344   0.36600   0.92954   0.00000  Uiso   1.00
H349   H     0.64555   0.21463   0.00680   0.00000  Uiso   1.00
H350   H     0.09546   0.83598   0.03096   0.00000  Uiso   1.00
H351   H     0.94727   0.32216   0.87735   0.00000  Uiso   1.00
H352   H     0.48779   0.00297   0.04026   0.00000  Uiso   1.00
H353   H     0.11692   0.29625   0.01360   0.00000  Uiso   1.00
H354   H     0.24448   0.50646   0.03732   0.00000  Uiso   1.00
H355   H     0.17422   0.26279   0.96446   0.00000  Uiso   1.00
H356   H     0.95632   0.11143   0.04172   0.00000  Uiso   1.00
H357   H     0.34770   0.75222   0.05930   0.00000  Uiso   1.00
H358   H     0.19951   0.23839   0.90569   0.00000  Uiso   1.00
H359   H     0.74003   0.91921   0.06861   0.00000  Uiso   1.00
O360   O     0.30020   0.93416   0.06013   0.00000  Uiso   1.00
O361   O     0.10576   0.26003   0.85860   0.00000  Uiso   1.00
O362   O     0.50294   0.84127   0.07234   0.00000  Uiso   1.00
N363   N     0.13731   0.78741   0.03438   0.00000  Uiso   1.00
N364   N     0.99877   0.30704   0.89076   0.00000  Uiso   1.00
N365   N     0.56919   0.00861   0.04307   0.00000  Uiso   1.00
N366   N     0.27303   0.74234   0.04963   0.00000  Uiso   1.00
N367   N     0.13450   0.26197   0.90601   0.00000  Uiso   1.00
N368   N     0.70492   0.96353   0.05832   0.00000  Uiso   1.00
C369   C     0.48187   0.11019   0.32141   0.00000  Uiso   1.00
C370   C     0.48405   0.00882   0.33790   0.00000  Uiso   1.00
C371   C     0.58660   0.99919   0.34327   0.00000  Uiso   1.00
C372   C     0.56955   0.89966   0.35874   0.00000  Uiso   1.00
C373   C     0.59050   0.75542   0.38286   0.00000  Uiso   1.00
C374   C     0.38984   0.04699   0.29832   0.00000  Uiso   1.00
C375   C     0.41318   0.06946   0.27040   0.00000  Uiso   1.00
C376   C     0.31682   0.00207   0.25256   0.00000  Uiso   1.00
C377   C     0.19148   0.91714   0.21522   0.00000  Uiso   1.00
C378   C     0.42600   0.16537   0.34030   0.00000  Uiso   1.00
C379   C     0.47972   0.28739   0.34767   0.00000  Uiso   1.00
C380   C     0.41378   0.31968   0.36516   0.00000  Uiso   1.00
C381   C     0.34458   0.41857   0.39300   0.00000  Uiso   1.00
C382   C     0.26924   0.95058   0.33934   0.00000  Uiso   1.00
C383   C     0.36856   0.92213   0.34764   0.00000  Uiso   1.00
C384   C     0.35136   0.82259   0.36311   0.00000  Uiso   1.00
C385   C     0.45386   0.81281   0.36850   0.00000  Uiso   1.00
C386   C     0.27436   0.96029   0.30806   0.00000  Uiso   1.00
C387   C     0.17794   0.89286   0.29025   0.00000  Uiso   1.00
C388   C     0.20112   0.91521   0.26232   0.00000  Uiso   1.00
C389   C     0.31051   0.07868   0.35004   0.00000  Uiso   1.00
C390   C     0.24447   0.11079   0.36752   0.00000  Uiso   1.00
C391   C     0.29808   0.23283   0.37492   0.00000  Uiso   1.00
H392   H     0.57178   0.17768   0.31382   0.00000  Uiso   1.00
H393   H     0.67596   0.06629   0.33572   0.00000  Uiso   1.00
H394   H     0.50256   0.13656   0.26287   0.00000  Uiso   1.00
H395   H     0.56909   0.35445   0.34013   0.00000  Uiso   1.00
H396   H     0.74052   0.90454   0.36429   0.00000  Uiso   1.00
H397   H     0.37489   0.05273   0.21068   0.00000  Uiso   1.00
H398   H     0.51518   0.51221   0.37360   0.00000  Uiso   1.00
H399   H     0.17933   0.88308   0.34693   0.00000  Uiso   1.00
H400   H     0.26197   0.75552   0.37065   0.00000  Uiso   1.00
H401   H     0.08858   0.82578   0.29779   0.00000  Uiso   1.00
H402   H     0.15511   0.04368   0.37505   0.00000  Uiso   1.00
H403   H     0.40452   0.65230   0.39264   0.00000  Uiso   1.00
H404   H     0.03888   0.80049   0.23902   0.00000  Uiso   1.00
H405   H     0.17918   0.25997   0.40194   0.00000  Uiso   1.00
O406   O     0.63396   0.69980   0.39346   0.00000  Uiso   1.00
O407   O     0.15426   0.89424   0.19193   0.00000  Uiso   1.00
O408   O     0.33832   0.49706   0.40567   0.00000  Uiso   1.00
N409   N     0.65010   0.86269   0.36771   0.00000  Uiso   1.00
N410   N     0.30827   0.00123   0.22409   0.00000  Uiso   1.00
N411   N     0.43941   0.43081   0.37640   0.00000  Uiso   1.00
N412   N     0.46930   0.72697   0.38297   0.00000  Uiso   1.00
N413   N     0.12747   0.86550   0.23935   0.00000  Uiso   1.00
N414   N     0.25861   0.29508   0.39165   0.00000  Uiso   1.00
C415   C     0.37168   0.48187   0.15474   0.00000  Uiso   1.00
C416   C     0.47523   0.48405   0.17123   0.00000  Uiso   1.00
C417   C     0.58741   0.58660   0.17660   0.00000  Uiso   1.00
C418   C     0.66989   0.56955   0.19207   0.00000  Uiso   1.00
C419   C     0.83508   0.59050   0.21619   0.00000  Uiso   1.00
C420   C     0.34286   0.38984   0.13165   0.00000  Uiso   1.00
C421   C     0.34372   0.41318   0.10374   0.00000  Uiso   1.00
C422   C     0.31475   0.31682   0.08589   0.00000  Uiso   1.00
C423   C     0.27434   0.19148   0.04855   0.00000  Uiso   1.00
C424   C     0.26063   0.42600   0.17363   0.00000  Uiso   1.00
C425   C     0.19232   0.47972   0.18101   0.00000  Uiso   1.00
C426   C     0.09410   0.41378   0.19850   0.00000  Uiso   1.00
C427   C     0.92602   0.34458   0.22634   0.00000  Uiso   1.00
C428   C     0.31867   0.26924   0.17268   0.00000  Uiso   1.00
C429   C     0.44643   0.36856   0.18097   0.00000  Uiso   1.00
C430   C     0.52876   0.35136   0.19645   0.00000  Uiso   1.00
C431   C     0.64105   0.45386   0.20184   0.00000  Uiso   1.00
C432   C     0.31406   0.27436   0.14139   0.00000  Uiso   1.00
C433   C     0.28508   0.17794   0.12358   0.00000  Uiso   1.00
C434   C     0.28591   0.20112   0.09565   0.00000  Uiso   1.00
C435   C     0.23183   0.31051   0.18337   0.00000  Uiso   1.00
C436   C     0.13368   0.24447   0.20085   0.00000  Uiso   1.00
C437   C     0.06525   0.29808   0.20826   0.00000  Uiso   1.00
H438   H     0.39409   0.57178   0.14715   0.00000  Uiso   1.00
H439   H     0.60966   0.67596   0.16906   0.00000  Uiso   1.00
H440   H     0.36600   0.50256   0.09620   0.00000  Uiso   1.00
H441   H     0.21463   0.56909   0.17346   0.00000  Uiso   1.00
H442   H     0.83598   0.74052   0.19762   0.00000  Uiso   1.00
H443   H     0.32216   0.37489   0.04401   0.00000  Uiso   1.00
H444   H     0.00297   0.51518   0.20693   0.00000  Uiso   1.00
H445   H     0.29625   0.17933   0.18026   0.00000  Uiso   1.00
H446   H     0.50646   0.26197   0.20398   0.00000  Uiso   1.00
H447   H     0.26279   0.08858   0.13113   0.00000  Uiso   1.00
H448   H     0.11143   0.15511   0.20839   0.00000  Uiso   1.00
H449   H     0.75222   0.40452   0.22597   0.00000  Uiso   1.00
H450   H     0.23839   0.03888   0.07236   0.00000  Uiso   1.00
H451   H     0.91921   0.17918   0.23528   0.00000  Uiso   1.00
O452   O     0.93416   0.63396   0.22680   0.00000  Uiso   1.00
O453   O     0.26003   0.15426   0.02526   0.00000  Uiso   1.00
O454   O     0.84127   0.33832   0.23901   0.00000  Uiso   1.00
N455   N     0.78741   0.65010   0.20105   0.00000  Uiso   1.00
N456   N     0.30704   0.30827   0.05743   0.00000  Uiso   1.00
N457   N     0.00861   0.43941   0.20973   0.00000  Uiso   1.00
N458   N     0.74234   0.46930   0.21630   0.00000  Uiso   1.00
N459   N     0.26197   0.12747   0.07268   0.00000  Uiso   1.00
N460   N     0.96353   0.25861   0.22499   0.00000  Uiso   1.00
C461   C     0.11019   0.62832   0.48807   0.00000  Uiso   1.00
C462   C     0.00882   0.52477   0.50457   0.00000  Uiso   1.00
C463   C     0.99919   0.41259   0.50993   0.00000  Uiso   1.00
C464   C     0.89966   0.33011   0.52541   0.00000  Uiso   1.00
C465   C     0.75542   0.16492   0.54952   0.00000  Uiso   1.00
C466   C     0.04699   0.65714   0.46498   0.00000  Uiso   1.00
C467   C     0.06946   0.65628   0.43707   0.00000  Uiso   1.00
C468   C     0.00207   0.68525   0.41922   0.00000  Uiso   1.00
C469   C     0.91714   0.72566   0.38188   0.00000  Uiso   1.00
C470   C     0.16537   0.73937   0.50696   0.00000  Uiso   1.00
C471   C     0.28739   0.80768   0.51434   0.00000  Uiso   1.00
C472   C     0.31968   0.90590   0.53183   0.00000  Uiso   1.00
C473   C     0.41857   0.07398   0.55967   0.00000  Uiso   1.00
C474   C     0.95058   0.68133   0.50601   0.00000  Uiso   1.00
C475   C     0.92213   0.55357   0.51431   0.00000  Uiso   1.00
C476   C     0.82259   0.47124   0.52978   0.00000  Uiso   1.00
C477   C     0.81281   0.35895   0.53517   0.00000  Uiso   1.00
C478   C     0.96029   0.68594   0.47472   0.00000  Uiso   1.00
C479   C     0.89286   0.71492   0.45691   0.00000  Uiso   1.00
C480   C     0.91521   0.71409   0.42898   0.00000  Uiso   1.00
C481   C     0.07868   0.76817   0.51671   0.00000  Uiso   1.00
C482   C     0.11079   0.86632   0.53419   0.00000  Uiso   1.00
C483   C     0.23283   0.93475   0.54159   0.00000  Uiso   1.00
H484   H     0.17768   0.60591   0.48049   0.00000  Uiso   1.00
H485   H     0.06629   0.39034   0.50239   0.00000  Uiso   1.00
H486   H     0.13656   0.63400   0.42954   0.00000  Uiso   1.00
H487   H     0.35445   0.78537   0.50680   0.00000  Uiso   1.00
H488   H     0.90454   0.16402   0.53096   0.00000  Uiso   1.00
H489   H     0.05273   0.67784   0.37735   0.00000  Uiso   1.00
H490   H     0.51221   0.99703   0.54026   0.00000  Uiso   1.00
H491   H     0.88308   0.70375   0.51360   0.00000  Uiso   1.00
H492   H     0.75552   0.49354   0.53732   0.00000  Uiso   1.00
H493   H     0.82578   0.73721   0.46446   0.00000  Uiso   1.00
H494   H     0.04368   0.88857   0.54172   0.00000  Uiso   1.00
H495   H     0.65230   0.24778   0.55930   0.00000  Uiso   1.00
H496   H     0.80049   0.76161   0.40569   0.00000  Uiso   1.00
H497   H     0.25997   0.08079   0.56861   0.00000  Uiso   1.00
O498   O     0.69980   0.06584   0.56013   0.00000  Uiso   1.00
O499   O     0.89424   0.73997   0.35860   0.00000  Uiso   1.00
O500   O     0.49706   0.15873   0.57234   0.00000  Uiso   1.00
N501   N     0.86269   0.21259   0.53438   0.00000  Uiso   1.00
N502   N     0.00123   0.69296   0.39076   0.00000  Uiso   1.00
N503   N     0.43081   0.99139   0.54307   0.00000  Uiso   1.00
N504   N     0.72697   0.25766   0.54963   0.00000  Uiso   1.00
N505   N     0.86550   0.73803   0.40601   0.00000  Uiso   1.00
N506   N     0.29508   0.03647   0.55832   0.00000  Uiso   1.00
C507   C     0.51813   0.88981   0.82141   0.00000  Uiso   1.00
C508   C     0.51595   0.99118   0.83790   0.00000  Uiso   1.00
C509   C     0.41340   0.00081   0.84327   0.00000  Uiso   1.00
C510   C     0.43045   0.10034   0.85874   0.00000  Uiso   1.00
C511   C     0.40950   0.24458   0.88286   0.00000  Uiso   1.00
C512   C     0.61016   0.95301   0.79832   0.00000  Uiso   1.00
C513   C     0.58682   0.93054   0.77040   0.00000  Uiso   1.00
C514   C     0.68318   0.99793   0.75256   0.00000  Uiso   1.00
C515   C     0.80852   0.08286   0.71522   0.00000  Uiso   1.00
C516   C     0.57400   0.83463   0.84030   0.00000  Uiso   1.00
C517   C     0.52028   0.71261   0.84767   0.00000  Uiso   1.00
C518   C     0.58622   0.68032   0.86516   0.00000  Uiso   1.00
C519   C     0.65542   0.58143   0.89300   0.00000  Uiso   1.00
C520   C     0.73076   0.04942   0.83934   0.00000  Uiso   1.00
C521   C     0.63144   0.07787   0.84764   0.00000  Uiso   1.00
C522   C     0.64864   0.17741   0.86311   0.00000  Uiso   1.00
C523   C     0.54614   0.18719   0.86850   0.00000  Uiso   1.00
C524   C     0.72564   0.03971   0.80806   0.00000  Uiso   1.00
C525   C     0.82206   0.10714   0.79025   0.00000  Uiso   1.00
C526   C     0.79888   0.08479   0.76232   0.00000  Uiso   1.00
C527   C     0.68949   0.92132   0.85004   0.00000  Uiso   1.00
C528   C     0.75553   0.88921   0.86752   0.00000  Uiso   1.00
C529   C     0.70192   0.76717   0.87492   0.00000  Uiso   1.00
H530   H     0.42822   0.82232   0.81382   0.00000  Uiso   1.00
H531   H     0.32404   0.93371   0.83572   0.00000  Uiso   1.00
H532   H     0.49744   0.86344   0.76287   0.00000  Uiso   1.00
H533   H     0.43091   0.64555   0.84013   0.00000  Uiso   1.00
H534   H     0.25948   0.09546   0.86429   0.00000  Uiso   1.00
H535   H     0.62511   0.94727   0.71068   0.00000  Uiso   1.00
H536   H     0.48482   0.48779   0.87360   0.00000  Uiso   1.00
H537   H     0.82067   0.11692   0.84693   0.00000  Uiso   1.00
H538   H     0.73803   0.24448   0.87065   0.00000  Uiso   1.00
H539   H     0.91142   0.17422   0.79779   0.00000  Uiso   1.00
H540   H     0.84489   0.95632   0.87505   0.00000  Uiso   1.00
H541   H     0.59548   0.34770   0.89264   0.00000  Uiso   1.00
H542   H     0.96112   0.19951   0.73902   0.00000  Uiso   1.00
H543   H     0.82082   0.74003   0.90194   0.00000  Uiso   1.00
O544   O     0.36604   0.30020   0.89346   0.00000  Uiso   1.00
O545   O     0.84574   0.10576   0.69193   0.00000  Uiso   1.00
O546   O     0.66168   0.50294   0.90567   0.00000  Uiso   1.00
N547   N     0.34990   0.13731   0.86771   0.00000  Uiso   1.00
N548   N     0.69173   0.99877   0.72409   0.00000  Uiso   1.00
N549   N     0.56059   0.56919   0.87640   0.00000  Uiso   1.00
N550   N     0.53070   0.27303   0.88297   0.00000  Uiso   1.00
N551   N     0.87253   0.13450   0.73935   0.00000  Uiso   1.00
N552   N     0.74139   0.70492   0.89165   0.00000  Uiso   1.00
