data_job_05611
_audit_creation_date              2018-12-19
_audit_creation_method            'Materials Studio'
_symmetry_space_group_name_H-M    'P1'
_symmetry_Int_Tables_number       1
_symmetry_cell_setting            triclinic
loop_
_symmetry_equiv_pos_as_xyz
  x,y,z
_cell_length_a                    22.1076
_cell_length_b                    11.1146
_cell_length_c                    9.3663
_cell_angle_alpha                 90.0000
_cell_angle_beta                  90.0000
_cell_angle_gamma                 90.0000
loop_
_atom_site_label
_atom_site_type_symbol
_atom_site_fract_x
_atom_site_fract_y
_atom_site_fract_z
_atom_site_U_iso_or_equiv
_atom_site_adp_type
_atom_site_occupancy
C1     C     0.96902   0.42607   0.85156   0.00000  Uiso   1.00
C2     C     0.00573   0.34066   0.75814   0.00000  Uiso   1.00
C3     C     0.06804   0.34327   0.74038   0.00000  Uiso   1.00
C4     C     0.09305   0.25743   0.65031   0.00000  Uiso   1.00
C5     C     0.15553   0.13784   0.51580   0.00000  Uiso   1.00
C6     C     0.92205   0.48324   0.75351   0.00000  Uiso   1.00
C7     C     0.91400   0.60573   0.73188   0.00000  Uiso   1.00
C8     C     0.86856   0.63991   0.63792   0.00000  Uiso   1.00
C9     C     0.80111   0.74168   0.49631   0.00000  Uiso   1.00
C10    C     0.93379   0.34666   0.95505   0.00000  Uiso   1.00
C11    C     0.93559   0.35433   0.10288   0.00000  Uiso   1.00
C12    C     0.90002   0.27353   0.17862   0.00000  Uiso   1.00
C13    C     0.85078   0.16323   0.34992   0.00000  Uiso   1.00
C14    C     0.90264   0.26898   0.72318   0.00000  Uiso   1.00
C15    C     0.96967   0.25534   0.68840   0.00000  Uiso   1.00
C16    C     0.99460   0.16947   0.59834   0.00000  Uiso   1.00
C17    C     0.05693   0.17195   0.58046   0.00000  Uiso   1.00
C18    C     0.88600   0.39792   0.68378   0.00000  Uiso   1.00
C19    C     0.84056   0.43193   0.58984   0.00000  Uiso   1.00
C20    C     0.83244   0.55444   0.56807   0.00000  Uiso   1.00
C21    C     0.89773   0.26133   0.88532   0.00000  Uiso   1.00
C22    C     0.86215   0.18052   0.96084   0.00000  Uiso   1.00
C23    C     0.86389   0.18806   0.10876   0.00000  Uiso   1.00
H24    H     0.99709   0.49250   0.90585   0.00000  Uiso   1.00
H25    H     0.09592   0.40932   0.79435   0.00000  Uiso   1.00
H26    H     0.94190   0.67174   0.78587   0.00000  Uiso   1.00
H27    H     0.96349   0.42036   0.15681   0.00000  Uiso   1.00
H28    H     0.18960   0.27951   0.63995   0.00000  Uiso   1.00
H29    H     0.86483   0.83282   0.62209   0.00000  Uiso   1.00
H30    H     0.91035   0.30276   0.40430   0.00000  Uiso   1.00
H31    H     0.87457   0.20255   0.66889   0.00000  Uiso   1.00
H32    H     0.96668   0.10346   0.54439   0.00000  Uiso   1.00
H33    H     0.81267   0.36588   0.53590   0.00000  Uiso   1.00
H34    H     0.83425   0.11451   0.90684   0.00000  Uiso   1.00
H35    H     0.08471   0.03126   0.43707   0.00000  Uiso   1.00
H36    H     0.75993   0.58458   0.41921   0.00000  Uiso   1.00
H37    H     0.80545   0.05451   0.20141   0.00000  Uiso   1.00
O38    O     0.19996   0.09545   0.46085   0.00000  Uiso   1.00
O39    O     0.77386   0.82138   0.43744   0.00000  Uiso   1.00
O40    O     0.83358   0.12595   0.46367   0.00000  Uiso   1.00
N41    N     0.15227   0.23466   0.60931   0.00000  Uiso   1.00
N42    N     0.84864   0.75198   0.59259   0.00000  Uiso   1.00
N43    N     0.89118   0.25644   0.32389   0.00000  Uiso   1.00
N44    N     0.09583   0.10109   0.50014   0.00000  Uiso   1.00
N45    N     0.79219   0.61840   0.48343   0.00000  Uiso   1.00
N46    N     0.83474   0.12286   0.21472   0.00000  Uiso   1.00
C47    C     0.03098   0.57393   0.35156   0.00000  Uiso   1.00
C48    C     0.99427   0.65934   0.25814   0.00000  Uiso   1.00
C49    C     0.93196   0.65673   0.24038   0.00000  Uiso   1.00
C50    C     0.90695   0.74257   0.15031   0.00000  Uiso   1.00
C51    C     0.84447   0.86216   0.01580   0.00000  Uiso   1.00
C52    C     0.07795   0.51676   0.25351   0.00000  Uiso   1.00
C53    C     0.08600   0.39427   0.23188   0.00000  Uiso   1.00
C54    C     0.13144   0.36009   0.13792   0.00000  Uiso   1.00
C55    C     0.19889   0.25832   0.99631   0.00000  Uiso   1.00
C56    C     0.06621   0.65334   0.45505   0.00000  Uiso   1.00
C57    C     0.06441   0.64567   0.60288   0.00000  Uiso   1.00
C58    C     0.09998   0.72647   0.67862   0.00000  Uiso   1.00
C59    C     0.14922   0.83677   0.84992   0.00000  Uiso   1.00
C60    C     0.09736   0.73102   0.22318   0.00000  Uiso   1.00
C61    C     0.03033   0.74466   0.18840   0.00000  Uiso   1.00
C62    C     0.00540   0.83053   0.09834   0.00000  Uiso   1.00
C63    C     0.94307   0.82805   0.08046   0.00000  Uiso   1.00
C64    C     0.11400   0.60208   0.18378   0.00000  Uiso   1.00
C65    C     0.15944   0.56807   0.08984   0.00000  Uiso   1.00
C66    C     0.16756   0.44556   0.06807   0.00000  Uiso   1.00
C67    C     0.10227   0.73867   0.38532   0.00000  Uiso   1.00
C68    C     0.13785   0.81948   0.46084   0.00000  Uiso   1.00
C69    C     0.13611   0.81194   0.60876   0.00000  Uiso   1.00
H70    H     0.00291   0.50750   0.40585   0.00000  Uiso   1.00
H71    H     0.90408   0.59068   0.29435   0.00000  Uiso   1.00
H72    H     0.05810   0.32826   0.28587   0.00000  Uiso   1.00
H73    H     0.03651   0.57964   0.65681   0.00000  Uiso   1.00
H74    H     0.81040   0.72049   0.13995   0.00000  Uiso   1.00
H75    H     0.13517   0.16718   0.12209   0.00000  Uiso   1.00
H76    H     0.08965   0.69724   0.90430   0.00000  Uiso   1.00
H77    H     0.12543   0.79745   0.16889   0.00000  Uiso   1.00
H78    H     0.03332   0.89654   0.04439   0.00000  Uiso   1.00
H79    H     0.18733   0.63412   0.03590   0.00000  Uiso   1.00
H80    H     0.16575   0.88549   0.40684   0.00000  Uiso   1.00
H81    H     0.91529   0.96874   0.93707   0.00000  Uiso   1.00
H82    H     0.24007   0.41542   0.91921   0.00000  Uiso   1.00
H83    H     0.19455   0.94549   0.70141   0.00000  Uiso   1.00
O84    O     0.80004   0.90455   0.96085   0.00000  Uiso   1.00
O85    O     0.22614   0.17862   0.93744   0.00000  Uiso   1.00
O86    O     0.16642   0.87405   0.96367   0.00000  Uiso   1.00
N87    N     0.84773   0.76534   0.10931   0.00000  Uiso   1.00
N88    N     0.15136   0.24802   0.09259   0.00000  Uiso   1.00
N89    N     0.10882   0.74356   0.82389   0.00000  Uiso   1.00
N90    N     0.90417   0.89891   0.00014   0.00000  Uiso   1.00
N91    N     0.20781   0.38160   0.98343   0.00000  Uiso   1.00
N92    N     0.16526   0.87714   0.71472   0.00000  Uiso   1.00
C93    C     0.46902   0.07393   0.85156   0.00000  Uiso   1.00
C94    C     0.50573   0.15934   0.75814   0.00000  Uiso   1.00
C95    C     0.56804   0.15673   0.74038   0.00000  Uiso   1.00
C96    C     0.59305   0.24257   0.65031   0.00000  Uiso   1.00
C97    C     0.65553   0.36216   0.51580   0.00000  Uiso   1.00
C98    C     0.42205   0.01676   0.75351   0.00000  Uiso   1.00
C99    C     0.41400   0.89427   0.73188   0.00000  Uiso   1.00
C100   C     0.36856   0.86009   0.63792   0.00000  Uiso   1.00
C101   C     0.30111   0.75832   0.49631   0.00000  Uiso   1.00
C102   C     0.43379   0.15334   0.95505   0.00000  Uiso   1.00
C103   C     0.43559   0.14567   0.10288   0.00000  Uiso   1.00
C104   C     0.40002   0.22647   0.17862   0.00000  Uiso   1.00
C105   C     0.35078   0.33677   0.34992   0.00000  Uiso   1.00
C106   C     0.40264   0.23102   0.72318   0.00000  Uiso   1.00
C107   C     0.46967   0.24466   0.68840   0.00000  Uiso   1.00
C108   C     0.49460   0.33053   0.59834   0.00000  Uiso   1.00
C109   C     0.55693   0.32805   0.58046   0.00000  Uiso   1.00
C110   C     0.38600   0.10208   0.68378   0.00000  Uiso   1.00
C111   C     0.34056   0.06807   0.58984   0.00000  Uiso   1.00
C112   C     0.33244   0.94556   0.56807   0.00000  Uiso   1.00
C113   C     0.39773   0.23867   0.88532   0.00000  Uiso   1.00
C114   C     0.36215   0.31948   0.96084   0.00000  Uiso   1.00
C115   C     0.36389   0.31194   0.10876   0.00000  Uiso   1.00
H116   H     0.49709   0.00750   0.90585   0.00000  Uiso   1.00
H117   H     0.59592   0.09068   0.79435   0.00000  Uiso   1.00
H118   H     0.44190   0.82826   0.78587   0.00000  Uiso   1.00
H119   H     0.46349   0.07964   0.15681   0.00000  Uiso   1.00
H120   H     0.68960   0.22049   0.63995   0.00000  Uiso   1.00
H121   H     0.36483   0.66718   0.62209   0.00000  Uiso   1.00
H122   H     0.41035   0.19724   0.40430   0.00000  Uiso   1.00
H123   H     0.37457   0.29745   0.66889   0.00000  Uiso   1.00
H124   H     0.46668   0.39654   0.54439   0.00000  Uiso   1.00
H125   H     0.31267   0.13412   0.53590   0.00000  Uiso   1.00
H126   H     0.33425   0.38549   0.90684   0.00000  Uiso   1.00
H127   H     0.58471   0.46874   0.43707   0.00000  Uiso   1.00
H128   H     0.25993   0.91542   0.41921   0.00000  Uiso   1.00
H129   H     0.30545   0.44549   0.20141   0.00000  Uiso   1.00
O130   O     0.69996   0.40455   0.46085   0.00000  Uiso   1.00
O131   O     0.27386   0.67862   0.43744   0.00000  Uiso   1.00
O132   O     0.33358   0.37405   0.46367   0.00000  Uiso   1.00
N133   N     0.65227   0.26534   0.60931   0.00000  Uiso   1.00
N134   N     0.34864   0.74802   0.59259   0.00000  Uiso   1.00
N135   N     0.39118   0.24356   0.32389   0.00000  Uiso   1.00
N136   N     0.59583   0.39891   0.50014   0.00000  Uiso   1.00
N137   N     0.29219   0.88160   0.48343   0.00000  Uiso   1.00
N138   N     0.33474   0.37714   0.21472   0.00000  Uiso   1.00
C139   C     0.53098   0.92607   0.35156   0.00000  Uiso   1.00
C140   C     0.49427   0.84066   0.25814   0.00000  Uiso   1.00
C141   C     0.43196   0.84327   0.24038   0.00000  Uiso   1.00
C142   C     0.40695   0.75743   0.15031   0.00000  Uiso   1.00
C143   C     0.34447   0.63784   0.01580   0.00000  Uiso   1.00
C144   C     0.57795   0.98324   0.25351   0.00000  Uiso   1.00
C145   C     0.58600   0.10573   0.23188   0.00000  Uiso   1.00
C146   C     0.63144   0.13991   0.13792   0.00000  Uiso   1.00
C147   C     0.69889   0.24168   0.99631   0.00000  Uiso   1.00
C148   C     0.56621   0.84666   0.45505   0.00000  Uiso   1.00
C149   C     0.56441   0.85433   0.60288   0.00000  Uiso   1.00
C150   C     0.59998   0.77353   0.67862   0.00000  Uiso   1.00
C151   C     0.64922   0.66323   0.84992   0.00000  Uiso   1.00
C152   C     0.59736   0.76898   0.22318   0.00000  Uiso   1.00
C153   C     0.53033   0.75534   0.18840   0.00000  Uiso   1.00
C154   C     0.50540   0.66947   0.09834   0.00000  Uiso   1.00
C155   C     0.44307   0.67195   0.08046   0.00000  Uiso   1.00
C156   C     0.61400   0.89792   0.18378   0.00000  Uiso   1.00
C157   C     0.65944   0.93193   0.08984   0.00000  Uiso   1.00
C158   C     0.66756   0.05444   0.06807   0.00000  Uiso   1.00
C159   C     0.60227   0.76133   0.38532   0.00000  Uiso   1.00
C160   C     0.63785   0.68052   0.46084   0.00000  Uiso   1.00
C161   C     0.63611   0.68806   0.60876   0.00000  Uiso   1.00
H162   H     0.50291   0.99250   0.40585   0.00000  Uiso   1.00
H163   H     0.40408   0.90932   0.29435   0.00000  Uiso   1.00
H164   H     0.55810   0.17174   0.28587   0.00000  Uiso   1.00
H165   H     0.53651   0.92036   0.65681   0.00000  Uiso   1.00
H166   H     0.31040   0.77951   0.13995   0.00000  Uiso   1.00
H167   H     0.63517   0.33282   0.12209   0.00000  Uiso   1.00
H168   H     0.58965   0.80276   0.90430   0.00000  Uiso   1.00
H169   H     0.62543   0.70255   0.16889   0.00000  Uiso   1.00
H170   H     0.53332   0.60346   0.04439   0.00000  Uiso   1.00
H171   H     0.68733   0.86588   0.03590   0.00000  Uiso   1.00
H172   H     0.66575   0.61451   0.40684   0.00000  Uiso   1.00
H173   H     0.41529   0.53126   0.93707   0.00000  Uiso   1.00
H174   H     0.74007   0.08458   0.91921   0.00000  Uiso   1.00
H175   H     0.69455   0.55451   0.70141   0.00000  Uiso   1.00
O176   O     0.30004   0.59545   0.96085   0.00000  Uiso   1.00
O177   O     0.72614   0.32138   0.93744   0.00000  Uiso   1.00
O178   O     0.66642   0.62595   0.96367   0.00000  Uiso   1.00
N179   N     0.34773   0.73466   0.10931   0.00000  Uiso   1.00
N180   N     0.65136   0.25198   0.09259   0.00000  Uiso   1.00
N181   N     0.60882   0.75644   0.82389   0.00000  Uiso   1.00
N182   N     0.40417   0.60109   0.00014   0.00000  Uiso   1.00
N183   N     0.70781   0.11840   0.98343   0.00000  Uiso   1.00
N184   N     0.66526   0.62286   0.71472   0.00000  Uiso   1.00
