data_job_01160
_audit_creation_date              2018-12-19
_audit_creation_method            'Materials Studio'
_symmetry_space_group_name_H-M    'P1'
_symmetry_Int_Tables_number       1
_symmetry_cell_setting            triclinic
loop_
_symmetry_equiv_pos_as_xyz
  x,y,z
_cell_length_a                    9.8856
_cell_length_b                    10.6880
_cell_length_c                    15.3393
_cell_angle_alpha                 81.2189
_cell_angle_beta                  83.2280
_cell_angle_gamma                 71.5285
loop_
_atom_site_label
_atom_site_type_symbol
_atom_site_fract_x
_atom_site_fract_y
_atom_site_fract_z
_atom_site_U_iso_or_equiv
_atom_site_adp_type
_atom_site_occupancy
C1     C     0.79887   0.53704   0.80577   0.00000  Uiso   1.00
C2     C     0.69583   0.62076   0.73741   0.00000  Uiso   1.00
C3     C     0.62788   0.75652   0.73354   0.00000  Uiso   1.00
C4     C     0.53761   0.81474   0.66596   0.00000  Uiso   1.00
C5     C     0.38082   0.95612   0.56919   0.00000  Uiso   1.00
C6     C     0.73688   0.42681   0.84892   0.00000  Uiso   1.00
C7     C     0.70347   0.39950   0.93881   0.00000  Uiso   1.00
C8     C     0.64777   0.29443   0.96509   0.00000  Uiso   1.00
C9     C     0.55482   0.13464   0.04145   0.00000  Uiso   1.00
C10    C     0.93683   0.46896   0.75344   0.00000  Uiso   1.00
C11    C     0.07155   0.47706   0.76306   0.00000  Uiso   1.00
C12    C     0.18421   0.40746   0.70897   0.00000  Uiso   1.00
C13    C     0.40171   0.31312   0.63708   0.00000  Uiso   1.00
C14    C     0.75941   0.39900   0.69262   0.00000  Uiso   1.00
C15    C     0.67440   0.54577   0.67596   0.00000  Uiso   1.00
C16    C     0.58422   0.60380   0.60836   0.00000  Uiso   1.00
C17    C     0.51614   0.73963   0.60439   0.00000  Uiso   1.00
C18    C     0.71545   0.35183   0.78747   0.00000  Uiso   1.00
C19    C     0.65980   0.24677   0.81362   0.00000  Uiso   1.00
C20    C     0.62630   0.21932   0.90352   0.00000  Uiso   1.00
C21    C     0.91540   0.39398   0.69198   0.00000  Uiso   1.00
C22    C     0.02788   0.32434   0.63787   0.00000  Uiso   1.00
C23    C     0.16274   0.33234   0.64740   0.00000  Uiso   1.00
H24    H     0.81555   0.59541   0.85362   0.00000  Uiso   1.00
H25    H     0.64448   0.81451   0.78112   0.00000  Uiso   1.00
H26    H     0.72008   0.45753   0.98635   0.00000  Uiso   1.00
H27    H     0.08809   0.53509   0.81063   0.00000  Uiso   1.00
H28    H     0.44532   0.02436   0.67366   0.00000  Uiso   1.00
H29    H     0.60476   0.27161   0.10640   0.00000  Uiso   1.00
H30    H     0.38081   0.43516   0.73586   0.00000  Uiso   1.00
H31    H     0.74272   0.34062   0.64477   0.00000  Uiso   1.00
H32    H     0.56765   0.54575   0.56081   0.00000  Uiso   1.00
H33    H     0.64324   0.18877   0.76604   0.00000  Uiso   1.00
H34    H     0.01125   0.26633   0.59032   0.00000  Uiso   1.00
H35    H     0.38296   0.80622   0.49485   0.00000  Uiso   1.00
H36    H     0.54240   0.05347   0.92759   0.00000  Uiso   1.00
H37    H     0.31844   0.21702   0.55704   0.00000  Uiso   1.00
O38    O     0.30025   0.05482   0.53280   0.00000  Uiso   1.00
O39    O     0.50946   0.06723   0.10055   0.00000  Uiso   1.00
O40    O     0.52760   0.28181   0.61440   0.00000  Uiso   1.00
N41    N     0.45469   0.94487   0.64309   0.00000  Uiso   1.00
N42    N     0.60374   0.24111   0.04767   0.00000  Uiso   1.00
N43    N     0.32928   0.39399   0.70126   0.00000  Uiso   1.00
N44    N     0.42114   0.82749   0.54687   0.00000  Uiso   1.00
N45    N     0.57018   0.12374   0.95146   0.00000  Uiso   1.00
N46    N     0.29572   0.27661   0.60505   0.00000  Uiso   1.00
C47    C     0.20113   0.46296   0.19423   0.00000  Uiso   1.00
C48    C     0.30417   0.37924   0.26259   0.00000  Uiso   1.00
C49    C     0.37212   0.24348   0.26646   0.00000  Uiso   1.00
C50    C     0.46239   0.18526   0.33404   0.00000  Uiso   1.00
C51    C     0.61918   0.04388   0.43081   0.00000  Uiso   1.00
C52    C     0.26312   0.57319   0.15108   0.00000  Uiso   1.00
C53    C     0.29653   0.60050   0.06119   0.00000  Uiso   1.00
C54    C     0.35223   0.70557   0.03491   0.00000  Uiso   1.00
C55    C     0.44518   0.86536   0.95855   0.00000  Uiso   1.00
C56    C     0.06317   0.53104   0.24656   0.00000  Uiso   1.00
C57    C     0.92845   0.52294   0.23694   0.00000  Uiso   1.00
C58    C     0.81579   0.59254   0.29103   0.00000  Uiso   1.00
C59    C     0.59829   0.68688   0.36292   0.00000  Uiso   1.00
C60    C     0.24059   0.60100   0.30738   0.00000  Uiso   1.00
C61    C     0.32560   0.45423   0.32404   0.00000  Uiso   1.00
C62    C     0.41578   0.39620   0.39164   0.00000  Uiso   1.00
C63    C     0.48386   0.26037   0.39561   0.00000  Uiso   1.00
C64    C     0.28455   0.64817   0.21253   0.00000  Uiso   1.00
C65    C     0.34020   0.75323   0.18638   0.00000  Uiso   1.00
C66    C     0.37370   0.78068   0.09648   0.00000  Uiso   1.00
C67    C     0.08460   0.60602   0.30802   0.00000  Uiso   1.00
C68    C     0.97212   0.67566   0.36213   0.00000  Uiso   1.00
C69    C     0.83726   0.66766   0.35260   0.00000  Uiso   1.00
H70    H     0.18445   0.40459   0.14638   0.00000  Uiso   1.00
H71    H     0.35552   0.18549   0.21888   0.00000  Uiso   1.00
H72    H     0.27992   0.54247   0.01365   0.00000  Uiso   1.00
H73    H     0.91191   0.46491   0.18937   0.00000  Uiso   1.00
H74    H     0.55468   0.97564   0.32634   0.00000  Uiso   1.00
H75    H     0.39524   0.72839   0.89360   0.00000  Uiso   1.00
H76    H     0.61919   0.56484   0.26414   0.00000  Uiso   1.00
H77    H     0.25728   0.65938   0.35523   0.00000  Uiso   1.00
H78    H     0.43235   0.45425   0.43919   0.00000  Uiso   1.00
H79    H     0.35676   0.81123   0.23396   0.00000  Uiso   1.00
H80    H     0.98875   0.73367   0.40968   0.00000  Uiso   1.00
H81    H     0.61704   0.19378   0.50515   0.00000  Uiso   1.00
H82    H     0.45760   0.94653   0.07241   0.00000  Uiso   1.00
H83    H     0.68156   0.78298   0.44296   0.00000  Uiso   1.00
O84    O     0.69975   0.94518   0.46720   0.00000  Uiso   1.00
O85    O     0.49054   0.93277   0.89945   0.00000  Uiso   1.00
O86    O     0.47240   0.71819   0.38560   0.00000  Uiso   1.00
N87    N     0.54531   0.05513   0.35691   0.00000  Uiso   1.00
N88    N     0.39626   0.75889   0.95233   0.00000  Uiso   1.00
N89    N     0.67072   0.60601   0.29874   0.00000  Uiso   1.00
N90    N     0.57886   0.17251   0.45313   0.00000  Uiso   1.00
N91    N     0.42982   0.87626   0.04854   0.00000  Uiso   1.00
N92    N     0.70428   0.72339   0.39495   0.00000  Uiso   1.00
