data_job_06867
_audit_creation_date              2018-12-19
_audit_creation_method            'Materials Studio'
_symmetry_space_group_name_H-M    'P1'
_symmetry_Int_Tables_number       1
_symmetry_cell_setting            triclinic
loop_
_symmetry_equiv_pos_as_xyz
  x,y,z
_cell_length_a                    22.1120
_cell_length_b                    20.0351
_cell_length_c                    22.3242
_cell_angle_alpha                 75.1455
_cell_angle_beta                  75.7861
_cell_angle_gamma                 73.0515
loop_
_atom_site_label
_atom_site_type_symbol
_atom_site_fract_x
_atom_site_fract_y
_atom_site_fract_z
_atom_site_U_iso_or_equiv
_atom_site_adp_type
_atom_site_occupancy
C1     C     0.82902   0.20312   0.29500   0.00000  Uiso   1.00
C2     C     0.83064   0.28109   0.28276   0.00000  Uiso   1.00
C3     C     0.77797   0.33744   0.29375   0.00000  Uiso   1.00
C4     C     0.78946   0.40481   0.27945   0.00000  Uiso   1.00
C5     C     0.78254   0.52429   0.26414   0.00000  Uiso   1.00
C6     C     0.85819   0.17902   0.23237   0.00000  Uiso   1.00
C7     C     0.82870   0.14954   0.20099   0.00000  Uiso   1.00
C8     C     0.86338   0.13099   0.14427   0.00000  Uiso   1.00
C9     C     0.89926   0.09195   0.05074   0.00000  Uiso   1.00
C10    C     0.87639   0.16257   0.33907   0.00000  Uiso   1.00
C11    C     0.86220   0.11924   0.39739   0.00000  Uiso   1.00
C12    C     0.91221   0.08681   0.43051   0.00000  Uiso   1.00
C13    C     0.97635   0.02222   0.50265   0.00000  Uiso   1.00
C14    C     0.94307   0.22257   0.25008   0.00000  Uiso   1.00
C15    C     0.89258   0.29165   0.25837   0.00000  Uiso   1.00
C16    C     0.90415   0.35896   0.24405   0.00000  Uiso   1.00
C17    C     0.85152   0.41540   0.25501   0.00000  Uiso   1.00
C18    C     0.92013   0.18959   0.20797   0.00000  Uiso   1.00
C19    C     0.95488   0.17106   0.15129   0.00000  Uiso   1.00
C20    C     0.92544   0.14157   0.11983   0.00000  Uiso   1.00
C21    C     0.93833   0.17313   0.31467   0.00000  Uiso   1.00
C22    C     0.98838   0.14076   0.34770   0.00000  Uiso   1.00
C23    C     0.97427   0.09739   0.40607   0.00000  Uiso   1.00
H24    H     0.78079   0.19489   0.31398   0.00000  Uiso   1.00
H25    H     0.73004   0.32924   0.31262   0.00000  Uiso   1.00
H26    H     0.78076   0.14137   0.21988   0.00000  Uiso   1.00
H27    H     0.81426   0.11107   0.41626   0.00000  Uiso   1.00
H28    H     0.70108   0.48286   0.30033   0.00000  Uiso   1.00
H29    H     0.80804   0.08670   0.10479   0.00000  Uiso   1.00
H30    H     0.87868   0.02280   0.51889   0.00000  Uiso   1.00
H31    H     0.99130   0.23079   0.23109   0.00000  Uiso   1.00
H32    H     0.95210   0.36712   0.22518   0.00000  Uiso   1.00
H33    H     0.00281   0.17924   0.13243   0.00000  Uiso   1.00
H34    H     0.03631   0.14895   0.32881   0.00000  Uiso   1.00
H35    H     0.88131   0.51360   0.22935   0.00000  Uiso   1.00
H36    H     0.98827   0.11743   0.03381   0.00000  Uiso   1.00
H37    H     0.05891   0.05355   0.44791   0.00000  Uiso   1.00
O38    O     0.76161   0.58727   0.26242   0.00000  Uiso   1.00
O39    O     0.90193   0.06750   0.00589   0.00000  Uiso   1.00
O40    O     0.99461   0.98368   0.54918   0.00000  Uiso   1.00
N41    N     0.74888   0.47139   0.28445   0.00000  Uiso   1.00
N42    N     0.84888   0.10100   0.10162   0.00000  Uiso   1.00
N43    N     0.91492   0.04126   0.48876   0.00000  Uiso   1.00
N44    N     0.84586   0.48793   0.24625   0.00000  Uiso   1.00
N45    N     0.94586   0.11755   0.06343   0.00000  Uiso   1.00
N46    N     0.01190   0.05780   0.45057   0.00000  Uiso   1.00
C47    C     0.10798   0.72976   0.38281   0.00000  Uiso   1.00
C48    C     0.10635   0.75851   0.44032   0.00000  Uiso   1.00
C49    C     0.09123   0.72516   0.50277   0.00000  Uiso   1.00
C50    C     0.09241   0.76016   0.54854   0.00000  Uiso   1.00
C51    C     0.08745   0.79479   0.64029   0.00000  Uiso   1.00
C52    C     0.06221   0.78721   0.34441   0.00000  Uiso   1.00
C53    C     0.00999   0.77797   0.32621   0.00000  Uiso   1.00
C54    C     0.97403   0.83713   0.29123   0.00000  Uiso   1.00
C55    C     0.90057   0.91630   0.23403   0.00000  Uiso   1.00
C56    C     0.17526   0.72680   0.34331   0.00000  Uiso   1.00
C57    C     0.21808   0.66677   0.32418   0.00000  Uiso   1.00
C58    C     0.27729   0.67508   0.28827   0.00000  Uiso   1.00
C59    C     0.37935   0.66045   0.22937   0.00000  Uiso   1.00
C60    C     0.13699   0.85123   0.35303   0.00000  Uiso   1.00
C61    C     0.12210   0.82450   0.42414   0.00000  Uiso   1.00
C62    C     0.12331   0.85956   0.46982   0.00000  Uiso   1.00
C63    C     0.10820   0.82626   0.53233   0.00000  Uiso   1.00
C64    C     0.07796   0.85319   0.32823   0.00000  Uiso   1.00
C65    C     0.04208   0.91237   0.29326   0.00000  Uiso   1.00
C66    C     0.98981   0.90323   0.27502   0.00000  Uiso   1.00
C67    C     0.19101   0.79278   0.32714   0.00000  Uiso   1.00
C68    C     0.25017   0.80118   0.29124   0.00000  Uiso   1.00
C69    C     0.29307   0.74118   0.27206   0.00000  Uiso   1.00
H70    H     0.09572   0.67839   0.39541   0.00000  Uiso   1.00
H71    H     0.07903   0.67410   0.51527   0.00000  Uiso   1.00
H72    H     0.99782   0.72691   0.33873   0.00000  Uiso   1.00
H73    H     0.20587   0.61572   0.33671   0.00000  Uiso   1.00
H74    H     0.06746   0.69845   0.64103   0.00000  Uiso   1.00
H75    H     0.89622   0.80979   0.26877   0.00000  Uiso   1.00
H76    H     0.33495   0.57534   0.26450   0.00000  Uiso   1.00
H77    H     0.14925   0.90261   0.34044   0.00000  Uiso   1.00
H78    H     0.13551   0.91062   0.45729   0.00000  Uiso   1.00
H79    H     0.05428   0.96342   0.28075   0.00000  Uiso   1.00
H80    H     0.26234   0.85224   0.27873   0.00000  Uiso   1.00
H81    H     0.11329   0.89042   0.59397   0.00000  Uiso   1.00
H82    H     0.94205   0.00176   0.22171   0.00000  Uiso   1.00
H83    H     0.38078   0.76731   0.21744   0.00000  Uiso   1.00
O84    O     0.08035   0.79567   0.69536   0.00000  Uiso   1.00
O85    O     0.85569   0.94174   0.20696   0.00000  Uiso   1.00
O86    O     0.43130   0.63415   0.20137   0.00000  Uiso   1.00
N87    N     0.08015   0.74253   0.61392   0.00000  Uiso   1.00
N88    N     0.92004   0.84662   0.26589   0.00000  Uiso   1.00
N89    N     0.33021   0.62744   0.26188   0.00000  Uiso   1.00
N90    N     0.10481   0.84582   0.58860   0.00000  Uiso   1.00
N91    N     0.94470   0.94992   0.24056   0.00000  Uiso   1.00
N92    N     0.35487   0.73073   0.23656   0.00000  Uiso   1.00
C93    C     0.21292   0.96927   0.03104   0.00000  Uiso   1.00
C94    C     0.26722   0.94705   0.97749   0.00000  Uiso   1.00
C95    C     0.26655   0.97197   0.91358   0.00000  Uiso   1.00
C96    C     0.32094   0.94509   0.87203   0.00000  Uiso   1.00
C97    C     0.39717   0.91817   0.78558   0.00000  Uiso   1.00
C98    C     0.19618   0.90072   0.07104   0.00000  Uiso   1.00
C99    C     0.13578   0.88670   0.08579   0.00000  Uiso   1.00
C100   C     0.13037   0.82082   0.12300   0.00000  Uiso   1.00
C101   C     0.09630   0.72200   0.18182   0.00000  Uiso   1.00
C102   C     0.24236   0.99692   0.07192   0.00000  Uiso   1.00
C103   C     0.22079   0.06379   0.08744   0.00000  Uiso   1.00
C104   C     0.25425   0.07889   0.12541   0.00000  Uiso   1.00
C105   C     0.29188   0.12944   0.18560   0.00000  Uiso   1.00
C106   C     0.31070   0.87719   0.07091   0.00000  Uiso   1.00
C107   C     0.32033   0.89704   0.99915   0.00000  Uiso   1.00
C108   C     0.37474   0.87011   0.95769   0.00000  Uiso   1.00
C109   C     0.37415   0.89499   0.89372   0.00000  Uiso   1.00
C110   C     0.24929   0.85071   0.09269   0.00000  Uiso   1.00
C111   C     0.24397   0.78484   0.12989   0.00000  Uiso   1.00
C112   C     0.18358   0.77072   0.14469   0.00000  Uiso   1.00
C113   C     0.29547   0.94692   0.09358   0.00000  Uiso   1.00
C114   C     0.32897   0.96192   0.13154   0.00000  Uiso   1.00
C115   C     0.30746   0.02879   0.14710   0.00000  Uiso   1.00
H116   H     0.17156   0.00820   0.01419   0.00000  Uiso   1.00
H117   H     0.22544   0.01067   0.89684   0.00000  Uiso   1.00
H118   H     0.09469   0.92542   0.06903   0.00000  Uiso   1.00
H119   H     0.17968   0.10247   0.07067   0.00000  Uiso   1.00
H120   H     0.30858   0.99134   0.77629   0.00000  Uiso   1.00
H121   H     0.03288   0.81158   0.13937   0.00000  Uiso   1.00
H122   H     0.21211   0.18494   0.14284   0.00000  Uiso   1.00
H123   H     0.35205   0.83826   0.08777   0.00000  Uiso   1.00
H124   H     0.41583   0.83141   0.97446   0.00000  Uiso   1.00
H125   H     0.28508   0.74615   0.14664   0.00000  Uiso   1.00
H126   H     0.37007   0.92320   0.14829   0.00000  Uiso   1.00
H127   H     0.46311   0.84584   0.83928   0.00000  Uiso   1.00
H128   H     0.18741   0.66608   0.20237   0.00000  Uiso   1.00
H129   H     0.36664   0.03944   0.20583   0.00000  Uiso   1.00
O130   O     0.42453   0.91713   0.73192   0.00000  Uiso   1.00
O131   O     0.06283   0.68131   0.20828   0.00000  Uiso   1.00
O132   O     0.29797   0.17114   0.21282   0.00000  Uiso   1.00
N133   N     0.33620   0.95805   0.80667   0.00000  Uiso   1.00
N134   N     0.07844   0.78998   0.14612   0.00000  Uiso   1.00
N135   N     0.24599   0.13903   0.14937   0.00000  Uiso   1.00
N136   N     0.41935   0.87976   0.84056   0.00000  Uiso   1.00
N137   N     0.16159   0.71169   0.18001   0.00000  Uiso   1.00
N138   N     0.32914   0.06074   0.18327   0.00000  Uiso   1.00
C139   C     0.23225   0.52208   0.98238   0.00000  Uiso   1.00
C140   C     0.22579   0.46326   0.04073   0.00000  Uiso   1.00
C141   C     0.17244   0.46321   0.08892   0.00000  Uiso   1.00
C142   C     0.17598   0.40442   0.13820   0.00000  Uiso   1.00
C143   C     0.15758   0.32170   0.22863   0.00000  Uiso   1.00
C144   C     0.24791   0.48641   0.92588   0.00000  Uiso   1.00
C145   C     0.21316   0.50583   0.87749   0.00000  Uiso   1.00
C146   C     0.23533   0.46654   0.83008   0.00000  Uiso   1.00
C147   C     0.25129   0.41979   0.74217   0.00000  Uiso   1.00
C148   C     0.29237   0.54508   0.98179   0.00000  Uiso   1.00
C149   C     0.29501   0.61383   0.98040   0.00000  Uiso   1.00
C150   C     0.35462   0.62394   0.98005   0.00000  Uiso   1.00
C151   C     0.43961   0.66828   0.97896   0.00000  Uiso   1.00
C152   C     0.33341   0.41777   0.98420   0.00000  Uiso   1.00
C153   C     0.28073   0.40661   0.04172   0.00000  Uiso   1.00
C154   C     0.28436   0.34781   0.09094   0.00000  Uiso   1.00
C155   C     0.23102   0.34767   0.13919   0.00000  Uiso   1.00
C156   C     0.30285   0.42976   0.92686   0.00000  Uiso   1.00
C157   C     0.32508   0.39043   0.87951   0.00000  Uiso   1.00
C158   C     0.29037   0.40978   0.83107   0.00000  Uiso   1.00
C159   C     0.34731   0.48843   0.98278   0.00000  Uiso   1.00
C160   C     0.40693   0.49843   0.98242   0.00000  Uiso   1.00
C161   C     0.40966   0.56719   0.98104   0.00000  Uiso   1.00
H162   H     0.18947   0.56618   0.98161   0.00000  Uiso   1.00
H163   H     0.12992   0.50706   0.08814   0.00000  Uiso   1.00
H164   H     0.17065   0.54968   0.87674   0.00000  Uiso   1.00
H165   H     0.25248   0.65766   0.97964   0.00000  Uiso   1.00
H166   H     0.08813   0.41651   0.20667   0.00000  Uiso   1.00
H167   H     0.17400   0.50639   0.76091   0.00000  Uiso   1.00
H168   H     0.34657   0.73410   0.97789   0.00000  Uiso   1.00
H169   H     0.37618   0.37367   0.98497   0.00000  Uiso   1.00
H170   H     0.32688   0.30398   0.09169   0.00000  Uiso   1.00
H171   H     0.36760   0.34660   0.88029   0.00000  Uiso   1.00
H172   H     0.44944   0.45458   0.98319   0.00000  Uiso   1.00
H173   H     0.24798   0.25168   0.20955   0.00000  Uiso   1.00
H174   H     0.33386   0.34157   0.76379   0.00000  Uiso   1.00
H175   H     0.50643   0.56927   0.98077   0.00000  Uiso   1.00
O176   O     0.13225   0.29171   0.27823   0.00000  Uiso   1.00
O177   O     0.24491   0.40965   0.69341   0.00000  Uiso   1.00
O178   O     0.47132   0.70839   0.97810   0.00000  Uiso   1.00
N179   N     0.13252   0.38729   0.19270   0.00000  Uiso   1.00
N180   N     0.21280   0.47132   0.77595   0.00000  Uiso   1.00
N181   N     0.37414   0.68421   0.97880   0.00000  Uiso   1.00
N182   N     0.21854   0.29859   0.19425   0.00000  Uiso   1.00
N183   N     0.29882   0.38262   0.77750   0.00000  Uiso   1.00
N184   N     0.46016   0.59551   0.98035   0.00000  Uiso   1.00
C185   C     0.51940   0.66282   0.59237   0.00000  Uiso   1.00
C186   C     0.52899   0.73363   0.55066   0.00000  Uiso   1.00
C187   C     0.57399   0.74190   0.49545   0.00000  Uiso   1.00
C188   C     0.57513   0.81112   0.46411   0.00000  Uiso   1.00
C189   C     0.59644   0.91212   0.39581   0.00000  Uiso   1.00
C190   C     0.44899   0.66425   0.59757   0.00000  Uiso   1.00
C191   C     0.42673   0.61418   0.58181   0.00000  Uiso   1.00
C192   C     0.36052   0.62500   0.58996   0.00000  Uiso   1.00
C193   C     0.25763   0.61826   0.59454   0.00000  Uiso   1.00
C194   C     0.52677   0.66475   0.65801   0.00000  Uiso   1.00
C195   C     0.56989   0.61510   0.69308   0.00000  Uiso   1.00
C196   C     0.56916   0.62633   0.75212   0.00000  Uiso   1.00
C197   C     0.58703   0.62037   0.85054   0.00000  Uiso   1.00
C198   C     0.44140   0.77104   0.63488   0.00000  Uiso   1.00
C199   C     0.48662   0.79241   0.57375   0.00000  Uiso   1.00
C200   C     0.48769   0.86163   0.54249   0.00000  Uiso   1.00
C201   C     0.53268   0.87001   0.48724   0.00000  Uiso   1.00
C202   C     0.40662   0.72303   0.62066   0.00000  Uiso   1.00
C203   C     0.34043   0.73392   0.62884   0.00000  Uiso   1.00
C204   C     0.31808   0.68388   0.61309   0.00000  Uiso   1.00
C205   C     0.48440   0.72354   0.68110   0.00000  Uiso   1.00
C206   C     0.48359   0.73484   0.74011   0.00000  Uiso   1.00
C207   C     0.52671   0.68521   0.77526   0.00000  Uiso   1.00
H208   H     0.55238   0.61706   0.57439   0.00000  Uiso   1.00
H209   H     0.60676   0.69640   0.47759   0.00000  Uiso   1.00
H210   H     0.45953   0.56870   0.56394   0.00000  Uiso   1.00
H211   H     0.60267   0.56962   0.67519   0.00000  Uiso   1.00
H212   H     0.64836   0.81028   0.38044   0.00000  Uiso   1.00
H213   H     0.33790   0.54101   0.56254   0.00000  Uiso   1.00
H214   H     0.63974   0.54295   0.79713   0.00000  Uiso   1.00
H215   H     0.40841   0.81681   0.65286   0.00000  Uiso   1.00
H216   H     0.45489   0.90711   0.56037   0.00000  Uiso   1.00
H217   H     0.30766   0.77941   0.64672   0.00000  Uiso   1.00
H218   H     0.45080   0.78033   0.75797   0.00000  Uiso   1.00
H219   H     0.52509   0.98130   0.44762   0.00000  Uiso   1.00
H220   H     0.21464   0.71202   0.62972   0.00000  Uiso   1.00
H221   H     0.51648   0.71397   0.86431   0.00000  Uiso   1.00
O222   O     0.61989   0.95159   0.35176   0.00000  Uiso   1.00
O223   O     0.21258   0.59830   0.59068   0.00000  Uiso   1.00
O224   O     0.60860   0.60085   0.89845   0.00000  Uiso   1.00
N225   N     0.61298   0.83814   0.40895   0.00000  Uiso   1.00
N226   N     0.32272   0.58639   0.57919   0.00000  Uiso   1.00
N227   N     0.60491   0.58819   0.79852   0.00000  Uiso   1.00
N228   N     0.54665   0.93016   0.44510   0.00000  Uiso   1.00
N229   N     0.25639   0.67841   0.61534   0.00000  Uiso   1.00
N230   N     0.53858   0.68022   0.83467   0.00000  Uiso   1.00
C231   C     0.74617   0.32012   0.81012   0.00000  Uiso   1.00
C232   C     0.81185   0.26732   0.80602   0.00000  Uiso   1.00
C233   C     0.83163   0.21030   0.85326   0.00000  Uiso   1.00
C234   C     0.89357   0.16820   0.84030   0.00000  Uiso   1.00
C235   C     0.98936   0.08398   0.84277   0.00000  Uiso   1.00
C236   C     0.71863   0.31760   0.75468   0.00000  Uiso   1.00
C237   C     0.66002   0.30287   0.75875   0.00000  Uiso   1.00
C238   C     0.64348   0.30311   0.70258   0.00000  Uiso   1.00
C239   C     0.59451   0.29701   0.62533   0.00000  Uiso   1.00
C240   C     0.75931   0.39370   0.79632   0.00000  Uiso   1.00
C241   C     0.73489   0.44297   0.83540   0.00000  Uiso   1.00
C242   C     0.75258   0.50729   0.81427   0.00000  Uiso   1.00
C243   C     0.76678   0.61935   0.80169   0.00000  Uiso   1.00
C244   C     0.82099   0.34676   0.70312   0.00000  Uiso   1.00
C245   C     0.85249   0.28179   0.74790   0.00000  Uiso   1.00
C246   C     0.91441   0.23976   0.73488   0.00000  Uiso   1.00
C247   C     0.93428   0.18269   0.78208   0.00000  Uiso   1.00
C248   C     0.75926   0.33207   0.69656   0.00000  Uiso   1.00
C249   C     0.74279   0.33233   0.64037   0.00000  Uiso   1.00
C250   C     0.68418   0.31760   0.64435   0.00000  Uiso   1.00
C251   C     0.79994   0.40817   0.73821   0.00000  Uiso   1.00
C252   C     0.81767   0.47243   0.71702   0.00000  Uiso   1.00
C253   C     0.79329   0.52178   0.75605   0.00000  Uiso   1.00
H254   H     0.71453   0.30886   0.85536   0.00000  Uiso   1.00
H255   H     0.80017   0.19911   0.89823   0.00000  Uiso   1.00
H256   H     0.62858   0.29168   0.80373   0.00000  Uiso   1.00
H257   H     0.70345   0.43175   0.88037   0.00000  Uiso   1.00
H258   H     0.91303   0.08380   0.92011   0.00000  Uiso   1.00
H259   H     0.55122   0.27900   0.72086   0.00000  Uiso   1.00
H260   H     0.70908   0.57438   0.88246   0.00000  Uiso   1.00
H261   H     0.85262   0.35802   0.65787   0.00000  Uiso   1.00
H262   H     0.94584   0.25097   0.68990   0.00000  Uiso   1.00
H263   H     0.77425   0.34354   0.59540   0.00000  Uiso   1.00
H264   H     0.84912   0.48361   0.67204   0.00000  Uiso   1.00
H265   H     0.03126   0.12589   0.75102   0.00000  Uiso   1.00
H266   H     0.66944   0.32110   0.55177   0.00000  Uiso   1.00
H267   H     0.82731   0.61647   0.71337   0.00000  Uiso   1.00
O268   O     0.03096   0.03352   0.86019   0.00000  Uiso   1.00
O269   O     0.55628   0.28964   0.59879   0.00000  Uiso   1.00
O270   O     0.76339   0.67716   0.81080   0.00000  Uiso   1.00
N271   N     0.92806   0.10841   0.87592   0.00000  Uiso   1.00
N272   N     0.58980   0.29090   0.68964   0.00000  Uiso   1.00
N273   N     0.73737   0.56706   0.84072   0.00000  Uiso   1.00
N274   N     0.99168   0.13106   0.78494   0.00000  Uiso   1.00
N275   N     0.65342   0.31355   0.59866   0.00000  Uiso   1.00
N276   N     0.80099   0.58971   0.74973   0.00000  Uiso   1.00
C277   C     0.02363   0.57137   0.98402   0.00000  Uiso   1.00
C278   C     0.02140   0.49379   0.99448   0.00000  Uiso   1.00
C279   C     0.07418   0.43566   0.99501   0.00000  Uiso   1.00
C280   C     0.06206   0.36902   0.00538   0.00000  Uiso   1.00
C281   C     0.06814   0.24980   0.02022   0.00000  Uiso   1.00
C282   C     0.98010   0.59929   0.04134   0.00000  Uiso   1.00
C283   C     0.99814   0.62987   0.08127   0.00000  Uiso   1.00
C284   C     0.95125   0.65205   0.13108   0.00000  Uiso   1.00
C285   C     0.89319   0.69666   0.21864   0.00000  Uiso   1.00
C286   C     0.99032   0.61076   0.92821   0.00000  Uiso   1.00
C287   C     0.01695   0.65100   0.87301   0.00000  Uiso   1.00
C288   C     0.97865   0.68285   0.82758   0.00000  Uiso   1.00
C289   C     0.93645   0.74527   0.73949   0.00000  Uiso   1.00
C290   C     0.90826   0.55640   0.00149   0.00000  Uiso   1.00
C291   C     0.95874   0.48566   0.00397   0.00000  Uiso   1.00
C292   C     0.94654   0.41909   0.01434   0.00000  Uiso   1.00
C293   C     0.99929   0.36087   0.01489   0.00000  Uiso   1.00
C294   C     0.91743   0.59116   0.05083   0.00000  Uiso   1.00
C295   C     0.87050   0.61331   0.10060   0.00000  Uiso   1.00
C296   C     0.88847   0.64390   0.14059   0.00000  Uiso   1.00
C297   C     0.92765   0.60263   0.93770   0.00000  Uiso   1.00
C298   C     0.88930   0.63443   0.89234   0.00000  Uiso   1.00
C299   C     0.91587   0.67471   0.83709   0.00000  Uiso   1.00
H300   H     0.07241   0.57770   0.97663   0.00000  Uiso   1.00
H301   H     0.12267   0.44197   0.98767   0.00000  Uiso   1.00
H302   H     0.04664   0.63616   0.07391   0.00000  Uiso   1.00
H303   H     0.06544   0.65728   0.86569   0.00000  Uiso   1.00
H304   H     0.15075   0.28790   0.00412   0.00000  Uiso   1.00
H305   H     0.99043   0.69738   0.18594   0.00000  Uiso   1.00
H306   H     0.03008   0.74192   0.74687   0.00000  Uiso   1.00
H307   H     0.85947   0.55007   0.00888   0.00000  Uiso   1.00
H308   H     0.89804   0.41282   0.02168   0.00000  Uiso   1.00
H309   H     0.82201   0.60701   0.10792   0.00000  Uiso   1.00
H310   H     0.84081   0.62813   0.89970   0.00000  Uiso   1.00
H311   H     0.96843   0.26424   0.03173   0.00000  Uiso   1.00
H312   H     0.80812   0.67372   0.21355   0.00000  Uiso   1.00
H313   H     0.84776   0.71826   0.77448   0.00000  Uiso   1.00
O314   O     0.08880   0.18628   0.02579   0.00000  Uiso   1.00
O315   O     0.87848   0.72351   0.26433   0.00000  Uiso   1.00
O316   O     0.93049   0.78194   0.68827   0.00000  Uiso   1.00
N317   N     0.10255   0.30117   0.00885   0.00000  Uiso   1.00
N318   N     0.95267   0.68400   0.17885   0.00000  Uiso   1.00
N319   N     0.98973   0.72566   0.76836   0.00000  Uiso   1.00
N320   N     0.00444   0.28844   0.02370   0.00000  Uiso   1.00
N321   N     0.85456   0.67127   0.19370   0.00000  Uiso   1.00
N322   N     0.89162   0.71292   0.78321   0.00000  Uiso   1.00
C323   C     0.76729   0.99209   0.88340   0.00000  Uiso   1.00
C324   C     0.80781   0.01133   0.81854   0.00000  Uiso   1.00
C325   C     0.80632   0.07974   0.78363   0.00000  Uiso   1.00
C326   C     0.84710   0.08614   0.72536   0.00000  Uiso   1.00
C327   C     0.90384   0.12513   0.62810   0.00000  Uiso   1.00
C328   C     0.81479   0.94808   0.92645   0.00000  Uiso   1.00
C329   C     0.81916   0.96332   0.98226   0.00000  Uiso   1.00
C330   C     0.86581   0.91647   0.01483   0.00000  Uiso   1.00
C331   C     0.93335   0.85724   0.08511   0.00000  Uiso   1.00
C332   C     0.73074   0.94128   0.87683   0.00000  Uiso   1.00
C333   C     0.66444   0.95079   0.89094   0.00000  Uiso   1.00
C334   C     0.64034   0.89821   0.88175   0.00000  Uiso   1.00
C335   C     0.57737   0.82841   0.87500   0.00000  Uiso   1.00
C336   C     0.84238   0.88180   0.84200   0.00000  Uiso   1.00
C337   C     0.84860   0.95142   0.79606   0.00000  Uiso   1.00
C338   C     0.88939   0.95772   0.73783   0.00000  Uiso   1.00
C339   C     0.88796   0.02613   0.70284   0.00000  Uiso   1.00
C340   C     0.85558   0.88818   0.90397   0.00000  Uiso   1.00
C341   C     0.90223   0.84130   0.93646   0.00000  Uiso   1.00
C342   C     0.90667   0.85646   0.99230   0.00000  Uiso   1.00
C343   C     0.77153   0.88138   0.85435   0.00000  Uiso   1.00
C344   C     0.74752   0.82877   0.84514   0.00000  Uiso   1.00
C345   C     0.68119   0.83819   0.85923   0.00000  Uiso   1.00
H346   H     0.73554   0.03872   0.90090   0.00000  Uiso   1.00
H347   H     0.77475   0.12609   0.80105   0.00000  Uiso   1.00
H348   H     0.78759   0.00967   0.99965   0.00000  Uiso   1.00
H349   H     0.63290   0.99715   0.90834   0.00000  Uiso   1.00
H350   H     0.83623   0.19653   0.68043   0.00000  Uiso   1.00
H351   H     0.86327   0.95105   0.09920   0.00000  Uiso   1.00
H352   H     0.53707   0.92464   0.90667   0.00000  Uiso   1.00
H353   H     0.87414   0.83516   0.82450   0.00000  Uiso   1.00
H354   H     0.92095   0.91135   0.72045   0.00000  Uiso   1.00
H355   H     0.93378   0.79494   0.91905   0.00000  Uiso   1.00
H356   H     0.77909   0.78242   0.82774   0.00000  Uiso   1.00
H357   H     0.95489   0.02224   0.61502   0.00000  Uiso   1.00
H358   H     0.98193   0.77677   0.03379   0.00000  Uiso   1.00
H359   H     0.65574   0.75035   0.84125   0.00000  Uiso   1.00
O360   O     0.92387   0.16318   0.58067   0.00000  Uiso   1.00
O361   O     0.95934   0.84112   0.13008   0.00000  Uiso   1.00
O362   O     0.53138   0.80647   0.87748   0.00000  Uiso   1.00
N363   N     0.85772   0.14505   0.67931   0.00000  Uiso   1.00
N364   N     0.88301   0.91556   0.07083   0.00000  Uiso   1.00
N365   N     0.57805   0.89085   0.89085   0.00000  Uiso   1.00
N366   N     0.92157   0.05127   0.64411   0.00000  Uiso   1.00
N367   N     0.94686   0.82177   0.03563   0.00000  Uiso   1.00
N368   N     0.64190   0.79707   0.85565   0.00000  Uiso   1.00
C369   C     0.58986   0.76339   0.25305   0.00000  Uiso   1.00
C370   C     0.52262   0.78324   0.29210   0.00000  Uiso   1.00
C371   C     0.50500   0.75948   0.35647   0.00000  Uiso   1.00
C372   C     0.44110   0.78379   0.38344   0.00000  Uiso   1.00
C373   C     0.34349   0.80759   0.44959   0.00000  Uiso   1.00
C374   C     0.60816   0.83351   0.22081   0.00000  Uiso   1.00
C375   C     0.66247   0.85201   0.22524   0.00000  Uiso   1.00
C376   C     0.67058   0.91863   0.19218   0.00000  Uiso   1.00
C377   C     0.70580   0.02045   0.14761   0.00000  Uiso   1.00
C378   C     0.58250   0.73195   0.20061   0.00000  Uiso   1.00
C379   C     0.61524   0.66506   0.18803   0.00000  Uiso   1.00
C380   C     0.60176   0.64619   0.13796   0.00000  Uiso   1.00
C381   C     0.59713   0.59032   0.06202   0.00000  Uiso   1.00
C382   C     0.50770   0.84880   0.18647   0.00000  Uiso   1.00
C383   C     0.47799   0.82963   0.25594   0.00000  Uiso   1.00
C384   C     0.41410   0.85398   0.28281   0.00000  Uiso   1.00
C385   C     0.39639   0.83026   0.34721   0.00000  Uiso   1.00
C386   C     0.56353   0.87990   0.18465   0.00000  Uiso   1.00
C387   C     0.57157   0.94650   0.15158   0.00000  Uiso   1.00
C388   C     0.62587   0.96511   0.15596   0.00000  Uiso   1.00
C389   C     0.53787   0.77834   0.16444   0.00000  Uiso   1.00
C390   C     0.52433   0.75956   0.11438   0.00000  Uiso   1.00
C391   C     0.55705   0.69266   0.10173   0.00000  Uiso   1.00
H392   H     0.62461   0.72727   0.28120   0.00000  Uiso   1.00
H393   H     0.53956   0.72359   0.38444   0.00000  Uiso   1.00
H394   H     0.69700   0.81610   0.25322   0.00000  Uiso   1.00
H395   H     0.64978   0.62918   0.21603   0.00000  Uiso   1.00
H396   H     0.42559   0.73998   0.48296   0.00000  Uiso   1.00
H397   H     0.75758   0.93503   0.20626   0.00000  Uiso   1.00
H398   H     0.65800   0.54088   0.12783   0.00000  Uiso   1.00
H399   H     0.47295   0.88491   0.15831   0.00000  Uiso   1.00
H400   H     0.37957   0.88988   0.25482   0.00000  Uiso   1.00
H401   H     0.53702   0.98239   0.12359   0.00000  Uiso   1.00
H402   H     0.48979   0.79547   0.08640   0.00000  Uiso   1.00
H403   H     0.29574   0.87496   0.37775   0.00000  Uiso   1.00
H404   H     0.62774   0.07000   0.10105   0.00000  Uiso   1.00
H405   H     0.52815   0.67585   0.02262   0.00000  Uiso   1.00
O406   O     0.30198   0.80791   0.49606   0.00000  Uiso   1.00
O407   O     0.73755   0.06380   0.13303   0.00000  Uiso   1.00
O408   O     0.60689   0.54668   0.03013   0.00000  Uiso   1.00
N409   N     0.40784   0.77106   0.44496   0.00000  Uiso   1.00
N410   N     0.71823   0.95342   0.18626   0.00000  Uiso   1.00
N411   N     0.62514   0.58493   0.11293   0.00000  Uiso   1.00
N412   N     0.33797   0.84368   0.38834   0.00000  Uiso   1.00
N413   N     0.64836   0.02605   0.12965   0.00000  Uiso   1.00
N414   N     0.55527   0.65756   0.05631   0.00000  Uiso   1.00
C415   C     0.58542   0.25131   0.31124   0.00000  Uiso   1.00
C416   C     0.61288   0.29723   0.25074   0.00000  Uiso   1.00
C417   C     0.67772   0.29282   0.22650   0.00000  Uiso   1.00
C418   C     0.69301   0.33956   0.17058   0.00000  Uiso   1.00
C419   C     0.74294   0.40338   0.08129   0.00000  Uiso   1.00
C420   C     0.54061   0.30295   0.35208   0.00000  Uiso   1.00
C421   C     0.54468   0.30333   0.41304   0.00000  Uiso   1.00
C422   C     0.49913   0.35488   0.44242   0.00000  Uiso   1.00
C423   C     0.43682   0.42754   0.51048   0.00000  Uiso   1.00
C424   C     0.54236   0.21602   0.29240   0.00000  Uiso   1.00
C425   C     0.54789   0.14330   0.30320   0.00000  Uiso   1.00
C426   C     0.50380   0.12165   0.28236   0.00000  Uiso   1.00
C427   C     0.44421   0.05934   0.25776   0.00000  Uiso   1.00
C428   C     0.49727   0.34217   0.25504   0.00000  Uiso   1.00
C429   C     0.56500   0.34658   0.22021   0.00000  Uiso   1.00
C430   C     0.58020   0.39334   0.16431   0.00000  Uiso   1.00
C431   C     0.64505   0.38899   0.13999   0.00000  Uiso   1.00
C432   C     0.49273   0.35230   0.32155   0.00000  Uiso   1.00
C433   C     0.44716   0.40385   0.35085   0.00000  Uiso   1.00
C434   C     0.45117   0.40432   0.41184   0.00000  Uiso   1.00
C435   C     0.49448   0.26536   0.26187   0.00000  Uiso   1.00
C436   C     0.45037   0.24382   0.24101   0.00000  Uiso   1.00
C437   C     0.45584   0.17109   0.25178   0.00000  Uiso   1.00
H438   H     0.62269   0.21289   0.33501   0.00000  Uiso   1.00
H439   H     0.71475   0.25463   0.25014   0.00000  Uiso   1.00
H440   H     0.58173   0.26513   0.43665   0.00000  Uiso   1.00
H441   H     0.58494   0.10513   0.32683   0.00000  Uiso   1.00
H442   H     0.79572   0.32267   0.14259   0.00000  Uiso   1.00
H443   H     0.51521   0.34482   0.53587   0.00000  Uiso   1.00
H444   H     0.52198   0.00741   0.30429   0.00000  Uiso   1.00
H445   H     0.46000   0.38059   0.23127   0.00000  Uiso   1.00
H446   H     0.54314   0.43152   0.14070   0.00000  Uiso   1.00
H447   H     0.41012   0.44203   0.32722   0.00000  Uiso   1.00
H448   H     0.41333   0.28202   0.21739   0.00000  Uiso   1.00
H449   H     0.65643   0.46625   0.05377   0.00000  Uiso   1.00
H450   H     0.37593   0.48839   0.44705   0.00000  Uiso   1.00
H451   H     0.38270   0.15099   0.21547   0.00000  Uiso   1.00
O452   O     0.78370   0.42496   0.04048   0.00000  Uiso   1.00
O453   O     0.41569   0.45400   0.55645   0.00000  Uiso   1.00
O454   O     0.42457   0.01133   0.25262   0.00000  Uiso   1.00
N455   N     0.75153   0.34946   0.13411   0.00000  Uiso   1.00
N456   N     0.48928   0.37017   0.50180   0.00000  Uiso   1.00
N457   N     0.49560   0.05473   0.28530   0.00000  Uiso   1.00
N458   N     0.67658   0.42672   0.08631   0.00000  Uiso   1.00
N459   N     0.41433   0.44743   0.45400   0.00000  Uiso   1.00
N460   N     0.42065   0.13198   0.23751   0.00000  Uiso   1.00
C461   C     0.20390   0.07094   0.64415   0.00000  Uiso   1.00
C462   C     0.20363   0.00098   0.69154   0.00000  Uiso   1.00
C463   C     0.15036   0.98355   0.73385   0.00000  Uiso   1.00
C464   C     0.16008   0.91690   0.77329   0.00000  Uiso   1.00
C465   C     0.15042   0.81550   0.84733   0.00000  Uiso   1.00
C466   C     0.25391   0.10103   0.65772   0.00000  Uiso   1.00
C467   C     0.24291   0.16772   0.67158   0.00000  Uiso   1.00
C468   C     0.29497   0.18529   0.68255   0.00000  Uiso   1.00
C469   C     0.36339   0.23925   0.70403   0.00000  Uiso   1.00
C470   C     0.23090   0.05093   0.57964   0.00000  Uiso   1.00
C471   C     0.20056   0.07551   0.52784   0.00000  Uiso   1.00
C472   C     0.23325   0.05092   0.47307   0.00000  Uiso   1.00
C473   C     0.26594   0.02708   0.37332   0.00000  Uiso   1.00
C474   C     0.31590   0.98355   0.63897   0.00000  Uiso   1.00
C475   C     0.26447   0.95352   0.68873   0.00000  Uiso   1.00
C476   C     0.27428   0.88687   0.72812   0.00000  Uiso   1.00
C477   C     0.22103   0.86935   0.77048   0.00000  Uiso   1.00
C478   C     0.31475   0.05357   0.65491   0.00000  Uiso   1.00
C479   C     0.36684   0.07104   0.66586   0.00000  Uiso   1.00
C480   C     0.35592   0.13775   0.67973   0.00000  Uiso   1.00
C481   C     0.29174   0.00346   0.57683   0.00000  Uiso   1.00
C482   C     0.32448   0.97883   0.52212   0.00000  Uiso   1.00
C483   C     0.29420   0.00337   0.47025   0.00000  Uiso   1.00
H484   H     0.15653   0.10789   0.64634   0.00000  Uiso   1.00
H485   H     0.10328   0.02030   0.73601   0.00000  Uiso   1.00
H486   H     0.19583   0.20444   0.67375   0.00000  Uiso   1.00
H487   H     0.15348   0.11224   0.53004   0.00000  Uiso   1.00
H488   H     0.07108   0.90226   0.83421   0.00000  Uiso   1.00
H489   H     0.26623   0.29056   0.70290   0.00000  Uiso   1.00
H490   H     0.17693   0.09614   0.39985   0.00000  Uiso   1.00
H491   H     0.36327   0.94660   0.63678   0.00000  Uiso   1.00
H492   H     0.32137   0.85015   0.72594   0.00000  Uiso   1.00
H493   H     0.41391   0.03430   0.66367   0.00000  Uiso   1.00
H494   H     0.37156   0.94210   0.51996   0.00000  Uiso   1.00
H495   H     0.24809   0.76417   0.82603   0.00000  Uiso   1.00
H496   H     0.44323   0.15247   0.69472   0.00000  Uiso   1.00
H497   H     0.35393   0.95804   0.39168   0.00000  Uiso   1.00
O498   O     0.12829   0.77269   0.88895   0.00000  Uiso   1.00
O499   O     0.38431   0.28212   0.71667   0.00000  Uiso   1.00
O500   O     0.26716   0.02704   0.31909   0.00000  Uiso   1.00
N501   N     0.11849   0.88299   0.82004   0.00000  Uiso   1.00
N502   N     0.30093   0.24602   0.69729   0.00000  Uiso   1.00
N503   N     0.21746   0.06427   0.41396   0.00000  Uiso   1.00
N504   N     0.21373   0.80868   0.81564   0.00000  Uiso   1.00
N505   N     0.39618   0.17171   0.69289   0.00000  Uiso   1.00
N506   N     0.31270   0.98996   0.40956   0.00000  Uiso   1.00
C507   C     0.01311   0.49817   0.46365   0.00000  Uiso   1.00
C508   C     0.94317   0.53557   0.45912   0.00000  Uiso   1.00
C509   C     0.92234   0.59192   0.41182   0.00000  Uiso   1.00
C510   C     0.85634   0.61875   0.41617   0.00000  Uiso   1.00
C511   C     0.75438   0.68119   0.40156   0.00000  Uiso   1.00
C512   C     0.02170   0.50343   0.52787   0.00000  Uiso   1.00
C513   C     0.06689   0.53273   0.53838   0.00000  Uiso   1.00
C514   C     0.06700   0.53249   0.60060   0.00000  Uiso   1.00
C515   C     0.08698   0.54497   0.69274   0.00000  Uiso   1.00
C516   C     0.01953   0.41951   0.46689   0.00000  Uiso   1.00
C517   C     0.06291   0.37825   0.42613   0.00000  Uiso   1.00
C518   C     0.06120   0.30735   0.43701   0.00000  Uiso   1.00
C519   C     0.07781   0.18955   0.43446   0.00000  Uiso   1.00
C520   C     0.93296   0.44563   0.55547   0.00000  Uiso   1.00
C521   C     0.89964   0.50703   0.50899   0.00000  Uiso   1.00
C522   C     0.83366   0.53378   0.51341   0.00000  Uiso   1.00
C523   C     0.81273   0.59016   0.46612   0.00000  Uiso   1.00
C524   C     0.97817   0.47489   0.57774   0.00000  Uiso   1.00
C525   C     0.97822   0.47460   0.63996   0.00000  Uiso   1.00
C526   C     0.02340   0.50390   0.65057   0.00000  Uiso   1.00
C527   C     0.97599   0.39097   0.51676   0.00000  Uiso   1.00
C528   C     0.97423   0.32012   0.52771   0.00000  Uiso   1.00
C529   C     0.01759   0.27876   0.48698   0.00000  Uiso   1.00
H530   H     0.04700   0.52039   0.42483   0.00000  Uiso   1.00
H531   H     0.95604   0.61399   0.37324   0.00000  Uiso   1.00
H532   H     0.10058   0.55480   0.49978   0.00000  Uiso   1.00
H533   H     0.09659   0.40036   0.38754   0.00000  Uiso   1.00
H534   H     0.83600   0.70520   0.33805   0.00000  Uiso   1.00
H535   H     0.14077   0.58038   0.60487   0.00000  Uiso   1.00
H536   H     0.13236   0.25469   0.36819   0.00000  Uiso   1.00
H537   H     0.89907   0.42341   0.59430   0.00000  Uiso   1.00
H538   H     0.79999   0.51169   0.55200   0.00000  Uiso   1.00
H539   H     0.94453   0.45250   0.67854   0.00000  Uiso   1.00
H540   H     0.94054   0.29805   0.56631   0.00000  Uiso   1.00
H541   H     0.70934   0.62217   0.48314   0.00000  Uiso   1.00
H542   H     0.01412   0.49734   0.74996   0.00000  Uiso   1.00
H543   H     0.00571   0.17166   0.51329   0.00000  Uiso   1.00
O544   O     0.71016   0.72352   0.37973   0.00000  Uiso   1.00
O545   O     0.11002   0.55975   0.72978   0.00000  Uiso   1.00
O546   O     0.09899   0.13246   0.41927   0.00000  Uiso   1.00
N547   N     0.81979   0.67353   0.37799   0.00000  Uiso   1.00
N548   N     0.10473   0.55684   0.62745   0.00000  Uiso   1.00
N549   N     0.09688   0.25235   0.40619   0.00000  Uiso   1.00
N550   N     0.75163   0.62885   0.45607   0.00000  Uiso   1.00
N551   N     0.03657   0.51216   0.70553   0.00000  Uiso   1.00
N552   N     0.02872   0.20767   0.48427   0.00000  Uiso   1.00
