data_job_04404
_audit_creation_date              2018-12-19
_audit_creation_method            'Materials Studio'
_symmetry_space_group_name_H-M    'P1'
_symmetry_Int_Tables_number       1
_symmetry_cell_setting            triclinic
loop_
_symmetry_equiv_pos_as_xyz
  x,y,z
_cell_length_a                    12.4897
_cell_length_b                    26.9811
_cell_length_c                    15.1712
_cell_angle_alpha                 90.0000
_cell_angle_beta                  117.9993
_cell_angle_gamma                 90.0000
loop_
_atom_site_label
_atom_site_type_symbol
_atom_site_fract_x
_atom_site_fract_y
_atom_site_fract_z
_atom_site_U_iso_or_equiv
_atom_site_adp_type
_atom_site_occupancy
C1     C     0.07984   0.40604   0.36088   0.00000  Uiso   1.00
C2     C     0.11595   0.38877   0.28280   0.00000  Uiso   1.00
C3     C     0.22183   0.36376   0.30217   0.00000  Uiso   1.00
C4     C     0.23809   0.35119   0.22050   0.00000  Uiso   1.00
C5     C     0.30736   0.32256   0.11410   0.00000  Uiso   1.00
C6     C     0.05798   0.46170   0.34518   0.00000  Uiso   1.00
C7     C     0.11511   0.49801   0.41702   0.00000  Uiso   1.00
C8     C     0.08255   0.54683   0.38786   0.00000  Uiso   1.00
C9     C     0.06176   0.63143   0.37833   0.00000  Uiso   1.00
C10    C     0.95633   0.38285   0.33164   0.00000  Uiso   1.00
C11    C     0.92799   0.35287   0.39210   0.00000  Uiso   1.00
C12    C     0.80984   0.33532   0.35155   0.00000  Uiso   1.00
C13    C     0.63124   0.29748   0.32100   0.00000  Uiso   1.00
C14    C     0.92040   0.42821   0.18137   0.00000  Uiso   1.00
C15    C     0.02935   0.40081   0.18530   0.00000  Uiso   1.00
C16    C     0.04544   0.38828   0.10357   0.00000  Uiso   1.00
C17    C     0.15133   0.36325   0.12283   0.00000  Uiso   1.00
C18    C     0.97138   0.47374   0.24768   0.00000  Uiso   1.00
C19    C     0.93872   0.52253   0.21841   0.00000  Uiso   1.00
C20    C     0.99580   0.55890   0.29018   0.00000  Uiso   1.00
C21    C     0.86973   0.39489   0.23414   0.00000  Uiso   1.00
C22    C     0.75160   0.37739   0.19349   0.00000  Uiso   1.00
C23    C     0.72309   0.34738   0.25388   0.00000  Uiso   1.00
H24    H     0.14725   0.39667   0.43679   0.00000  Uiso   1.00
H25    H     0.28883   0.35445   0.37764   0.00000  Uiso   1.00
H26    H     0.18211   0.48868   0.49246   0.00000  Uiso   1.00
H27    H     0.99503   0.34356   0.46755   0.00000  Uiso   1.00
H28    H     0.40763   0.31296   0.26907   0.00000  Uiso   1.00
H29    H     0.18258   0.59599   0.51119   0.00000  Uiso   1.00
H30    H     0.78807   0.28997   0.45866   0.00000  Uiso   1.00
H31    H     0.85298   0.43758   0.10546   0.00000  Uiso   1.00
H32    H     0.97841   0.39760   0.02813   0.00000  Uiso   1.00
H33    H     0.87170   0.53183   0.14296   0.00000  Uiso   1.00
H34    H     0.68461   0.38671   0.11804   0.00000  Uiso   1.00
H35    H     0.15568   0.34799   0.98540   0.00000  Uiso   1.00
H36    H     0.93063   0.63101   0.22752   0.00000  Uiso   1.00
H37    H     0.53613   0.32500   0.17498   0.00000  Uiso   1.00
O38    O     0.36950   0.30345   0.08234   0.00000  Uiso   1.00
O39    O     0.07422   0.67476   0.40001   0.00000  Uiso   1.00
O40    O     0.55665   0.27328   0.33108   0.00000  Uiso   1.00
N41    N     0.33111   0.32669   0.21292   0.00000  Uiso   1.00
N42    N     0.12072   0.59129   0.43929   0.00000  Uiso   1.00
N43    N     0.75188   0.30521   0.39018   0.00000  Uiso   1.00
N44    N     0.19554   0.34553   0.06028   0.00000  Uiso   1.00
N45    N     0.98514   0.61014   0.28664   0.00000  Uiso   1.00
N46    N     0.61631   0.32406   0.23753   0.00000  Uiso   1.00
C47    C     0.58352   0.85020   0.89934   0.00000  Uiso   1.00
C48    C     0.62433   0.83221   0.82457   0.00000  Uiso   1.00
C49    C     0.73592   0.81110   0.84823   0.00000  Uiso   1.00
C50    C     0.75580   0.79708   0.76905   0.00000  Uiso   1.00
C51    C     0.83267   0.76812   0.66804   0.00000  Uiso   1.00
C52    C     0.54833   0.90446   0.87408   0.00000  Uiso   1.00
C53    C     0.59601   0.94411   0.93938   0.00000  Uiso   1.00
C54    C     0.55190   0.99091   0.90188   0.00000  Uiso   1.00
C55    C     0.51071   0.07413   0.87775   0.00000  Uiso   1.00
C56    C     0.46612   0.82260   0.87419   0.00000  Uiso   1.00
C57    C     0.44465   0.79341   0.93959   0.00000  Uiso   1.00
C58    C     0.33130   0.77130   0.90219   0.00000  Uiso   1.00
C59    C     0.16246   0.72741   0.87823   0.00000  Uiso   1.00
C60    C     0.42039   0.86284   0.71665   0.00000  Uiso   1.00
C61    C     0.53572   0.83907   0.72533   0.00000  Uiso   1.00
C62    C     0.55543   0.82508   0.64610   0.00000  Uiso   1.00
C63    C     0.66703   0.80396   0.66964   0.00000  Uiso   1.00
C64    C     0.45973   0.91133   0.77485   0.00000  Uiso   1.00
C65    C     0.41552   0.95809   0.73724   0.00000  Uiso   1.00
C66    C     0.46313   0.99779   0.80247   0.00000  Uiso   1.00
C67    C     0.37750   0.82946   0.77495   0.00000  Uiso   1.00
C68    C     0.26416   0.80739   0.73745   0.00000  Uiso   1.00
C69    C     0.24253   0.77818   0.80278   0.00000  Uiso   1.00
H70    H     0.65251   0.84486   0.97660   0.00000  Uiso   1.00
H71    H     0.80448   0.80580   0.92504   0.00000  Uiso   1.00
H72    H     0.66457   0.93878   0.01617   0.00000  Uiso   1.00
H73    H     0.51324   0.78811   0.01637   0.00000  Uiso   1.00
H74    H     0.93390   0.76554   0.82410   0.00000  Uiso   1.00
H75    H     0.63888   0.04593   0.01627   0.00000  Uiso   1.00
H76    H     0.31976   0.72822   0.01671   0.00000  Uiso   1.00
H77    H     0.35140   0.86818   0.63939   0.00000  Uiso   1.00
H78    H     0.48685   0.83040   0.56931   0.00000  Uiso   1.00
H79    H     0.34695   0.96338   0.66045   0.00000  Uiso   1.00
H80    H     0.19561   0.81271   0.66065   0.00000  Uiso   1.00
H81    H     0.67611   0.78550   0.53539   0.00000  Uiso   1.00
H82    H     0.38108   0.06590   0.72756   0.00000  Uiso   1.00
H83    H     0.06196   0.74819   0.72799   0.00000  Uiso   1.00
O84    O     0.89956   0.75026   0.63973   0.00000  Uiso   1.00
O85    O     0.51248   0.11813   0.89186   0.00000  Uiso   1.00
O86    O     0.09381   0.70129   0.89243   0.00000  Uiso   1.00
N87    N     0.85463   0.77541   0.76577   0.00000  Uiso   1.00
N88    N     0.57882   0.03757   0.94543   0.00000  Uiso   1.00
N89    N     0.28046   0.74054   0.94585   0.00000  Uiso   1.00
N90    N     0.71591   0.78616   0.61041   0.00000  Uiso   1.00
N91    N     0.44010   0.04831   0.79008   0.00000  Uiso   1.00
N92    N     0.14174   0.75129   0.79049   0.00000  Uiso   1.00
C93    C     0.92016   0.90604   0.13912   0.00000  Uiso   1.00
C94    C     0.88405   0.88877   0.21720   0.00000  Uiso   1.00
C95    C     0.77817   0.86376   0.19783   0.00000  Uiso   1.00
C96    C     0.76191   0.85119   0.27950   0.00000  Uiso   1.00
C97    C     0.69264   0.82256   0.38590   0.00000  Uiso   1.00
C98    C     0.94202   0.96170   0.15482   0.00000  Uiso   1.00
C99    C     0.88489   0.99801   0.08298   0.00000  Uiso   1.00
C100   C     0.91745   0.04683   0.11214   0.00000  Uiso   1.00
C101   C     0.93824   0.13143   0.12167   0.00000  Uiso   1.00
C102   C     0.04367   0.88285   0.16836   0.00000  Uiso   1.00
C103   C     0.07201   0.85287   0.10790   0.00000  Uiso   1.00
C104   C     0.19016   0.83532   0.14845   0.00000  Uiso   1.00
C105   C     0.36876   0.79748   0.17900   0.00000  Uiso   1.00
C106   C     0.07960   0.92821   0.31863   0.00000  Uiso   1.00
C107   C     0.97065   0.90081   0.31470   0.00000  Uiso   1.00
C108   C     0.95456   0.88828   0.39643   0.00000  Uiso   1.00
C109   C     0.84867   0.86325   0.37717   0.00000  Uiso   1.00
C110   C     0.02862   0.97374   0.25232   0.00000  Uiso   1.00
C111   C     0.06128   0.02253   0.28159   0.00000  Uiso   1.00
C112   C     0.00420   0.05890   0.20982   0.00000  Uiso   1.00
C113   C     0.13027   0.89489   0.26586   0.00000  Uiso   1.00
C114   C     0.24840   0.87739   0.30651   0.00000  Uiso   1.00
C115   C     0.27691   0.84738   0.24612   0.00000  Uiso   1.00
H116   H     0.85275   0.89667   0.06321   0.00000  Uiso   1.00
H117   H     0.71117   0.85445   0.12236   0.00000  Uiso   1.00
H118   H     0.81789   0.98868   0.00754   0.00000  Uiso   1.00
H119   H     0.00497   0.84356   0.03245   0.00000  Uiso   1.00
H120   H     0.59237   0.81296   0.23093   0.00000  Uiso   1.00
H121   H     0.81742   0.09599   0.98881   0.00000  Uiso   1.00
H122   H     0.21193   0.78997   0.04134   0.00000  Uiso   1.00
H123   H     0.14702   0.93758   0.39454   0.00000  Uiso   1.00
H124   H     0.02159   0.89760   0.47187   0.00000  Uiso   1.00
H125   H     0.12830   0.03183   0.35704   0.00000  Uiso   1.00
H126   H     0.31539   0.88671   0.38196   0.00000  Uiso   1.00
H127   H     0.84432   0.84799   0.51460   0.00000  Uiso   1.00
H128   H     0.06937   0.13101   0.27248   0.00000  Uiso   1.00
H129   H     0.46387   0.82500   0.32502   0.00000  Uiso   1.00
O130   O     0.63050   0.80345   0.41766   0.00000  Uiso   1.00
O131   O     0.92578   0.17476   0.09999   0.00000  Uiso   1.00
O132   O     0.44335   0.77328   0.16892   0.00000  Uiso   1.00
N133   N     0.66889   0.82669   0.28708   0.00000  Uiso   1.00
N134   N     0.87928   0.09129   0.06071   0.00000  Uiso   1.00
N135   N     0.24812   0.80521   0.10982   0.00000  Uiso   1.00
N136   N     0.80446   0.84553   0.43972   0.00000  Uiso   1.00
N137   N     0.01486   0.11014   0.21336   0.00000  Uiso   1.00
N138   N     0.38369   0.82406   0.26247   0.00000  Uiso   1.00
C139   C     0.41648   0.35020   0.60066   0.00000  Uiso   1.00
C140   C     0.37567   0.33221   0.67543   0.00000  Uiso   1.00
C141   C     0.26408   0.31110   0.65177   0.00000  Uiso   1.00
C142   C     0.24420   0.29708   0.73095   0.00000  Uiso   1.00
C143   C     0.16733   0.26812   0.83196   0.00000  Uiso   1.00
C144   C     0.45167   0.40446   0.62592   0.00000  Uiso   1.00
C145   C     0.40399   0.44411   0.56062   0.00000  Uiso   1.00
C146   C     0.44810   0.49091   0.59812   0.00000  Uiso   1.00
C147   C     0.48929   0.57413   0.62225   0.00000  Uiso   1.00
C148   C     0.53388   0.32260   0.62581   0.00000  Uiso   1.00
C149   C     0.55535   0.29341   0.56041   0.00000  Uiso   1.00
C150   C     0.66870   0.27130   0.59781   0.00000  Uiso   1.00
C151   C     0.83754   0.22741   0.62177   0.00000  Uiso   1.00
C152   C     0.57961   0.36284   0.78335   0.00000  Uiso   1.00
C153   C     0.46428   0.33907   0.77467   0.00000  Uiso   1.00
C154   C     0.44457   0.32508   0.85390   0.00000  Uiso   1.00
C155   C     0.33297   0.30396   0.83036   0.00000  Uiso   1.00
C156   C     0.54027   0.41133   0.72515   0.00000  Uiso   1.00
C157   C     0.58448   0.45809   0.76276   0.00000  Uiso   1.00
C158   C     0.53687   0.49779   0.69753   0.00000  Uiso   1.00
C159   C     0.62250   0.32946   0.72505   0.00000  Uiso   1.00
C160   C     0.73584   0.30739   0.76255   0.00000  Uiso   1.00
C161   C     0.75747   0.27818   0.69722   0.00000  Uiso   1.00
H162   H     0.34749   0.34486   0.52340   0.00000  Uiso   1.00
H163   H     0.19552   0.30580   0.57496   0.00000  Uiso   1.00
H164   H     0.33543   0.43878   0.48383   0.00000  Uiso   1.00
H165   H     0.48676   0.28811   0.48363   0.00000  Uiso   1.00
H166   H     0.06610   0.26554   0.67590   0.00000  Uiso   1.00
H167   H     0.36112   0.54593   0.48373   0.00000  Uiso   1.00
H168   H     0.68024   0.22822   0.48329   0.00000  Uiso   1.00
H169   H     0.64860   0.36818   0.86061   0.00000  Uiso   1.00
H170   H     0.51315   0.33040   0.93069   0.00000  Uiso   1.00
H171   H     0.65305   0.46338   0.83955   0.00000  Uiso   1.00
H172   H     0.80439   0.31271   0.83935   0.00000  Uiso   1.00
H173   H     0.32389   0.28550   0.96461   0.00000  Uiso   1.00
H174   H     0.61892   0.56590   0.77244   0.00000  Uiso   1.00
H175   H     0.93804   0.24819   0.77201   0.00000  Uiso   1.00
O176   O     0.10044   0.25026   0.86027   0.00000  Uiso   1.00
O177   O     0.48752   0.61813   0.60814   0.00000  Uiso   1.00
O178   O     0.90619   0.20129   0.60757   0.00000  Uiso   1.00
N179   N     0.14537   0.27541   0.73423   0.00000  Uiso   1.00
N180   N     0.42118   0.53757   0.55457   0.00000  Uiso   1.00
N181   N     0.71954   0.24054   0.55415   0.00000  Uiso   1.00
N182   N     0.28409   0.28616   0.88959   0.00000  Uiso   1.00
N183   N     0.55990   0.54831   0.70992   0.00000  Uiso   1.00
N184   N     0.85826   0.25129   0.70951   0.00000  Uiso   1.00
C185   C     0.92016   0.59396   0.63912   0.00000  Uiso   1.00
C186   C     0.88405   0.61123   0.71720   0.00000  Uiso   1.00
C187   C     0.77817   0.63624   0.69783   0.00000  Uiso   1.00
C188   C     0.76191   0.64881   0.77950   0.00000  Uiso   1.00
C189   C     0.69264   0.67744   0.88590   0.00000  Uiso   1.00
C190   C     0.94202   0.53830   0.65482   0.00000  Uiso   1.00
C191   C     0.88489   0.50199   0.58298   0.00000  Uiso   1.00
C192   C     0.91745   0.45317   0.61214   0.00000  Uiso   1.00
C193   C     0.93824   0.36857   0.62167   0.00000  Uiso   1.00
C194   C     0.04367   0.61715   0.66836   0.00000  Uiso   1.00
C195   C     0.07201   0.64713   0.60790   0.00000  Uiso   1.00
C196   C     0.19016   0.66468   0.64845   0.00000  Uiso   1.00
C197   C     0.36876   0.70252   0.67900   0.00000  Uiso   1.00
C198   C     0.07960   0.57179   0.81863   0.00000  Uiso   1.00
C199   C     0.97065   0.59919   0.81470   0.00000  Uiso   1.00
C200   C     0.95456   0.61172   0.89643   0.00000  Uiso   1.00
C201   C     0.84867   0.63675   0.87717   0.00000  Uiso   1.00
C202   C     0.02862   0.52626   0.75232   0.00000  Uiso   1.00
C203   C     0.06128   0.47747   0.78159   0.00000  Uiso   1.00
C204   C     0.00420   0.44110   0.70982   0.00000  Uiso   1.00
C205   C     0.13027   0.60511   0.76586   0.00000  Uiso   1.00
C206   C     0.24840   0.62261   0.80651   0.00000  Uiso   1.00
C207   C     0.27691   0.65262   0.74612   0.00000  Uiso   1.00
H208   H     0.85275   0.60333   0.56321   0.00000  Uiso   1.00
H209   H     0.71117   0.64555   0.62236   0.00000  Uiso   1.00
H210   H     0.81789   0.51132   0.50754   0.00000  Uiso   1.00
H211   H     0.00497   0.65644   0.53245   0.00000  Uiso   1.00
H212   H     0.59237   0.68704   0.73093   0.00000  Uiso   1.00
H213   H     0.81742   0.40401   0.48881   0.00000  Uiso   1.00
H214   H     0.21193   0.71003   0.54134   0.00000  Uiso   1.00
H215   H     0.14702   0.56242   0.89454   0.00000  Uiso   1.00
H216   H     0.02159   0.60240   0.97187   0.00000  Uiso   1.00
H217   H     0.12830   0.46817   0.85704   0.00000  Uiso   1.00
H218   H     0.31539   0.61329   0.88196   0.00000  Uiso   1.00
H219   H     0.84432   0.65201   0.01460   0.00000  Uiso   1.00
H220   H     0.06937   0.36899   0.77248   0.00000  Uiso   1.00
H221   H     0.46387   0.67500   0.82502   0.00000  Uiso   1.00
O222   O     0.63050   0.69655   0.91766   0.00000  Uiso   1.00
O223   O     0.92578   0.32524   0.59999   0.00000  Uiso   1.00
O224   O     0.44335   0.72672   0.66892   0.00000  Uiso   1.00
N225   N     0.66889   0.67331   0.78708   0.00000  Uiso   1.00
N226   N     0.87928   0.40871   0.56071   0.00000  Uiso   1.00
N227   N     0.24812   0.69479   0.60982   0.00000  Uiso   1.00
N228   N     0.80446   0.65447   0.93972   0.00000  Uiso   1.00
N229   N     0.01486   0.38986   0.71336   0.00000  Uiso   1.00
N230   N     0.38369   0.67594   0.76247   0.00000  Uiso   1.00
C231   C     0.41648   0.14980   0.10066   0.00000  Uiso   1.00
C232   C     0.37567   0.16779   0.17543   0.00000  Uiso   1.00
C233   C     0.26408   0.18890   0.15177   0.00000  Uiso   1.00
C234   C     0.24420   0.20292   0.23095   0.00000  Uiso   1.00
C235   C     0.16733   0.23188   0.33196   0.00000  Uiso   1.00
C236   C     0.45167   0.09554   0.12592   0.00000  Uiso   1.00
C237   C     0.40399   0.05589   0.06062   0.00000  Uiso   1.00
C238   C     0.44810   0.00909   0.09812   0.00000  Uiso   1.00
C239   C     0.48929   0.92587   0.12225   0.00000  Uiso   1.00
C240   C     0.53388   0.17740   0.12581   0.00000  Uiso   1.00
C241   C     0.55535   0.20659   0.06041   0.00000  Uiso   1.00
C242   C     0.66870   0.22870   0.09781   0.00000  Uiso   1.00
C243   C     0.83754   0.27259   0.12177   0.00000  Uiso   1.00
C244   C     0.57961   0.13716   0.28335   0.00000  Uiso   1.00
C245   C     0.46428   0.16093   0.27467   0.00000  Uiso   1.00
C246   C     0.44457   0.17492   0.35390   0.00000  Uiso   1.00
C247   C     0.33297   0.19604   0.33036   0.00000  Uiso   1.00
C248   C     0.54027   0.08867   0.22515   0.00000  Uiso   1.00
C249   C     0.58448   0.04191   0.26276   0.00000  Uiso   1.00
C250   C     0.53687   0.00221   0.19753   0.00000  Uiso   1.00
C251   C     0.62250   0.17054   0.22505   0.00000  Uiso   1.00
C252   C     0.73584   0.19261   0.26255   0.00000  Uiso   1.00
C253   C     0.75747   0.22182   0.19722   0.00000  Uiso   1.00
H254   H     0.34749   0.15514   0.02340   0.00000  Uiso   1.00
H255   H     0.19552   0.19420   0.07496   0.00000  Uiso   1.00
H256   H     0.33543   0.06122   0.98383   0.00000  Uiso   1.00
H257   H     0.48676   0.21189   0.98363   0.00000  Uiso   1.00
H258   H     0.06610   0.23446   0.17590   0.00000  Uiso   1.00
H259   H     0.36112   0.95407   0.98373   0.00000  Uiso   1.00
H260   H     0.68024   0.27178   0.98329   0.00000  Uiso   1.00
H261   H     0.64860   0.13182   0.36061   0.00000  Uiso   1.00
H262   H     0.51315   0.16960   0.43069   0.00000  Uiso   1.00
H263   H     0.65305   0.03662   0.33955   0.00000  Uiso   1.00
H264   H     0.80439   0.18729   0.33935   0.00000  Uiso   1.00
H265   H     0.32389   0.21450   0.46461   0.00000  Uiso   1.00
H266   H     0.61892   0.93410   0.27244   0.00000  Uiso   1.00
H267   H     0.93804   0.25181   0.27201   0.00000  Uiso   1.00
O268   O     0.10044   0.24974   0.36027   0.00000  Uiso   1.00
O269   O     0.48752   0.88187   0.10814   0.00000  Uiso   1.00
O270   O     0.90619   0.29871   0.10757   0.00000  Uiso   1.00
N271   N     0.14537   0.22459   0.23423   0.00000  Uiso   1.00
N272   N     0.42118   0.96243   0.05457   0.00000  Uiso   1.00
N273   N     0.71954   0.25946   0.05415   0.00000  Uiso   1.00
N274   N     0.28409   0.21384   0.38959   0.00000  Uiso   1.00
N275   N     0.55990   0.95169   0.20992   0.00000  Uiso   1.00
N276   N     0.85826   0.24871   0.20951   0.00000  Uiso   1.00
C277   C     0.07984   0.09396   0.86088   0.00000  Uiso   1.00
C278   C     0.11595   0.11123   0.78280   0.00000  Uiso   1.00
C279   C     0.22183   0.13624   0.80217   0.00000  Uiso   1.00
C280   C     0.23809   0.14881   0.72050   0.00000  Uiso   1.00
C281   C     0.30736   0.17744   0.61410   0.00000  Uiso   1.00
C282   C     0.05798   0.03830   0.84518   0.00000  Uiso   1.00
C283   C     0.11511   0.00199   0.91702   0.00000  Uiso   1.00
C284   C     0.08255   0.95317   0.88786   0.00000  Uiso   1.00
C285   C     0.06176   0.86857   0.87833   0.00000  Uiso   1.00
C286   C     0.95633   0.11715   0.83164   0.00000  Uiso   1.00
C287   C     0.92799   0.14713   0.89210   0.00000  Uiso   1.00
C288   C     0.80984   0.16468   0.85155   0.00000  Uiso   1.00
C289   C     0.63124   0.20252   0.82100   0.00000  Uiso   1.00
C290   C     0.92040   0.07179   0.68137   0.00000  Uiso   1.00
C291   C     0.02935   0.09919   0.68530   0.00000  Uiso   1.00
C292   C     0.04544   0.11172   0.60357   0.00000  Uiso   1.00
C293   C     0.15133   0.13675   0.62283   0.00000  Uiso   1.00
C294   C     0.97138   0.02626   0.74768   0.00000  Uiso   1.00
C295   C     0.93872   0.97747   0.71841   0.00000  Uiso   1.00
C296   C     0.99580   0.94110   0.79018   0.00000  Uiso   1.00
C297   C     0.86973   0.10511   0.73414   0.00000  Uiso   1.00
C298   C     0.75160   0.12261   0.69349   0.00000  Uiso   1.00
C299   C     0.72309   0.15262   0.75388   0.00000  Uiso   1.00
H300   H     0.14725   0.10333   0.93679   0.00000  Uiso   1.00
H301   H     0.28883   0.14555   0.87764   0.00000  Uiso   1.00
H302   H     0.18211   0.01132   0.99246   0.00000  Uiso   1.00
H303   H     0.99503   0.15644   0.96755   0.00000  Uiso   1.00
H304   H     0.40763   0.18704   0.76907   0.00000  Uiso   1.00
H305   H     0.18258   0.90401   0.01119   0.00000  Uiso   1.00
H306   H     0.78807   0.21003   0.95866   0.00000  Uiso   1.00
H307   H     0.85298   0.06242   0.60546   0.00000  Uiso   1.00
H308   H     0.97841   0.10240   0.52813   0.00000  Uiso   1.00
H309   H     0.87170   0.96817   0.64296   0.00000  Uiso   1.00
H310   H     0.68461   0.11329   0.61804   0.00000  Uiso   1.00
H311   H     0.15568   0.15201   0.48540   0.00000  Uiso   1.00
H312   H     0.93063   0.86899   0.72752   0.00000  Uiso   1.00
H313   H     0.53613   0.17500   0.67498   0.00000  Uiso   1.00
O314   O     0.36950   0.19655   0.58234   0.00000  Uiso   1.00
O315   O     0.07422   0.82524   0.90001   0.00000  Uiso   1.00
O316   O     0.55665   0.22672   0.83108   0.00000  Uiso   1.00
N317   N     0.33111   0.17331   0.71292   0.00000  Uiso   1.00
N318   N     0.12072   0.90871   0.93929   0.00000  Uiso   1.00
N319   N     0.75188   0.19479   0.89018   0.00000  Uiso   1.00
N320   N     0.19554   0.15447   0.56028   0.00000  Uiso   1.00
N321   N     0.98514   0.88986   0.78664   0.00000  Uiso   1.00
N322   N     0.61631   0.17594   0.73753   0.00000  Uiso   1.00
C323   C     0.58352   0.64980   0.39934   0.00000  Uiso   1.00
C324   C     0.62433   0.66779   0.32457   0.00000  Uiso   1.00
C325   C     0.73592   0.68890   0.34823   0.00000  Uiso   1.00
C326   C     0.75580   0.70292   0.26905   0.00000  Uiso   1.00
C327   C     0.83267   0.73188   0.16804   0.00000  Uiso   1.00
C328   C     0.54833   0.59554   0.37408   0.00000  Uiso   1.00
C329   C     0.59601   0.55589   0.43938   0.00000  Uiso   1.00
C330   C     0.55190   0.50909   0.40188   0.00000  Uiso   1.00
C331   C     0.51071   0.42587   0.37775   0.00000  Uiso   1.00
C332   C     0.46612   0.67740   0.37419   0.00000  Uiso   1.00
C333   C     0.44465   0.70659   0.43959   0.00000  Uiso   1.00
C334   C     0.33130   0.72870   0.40219   0.00000  Uiso   1.00
C335   C     0.16246   0.77259   0.37823   0.00000  Uiso   1.00
C336   C     0.42039   0.63716   0.21665   0.00000  Uiso   1.00
C337   C     0.53572   0.66093   0.22533   0.00000  Uiso   1.00
C338   C     0.55543   0.67492   0.14610   0.00000  Uiso   1.00
C339   C     0.66703   0.69604   0.16964   0.00000  Uiso   1.00
C340   C     0.45973   0.58867   0.27485   0.00000  Uiso   1.00
C341   C     0.41552   0.54191   0.23724   0.00000  Uiso   1.00
C342   C     0.46313   0.50221   0.30247   0.00000  Uiso   1.00
C343   C     0.37750   0.67054   0.27495   0.00000  Uiso   1.00
C344   C     0.26416   0.69261   0.23745   0.00000  Uiso   1.00
C345   C     0.24253   0.72182   0.30278   0.00000  Uiso   1.00
H346   H     0.65251   0.65514   0.47660   0.00000  Uiso   1.00
H347   H     0.80448   0.69420   0.42504   0.00000  Uiso   1.00
H348   H     0.66457   0.56122   0.51617   0.00000  Uiso   1.00
H349   H     0.51324   0.71189   0.51637   0.00000  Uiso   1.00
H350   H     0.93390   0.73446   0.32410   0.00000  Uiso   1.00
H351   H     0.63888   0.45407   0.51627   0.00000  Uiso   1.00
H352   H     0.31976   0.77178   0.51671   0.00000  Uiso   1.00
H353   H     0.35140   0.63182   0.13939   0.00000  Uiso   1.00
H354   H     0.48685   0.66960   0.06931   0.00000  Uiso   1.00
H355   H     0.34695   0.53662   0.16045   0.00000  Uiso   1.00
H356   H     0.19561   0.68729   0.16065   0.00000  Uiso   1.00
H357   H     0.67611   0.71450   0.03539   0.00000  Uiso   1.00
H358   H     0.38108   0.43410   0.22756   0.00000  Uiso   1.00
H359   H     0.06196   0.75181   0.22799   0.00000  Uiso   1.00
O360   O     0.89956   0.74974   0.13973   0.00000  Uiso   1.00
O361   O     0.51248   0.38187   0.39186   0.00000  Uiso   1.00
O362   O     0.09381   0.79871   0.39243   0.00000  Uiso   1.00
N363   N     0.85463   0.72459   0.26577   0.00000  Uiso   1.00
N364   N     0.57882   0.46243   0.44543   0.00000  Uiso   1.00
N365   N     0.28046   0.75946   0.44585   0.00000  Uiso   1.00
N366   N     0.71591   0.71384   0.11041   0.00000  Uiso   1.00
N367   N     0.44010   0.45169   0.29008   0.00000  Uiso   1.00
N368   N     0.14174   0.74871   0.29049   0.00000  Uiso   1.00
