data_job_05599
_audit_creation_date              2018-12-19
_audit_creation_method            'Materials Studio'
_symmetry_space_group_name_H-M    'P1'
_symmetry_Int_Tables_number       1
_symmetry_cell_setting            triclinic
loop_
_symmetry_equiv_pos_as_xyz
  x,y,z
_cell_length_a                    8.1637
_cell_length_b                    10.1434
_cell_length_c                    32.7849
_cell_angle_alpha                 90.0000
_cell_angle_beta                  105.7342
_cell_angle_gamma                 90.0000
loop_
_atom_site_label
_atom_site_type_symbol
_atom_site_fract_x
_atom_site_fract_y
_atom_site_fract_z
_atom_site_U_iso_or_equiv
_atom_site_adp_type
_atom_site_occupancy
C1     C     0.84907   0.27435   0.59411   0.00000  Uiso   1.00
C2     C     0.69620   0.35609   0.57032   0.00000  Uiso   1.00
C3     C     0.65547   0.38858   0.52763   0.00000  Uiso   1.00
C4     C     0.51033   0.46421   0.51186   0.00000  Uiso   1.00
C5     C     0.28832   0.58487   0.47096   0.00000  Uiso   1.00
C6     C     0.94687   0.35981   0.63097   0.00000  Uiso   1.00
C7     C     0.11690   0.39539   0.63927   0.00000  Uiso   1.00
C8     C     0.18277   0.47413   0.67455   0.00000  Uiso   1.00
C9     C     0.34996   0.60047   0.72782   0.00000  Uiso   1.00
C10    C     0.77716   0.15963   0.61388   0.00000  Uiso   1.00
C11    C     0.80453   0.02690   0.60783   0.00000  Uiso   1.00
C12    C     0.72755   0.93711   0.62873   0.00000  Uiso   1.00
C13    C     0.63124   0.75264   0.65548   0.00000  Uiso   1.00
C14    C     0.66375   0.35091   0.64202   0.00000  Uiso   1.00
C15    C     0.59555   0.39768   0.59635   0.00000  Uiso   1.00
C16    C     0.45043   0.47328   0.58063   0.00000  Uiso   1.00
C17    C     0.40948   0.50587   0.53792   0.00000  Uiso   1.00
C18    C     0.84622   0.40139   0.65699   0.00000  Uiso   1.00
C19    C     0.91186   0.48009   0.69227   0.00000  Uiso   1.00
C20    C     0.08193   0.51579   0.70062   0.00000  Uiso   1.00
C21    C     0.67650   0.20121   0.63991   0.00000  Uiso   1.00
C22    C     0.59948   0.11161   0.66083   0.00000  Uiso   1.00
C23    C     0.62671   0.97877   0.65480   0.00000  Uiso   1.00
H24    H     0.92745   0.24198   0.57386   0.00000  Uiso   1.00
H25    H     0.73341   0.35639   0.50750   0.00000  Uiso   1.00
H26    H     0.19476   0.36318   0.61912   0.00000  Uiso   1.00
H27    H     0.88243   0.99476   0.58769   0.00000  Uiso   1.00
H28    H     0.47392   0.50161   0.44542   0.00000  Uiso   1.00
H29    H     0.44673   0.51590   0.68078   0.00000  Uiso   1.00
H30    H     0.78813   0.73900   0.61450   0.00000  Uiso   1.00
H31    H     0.58538   0.38329   0.66228   0.00000  Uiso   1.00
H32    H     0.37256   0.50545   0.60078   0.00000  Uiso   1.00
H33    H     0.83392   0.51225   0.71240   0.00000  Uiso   1.00
H34    H     0.52159   0.14382   0.68096   0.00000  Uiso   1.00
H35    H     0.18105   0.62259   0.52112   0.00000  Uiso   1.00
H36    H     0.15386   0.63689   0.75649   0.00000  Uiso   1.00
H37    H     0.49525   0.85999   0.69020   0.00000  Uiso   1.00
O38    O     0.19369   0.63995   0.44122   0.00000  Uiso   1.00
O39    O     0.46998   0.65868   0.75001   0.00000  Uiso   1.00
O40    O     0.60590   0.63941   0.66304   0.00000  Uiso   1.00
N41    N     0.43418   0.51329   0.47167   0.00000  Uiso   1.00
N42    N     0.34369   0.52668   0.69172   0.00000  Uiso   1.00
N43    N     0.72799   0.80034   0.62976   0.00000  Uiso   1.00
N44    N     0.27659   0.57839   0.51241   0.00000  Uiso   1.00
N45    N     0.18610   0.59178   0.73246   0.00000  Uiso   1.00
N46    N     0.57040   0.86544   0.67049   0.00000  Uiso   1.00
C47    C     0.18462   0.92619   0.90303   0.00000  Uiso   1.00
C48    C     0.33645   0.00820   0.92726   0.00000  Uiso   1.00
C49    C     0.37421   0.04142   0.96987   0.00000  Uiso   1.00
C50    C     0.51887   0.11719   0.98609   0.00000  Uiso   1.00
C51    C     0.73891   0.23835   0.02759   0.00000  Uiso   1.00
C52    C     0.08908   0.01108   0.86577   0.00000  Uiso   1.00
C53    C     0.91884   0.04669   0.85667   0.00000  Uiso   1.00
C54    C     0.85526   0.12486   0.82113   0.00000  Uiso   1.00
C55    C     0.69121   0.25040   0.76714   0.00000  Uiso   1.00
C56    C     0.25836   0.81103   0.88390   0.00000  Uiso   1.00
C57    C     0.23042   0.67844   0.89004   0.00000  Uiso   1.00
C58    C     0.30934   0.58819   0.86975   0.00000  Uiso   1.00
C59    C     0.40813   0.40313   0.84391   0.00000  Uiso   1.00
C60    C     0.37440   0.00167   0.85610   0.00000  Uiso   1.00
C61    C     0.43953   0.04920   0.90177   0.00000  Uiso   1.00
C62    C     0.58418   0.12493   0.91793   0.00000  Uiso   1.00
C63    C     0.62215   0.15825   0.96055   0.00000  Uiso   1.00
C64    C     0.19215   0.05207   0.84028   0.00000  Uiso   1.00
C65    C     0.12881   0.13020   0.80474   0.00000  Uiso   1.00
C66    C     0.95853   0.16593   0.79559   0.00000  Uiso   1.00
C67    C     0.36145   0.85202   0.85841   0.00000  Uiso   1.00
C68    C     0.44041   0.76195   0.83811   0.00000  Uiso   1.00
C69    C     0.41260   0.62925   0.84421   0.00000  Uiso   1.00
H70    H     0.10436   0.89428   0.92288   0.00000  Uiso   1.00
H71    H     0.29439   0.00969   0.98958   0.00000  Uiso   1.00
H72    H     0.83910   0.01495   0.87640   0.00000  Uiso   1.00
H73    H     0.15065   0.64676   0.90977   0.00000  Uiso   1.00
H74    H     0.55051   0.15576   0.05229   0.00000  Uiso   1.00
H75    H     0.59048   0.16681   0.81363   0.00000  Uiso   1.00
H76    H     0.24743   0.39041   0.88399   0.00000  Uiso   1.00
H77    H     0.45465   0.03358   0.83625   0.00000  Uiso   1.00
H78    H     0.66393   0.15664   0.89820   0.00000  Uiso   1.00
H79    H     0.20862   0.16190   0.78502   0.00000  Uiso   1.00
H80    H     0.52017   0.79371   0.81838   0.00000  Uiso   1.00
H81    H     0.85043   0.27503   0.97812   0.00000  Uiso   1.00
H82    H     0.89039   0.28608   0.73946   0.00000  Uiso   1.00
H83    H     0.54735   0.50968   0.80981   0.00000  Uiso   1.00
O84    O     0.83178   0.29387   0.05752   0.00000  Uiso   1.00
O85    O     0.57225   0.30834   0.74440   0.00000  Uiso   1.00
O86    O     0.43416   0.28973   0.83671   0.00000  Uiso   1.00
N87    N     0.59240   0.16692   0.02633   0.00000  Uiso   1.00
N88    N     0.69483   0.17727   0.80321   0.00000  Uiso   1.00
N89    N     0.30899   0.45140   0.86897   0.00000  Uiso   1.00
N90    N     0.75378   0.23110   0.98642   0.00000  Uiso   1.00
N91    N     0.85621   0.24145   0.76330   0.00000  Uiso   1.00
N92    N     0.47037   0.51558   0.82906   0.00000  Uiso   1.00
C93    C     0.84907   0.72565   0.09411   0.00000  Uiso   1.00
C94    C     0.69620   0.64391   0.07032   0.00000  Uiso   1.00
C95    C     0.65547   0.61142   0.02763   0.00000  Uiso   1.00
C96    C     0.51033   0.53579   0.01186   0.00000  Uiso   1.00
C97    C     0.28832   0.41513   0.97096   0.00000  Uiso   1.00
C98    C     0.94687   0.64019   0.13097   0.00000  Uiso   1.00
C99    C     0.11690   0.60461   0.13927   0.00000  Uiso   1.00
C100   C     0.18277   0.52587   0.17455   0.00000  Uiso   1.00
C101   C     0.34996   0.39953   0.22782   0.00000  Uiso   1.00
C102   C     0.77716   0.84037   0.11388   0.00000  Uiso   1.00
C103   C     0.80453   0.97310   0.10783   0.00000  Uiso   1.00
C104   C     0.72755   0.06289   0.12873   0.00000  Uiso   1.00
C105   C     0.63124   0.24736   0.15548   0.00000  Uiso   1.00
C106   C     0.66375   0.64909   0.14202   0.00000  Uiso   1.00
C107   C     0.59555   0.60232   0.09635   0.00000  Uiso   1.00
C108   C     0.45043   0.52672   0.08063   0.00000  Uiso   1.00
C109   C     0.40948   0.49413   0.03792   0.00000  Uiso   1.00
C110   C     0.84622   0.59861   0.15699   0.00000  Uiso   1.00
C111   C     0.91186   0.51991   0.19227   0.00000  Uiso   1.00
C112   C     0.08193   0.48421   0.20062   0.00000  Uiso   1.00
C113   C     0.67650   0.79879   0.13991   0.00000  Uiso   1.00
C114   C     0.59948   0.88839   0.16083   0.00000  Uiso   1.00
C115   C     0.62671   0.02123   0.15480   0.00000  Uiso   1.00
H116   H     0.92745   0.75802   0.07386   0.00000  Uiso   1.00
H117   H     0.73341   0.64361   0.00750   0.00000  Uiso   1.00
H118   H     0.19476   0.63682   0.11912   0.00000  Uiso   1.00
H119   H     0.88243   0.00524   0.08769   0.00000  Uiso   1.00
H120   H     0.47392   0.49839   0.94542   0.00000  Uiso   1.00
H121   H     0.44673   0.48410   0.18078   0.00000  Uiso   1.00
H122   H     0.78813   0.26100   0.11450   0.00000  Uiso   1.00
H123   H     0.58538   0.61671   0.16228   0.00000  Uiso   1.00
H124   H     0.37256   0.49455   0.10078   0.00000  Uiso   1.00
H125   H     0.83392   0.48775   0.21240   0.00000  Uiso   1.00
H126   H     0.52159   0.85618   0.18096   0.00000  Uiso   1.00
H127   H     0.18105   0.37741   0.02112   0.00000  Uiso   1.00
H128   H     0.15386   0.36311   0.25649   0.00000  Uiso   1.00
H129   H     0.49525   0.14001   0.19020   0.00000  Uiso   1.00
O130   O     0.19369   0.36005   0.94122   0.00000  Uiso   1.00
O131   O     0.46998   0.34132   0.25001   0.00000  Uiso   1.00
O132   O     0.60590   0.36059   0.16304   0.00000  Uiso   1.00
N133   N     0.43418   0.48671   0.97167   0.00000  Uiso   1.00
N134   N     0.34369   0.47332   0.19172   0.00000  Uiso   1.00
N135   N     0.72799   0.19966   0.12976   0.00000  Uiso   1.00
N136   N     0.27659   0.42161   0.01241   0.00000  Uiso   1.00
N137   N     0.18610   0.40822   0.23246   0.00000  Uiso   1.00
N138   N     0.57040   0.13456   0.17049   0.00000  Uiso   1.00
C139   C     0.18462   0.07381   0.40303   0.00000  Uiso   1.00
C140   C     0.33645   0.99180   0.42726   0.00000  Uiso   1.00
C141   C     0.37421   0.95858   0.46987   0.00000  Uiso   1.00
C142   C     0.51887   0.88281   0.48609   0.00000  Uiso   1.00
C143   C     0.73891   0.76165   0.52759   0.00000  Uiso   1.00
C144   C     0.08908   0.98892   0.36577   0.00000  Uiso   1.00
C145   C     0.91884   0.95331   0.35667   0.00000  Uiso   1.00
C146   C     0.85526   0.87514   0.32113   0.00000  Uiso   1.00
C147   C     0.69121   0.74960   0.26714   0.00000  Uiso   1.00
C148   C     0.25836   0.18897   0.38390   0.00000  Uiso   1.00
C149   C     0.23042   0.32156   0.39004   0.00000  Uiso   1.00
C150   C     0.30934   0.41181   0.36975   0.00000  Uiso   1.00
C151   C     0.40813   0.59687   0.34391   0.00000  Uiso   1.00
C152   C     0.37440   0.99833   0.35610   0.00000  Uiso   1.00
C153   C     0.43953   0.95080   0.40177   0.00000  Uiso   1.00
C154   C     0.58418   0.87507   0.41793   0.00000  Uiso   1.00
C155   C     0.62215   0.84175   0.46055   0.00000  Uiso   1.00
C156   C     0.19215   0.94793   0.34028   0.00000  Uiso   1.00
C157   C     0.12881   0.86980   0.30474   0.00000  Uiso   1.00
C158   C     0.95853   0.83407   0.29559   0.00000  Uiso   1.00
C159   C     0.36145   0.14798   0.35841   0.00000  Uiso   1.00
C160   C     0.44041   0.23805   0.33811   0.00000  Uiso   1.00
C161   C     0.41260   0.37075   0.34421   0.00000  Uiso   1.00
H162   H     0.10436   0.10572   0.42288   0.00000  Uiso   1.00
H163   H     0.29439   0.99031   0.48958   0.00000  Uiso   1.00
H164   H     0.83910   0.98505   0.37640   0.00000  Uiso   1.00
H165   H     0.15065   0.35324   0.40977   0.00000  Uiso   1.00
H166   H     0.55051   0.84424   0.55229   0.00000  Uiso   1.00
H167   H     0.59048   0.83319   0.31363   0.00000  Uiso   1.00
H168   H     0.24743   0.60959   0.38399   0.00000  Uiso   1.00
H169   H     0.45465   0.96642   0.33625   0.00000  Uiso   1.00
H170   H     0.66393   0.84336   0.39820   0.00000  Uiso   1.00
H171   H     0.20862   0.83810   0.28502   0.00000  Uiso   1.00
H172   H     0.52017   0.20629   0.31838   0.00000  Uiso   1.00
H173   H     0.85043   0.72497   0.47812   0.00000  Uiso   1.00
H174   H     0.89039   0.71392   0.23946   0.00000  Uiso   1.00
H175   H     0.54735   0.49032   0.30981   0.00000  Uiso   1.00
O176   O     0.83178   0.70613   0.55752   0.00000  Uiso   1.00
O177   O     0.57225   0.69166   0.24440   0.00000  Uiso   1.00
O178   O     0.43416   0.71027   0.33671   0.00000  Uiso   1.00
N179   N     0.59240   0.83308   0.52633   0.00000  Uiso   1.00
N180   N     0.69483   0.82273   0.30321   0.00000  Uiso   1.00
N181   N     0.30899   0.54860   0.36897   0.00000  Uiso   1.00
N182   N     0.75378   0.76890   0.48642   0.00000  Uiso   1.00
N183   N     0.85621   0.75855   0.26330   0.00000  Uiso   1.00
N184   N     0.47037   0.48442   0.32906   0.00000  Uiso   1.00
