data_job_03970
_audit_creation_date              2018-12-19
_audit_creation_method            'Materials Studio'
_symmetry_space_group_name_H-M    'P1'
_symmetry_Int_Tables_number       1
_symmetry_cell_setting            triclinic
loop_
_symmetry_equiv_pos_as_xyz
  x,y,z
_cell_length_a                    12.4564
_cell_length_b                    8.8399
_cell_length_c                    36.9900
_cell_angle_alpha                 90.0000
_cell_angle_beta                  66.4171
_cell_angle_gamma                 90.0000
loop_
_atom_site_label
_atom_site_type_symbol
_atom_site_fract_x
_atom_site_fract_y
_atom_site_fract_z
_atom_site_U_iso_or_equiv
_atom_site_adp_type
_atom_site_occupancy
C1     C     0.15995   0.10707   0.55452   0.00000  Uiso   1.00
C2     C     0.07480   0.23444   0.55691   0.00000  Uiso   1.00
C3     C     0.00342   0.24120   0.53621   0.00000  Uiso   1.00
C4     C     0.93172   0.36725   0.54248   0.00000  Uiso   1.00
C5     C     0.79958   0.54757   0.54222   0.00000  Uiso   1.00
C6     C     0.27958   0.18150   0.54287   0.00000  Uiso   1.00
C7     C     0.38038   0.14372   0.51036   0.00000  Uiso   1.00
C8     C     0.48106   0.22520   0.50482   0.00000  Uiso   1.00
C9     C     0.66687   0.32323   0.48278   0.00000  Uiso   1.00
C10    C     0.12519   0.05045   0.59664   0.00000  Uiso   1.00
C11    C     0.09620   0.90248   0.60933   0.00000  Uiso   1.00
C12    C     0.06691   0.87362   0.64905   0.00000  Uiso   1.00
C13    C     0.01300   0.76819   0.71048   0.00000  Uiso   1.00
C14    C     0.15952   0.31892   0.60249   0.00000  Uiso   1.00
C15    C     0.07457   0.34951   0.58297   0.00000  Uiso   1.00
C16    C     0.00295   0.47559   0.58927   0.00000  Uiso   1.00
C17    C     0.93148   0.48253   0.56858   0.00000  Uiso   1.00
C18    C     0.27935   0.29656   0.56893   0.00000  Uiso   1.00
C19    C     0.37991   0.37811   0.56343   0.00000  Uiso   1.00
C20    C     0.48083   0.34047   0.53092   0.00000  Uiso   1.00
C21    C     0.12495   0.16552   0.62269   0.00000  Uiso   1.00
C22    C     0.09572   0.13688   0.66240   0.00000  Uiso   1.00
C23    C     0.06668   0.98890   0.67515   0.00000  Uiso   1.00
H24    H     0.16014   0.01748   0.53423   0.00000  Uiso   1.00
H25    H     0.00364   0.15213   0.51604   0.00000  Uiso   1.00
H26    H     0.38054   0.05466   0.49021   0.00000  Uiso   1.00
H27    H     0.09639   0.81347   0.58916   0.00000  Uiso   1.00
H28    H     0.83006   0.35218   0.50735   0.00000  Uiso   1.00
H29    H     0.62478   0.14662   0.45288   0.00000  Uiso   1.00
H30    H     0.02560   0.63802   0.66154   0.00000  Uiso   1.00
H31    H     0.15934   0.40851   0.62277   0.00000  Uiso   1.00
H32    H     0.00279   0.56462   0.60944   0.00000  Uiso   1.00
H33    H     0.37969   0.46714   0.58360   0.00000  Uiso   1.00
H34    H     0.09555   0.22595   0.68255   0.00000  Uiso   1.00
H35    H     0.82937   0.68698   0.58315   0.00000  Uiso   1.00
H36    H     0.62410   0.48141   0.52868   0.00000  Uiso   1.00
H37    H     0.02492   0.97281   0.73734   0.00000  Uiso   1.00
O38    O     0.72677   0.61524   0.53487   0.00000  Uiso   1.00
O39    O     0.76942   0.34553   0.46342   0.00000  Uiso   1.00
O40    O     0.98331   0.67826   0.73717   0.00000  Uiso   1.00
N41    N     0.85136   0.40954   0.52703   0.00000  Uiso   1.00
N42    N     0.59438   0.21737   0.47610   0.00000  Uiso   1.00
N43    N     0.03423   0.74186   0.67117   0.00000  Uiso   1.00
N44    N     0.85099   0.58969   0.56782   0.00000  Uiso   1.00
N45    N     0.59401   0.39751   0.51689   0.00000  Uiso   1.00
N46    N     0.03386   0.92201   0.71196   0.00000  Uiso   1.00
C47    C     0.84005   0.60707   0.94548   0.00000  Uiso   1.00
C48    C     0.92520   0.73444   0.94309   0.00000  Uiso   1.00
C49    C     0.99658   0.74120   0.96379   0.00000  Uiso   1.00
C50    C     0.06828   0.86725   0.95752   0.00000  Uiso   1.00
C51    C     0.20042   0.04757   0.95778   0.00000  Uiso   1.00
C52    C     0.72042   0.68150   0.95713   0.00000  Uiso   1.00
C53    C     0.61962   0.64372   0.98964   0.00000  Uiso   1.00
C54    C     0.51894   0.72520   0.99518   0.00000  Uiso   1.00
C55    C     0.33313   0.82323   0.01722   0.00000  Uiso   1.00
C56    C     0.87481   0.55045   0.90336   0.00000  Uiso   1.00
C57    C     0.90380   0.40248   0.89067   0.00000  Uiso   1.00
C58    C     0.93309   0.37362   0.85095   0.00000  Uiso   1.00
C59    C     0.98700   0.26819   0.78952   0.00000  Uiso   1.00
C60    C     0.84048   0.81892   0.89751   0.00000  Uiso   1.00
C61    C     0.92543   0.84951   0.91703   0.00000  Uiso   1.00
C62    C     0.99705   0.97559   0.91073   0.00000  Uiso   1.00
C63    C     0.06852   0.98253   0.93142   0.00000  Uiso   1.00
C64    C     0.72065   0.79656   0.93107   0.00000  Uiso   1.00
C65    C     0.62009   0.87811   0.93657   0.00000  Uiso   1.00
C66    C     0.51917   0.84047   0.96908   0.00000  Uiso   1.00
C67    C     0.87505   0.66552   0.87731   0.00000  Uiso   1.00
C68    C     0.90428   0.63688   0.83760   0.00000  Uiso   1.00
C69    C     0.93332   0.48890   0.82485   0.00000  Uiso   1.00
H70    H     0.83986   0.51748   0.96577   0.00000  Uiso   1.00
H71    H     0.99636   0.65213   0.98396   0.00000  Uiso   1.00
H72    H     0.61946   0.55466   0.00979   0.00000  Uiso   1.00
H73    H     0.90361   0.31347   0.91084   0.00000  Uiso   1.00
H74    H     0.16994   0.85218   0.99265   0.00000  Uiso   1.00
H75    H     0.37522   0.64662   0.04712   0.00000  Uiso   1.00
H76    H     0.97440   0.13802   0.83846   0.00000  Uiso   1.00
H77    H     0.84066   0.90851   0.87723   0.00000  Uiso   1.00
H78    H     0.99721   0.06462   0.89056   0.00000  Uiso   1.00
H79    H     0.62031   0.96714   0.91640   0.00000  Uiso   1.00
H80    H     0.90445   0.72595   0.81745   0.00000  Uiso   1.00
H81    H     0.17063   0.18698   0.91685   0.00000  Uiso   1.00
H82    H     0.37590   0.98141   0.97132   0.00000  Uiso   1.00
H83    H     0.97508   0.47281   0.76266   0.00000  Uiso   1.00
O84    O     0.27323   0.11524   0.96513   0.00000  Uiso   1.00
O85    O     0.23058   0.84553   0.03658   0.00000  Uiso   1.00
O86    O     0.01669   0.17826   0.76283   0.00000  Uiso   1.00
N87    N     0.14864   0.90954   0.97297   0.00000  Uiso   1.00
N88    N     0.40562   0.71737   0.02390   0.00000  Uiso   1.00
N89    N     0.96577   0.24186   0.82883   0.00000  Uiso   1.00
N90    N     0.14901   0.08969   0.93218   0.00000  Uiso   1.00
N91    N     0.40599   0.89751   0.98311   0.00000  Uiso   1.00
N92    N     0.96614   0.42201   0.78804   0.00000  Uiso   1.00
C93    C     0.84005   0.89293   0.44548   0.00000  Uiso   1.00
C94    C     0.92520   0.76556   0.44309   0.00000  Uiso   1.00
C95    C     0.99658   0.75880   0.46379   0.00000  Uiso   1.00
C96    C     0.06828   0.63275   0.45752   0.00000  Uiso   1.00
C97    C     0.20042   0.45243   0.45778   0.00000  Uiso   1.00
C98    C     0.72042   0.81850   0.45713   0.00000  Uiso   1.00
C99    C     0.61962   0.85628   0.48964   0.00000  Uiso   1.00
C100   C     0.51894   0.77480   0.49518   0.00000  Uiso   1.00
C101   C     0.33313   0.67677   0.51722   0.00000  Uiso   1.00
C102   C     0.87481   0.94955   0.40336   0.00000  Uiso   1.00
C103   C     0.90380   0.09752   0.39067   0.00000  Uiso   1.00
C104   C     0.93309   0.12638   0.35095   0.00000  Uiso   1.00
C105   C     0.98700   0.23181   0.28952   0.00000  Uiso   1.00
C106   C     0.84048   0.68108   0.39751   0.00000  Uiso   1.00
C107   C     0.92543   0.65049   0.41703   0.00000  Uiso   1.00
C108   C     0.99705   0.52441   0.41073   0.00000  Uiso   1.00
C109   C     0.06852   0.51747   0.43142   0.00000  Uiso   1.00
C110   C     0.72065   0.70344   0.43107   0.00000  Uiso   1.00
C111   C     0.62009   0.62189   0.43657   0.00000  Uiso   1.00
C112   C     0.51917   0.65953   0.46908   0.00000  Uiso   1.00
C113   C     0.87505   0.83448   0.37731   0.00000  Uiso   1.00
C114   C     0.90428   0.86312   0.33760   0.00000  Uiso   1.00
C115   C     0.93332   0.01110   0.32485   0.00000  Uiso   1.00
H116   H     0.83986   0.98252   0.46577   0.00000  Uiso   1.00
H117   H     0.99636   0.84787   0.48396   0.00000  Uiso   1.00
H118   H     0.61946   0.94534   0.50979   0.00000  Uiso   1.00
H119   H     0.90361   0.18653   0.41084   0.00000  Uiso   1.00
H120   H     0.16994   0.64782   0.49265   0.00000  Uiso   1.00
H121   H     0.37522   0.85338   0.54712   0.00000  Uiso   1.00
H122   H     0.97440   0.36198   0.33846   0.00000  Uiso   1.00
H123   H     0.84066   0.59149   0.37723   0.00000  Uiso   1.00
H124   H     0.99721   0.43538   0.39056   0.00000  Uiso   1.00
H125   H     0.62031   0.53286   0.41640   0.00000  Uiso   1.00
H126   H     0.90445   0.77405   0.31745   0.00000  Uiso   1.00
H127   H     0.17063   0.31302   0.41685   0.00000  Uiso   1.00
H128   H     0.37590   0.51859   0.47132   0.00000  Uiso   1.00
H129   H     0.97508   0.02719   0.26266   0.00000  Uiso   1.00
O130   O     0.27323   0.38476   0.46513   0.00000  Uiso   1.00
O131   O     0.23058   0.65447   0.53658   0.00000  Uiso   1.00
O132   O     0.01669   0.32174   0.26283   0.00000  Uiso   1.00
N133   N     0.14864   0.59046   0.47297   0.00000  Uiso   1.00
N134   N     0.40562   0.78263   0.52390   0.00000  Uiso   1.00
N135   N     0.96577   0.25814   0.32883   0.00000  Uiso   1.00
N136   N     0.14901   0.41031   0.43218   0.00000  Uiso   1.00
N137   N     0.40599   0.60249   0.48311   0.00000  Uiso   1.00
N138   N     0.96614   0.07799   0.28804   0.00000  Uiso   1.00
C139   C     0.15995   0.39293   0.05452   0.00000  Uiso   1.00
C140   C     0.07480   0.26556   0.05691   0.00000  Uiso   1.00
C141   C     0.00342   0.25880   0.03621   0.00000  Uiso   1.00
C142   C     0.93172   0.13275   0.04248   0.00000  Uiso   1.00
C143   C     0.79958   0.95243   0.04222   0.00000  Uiso   1.00
C144   C     0.27958   0.31850   0.04287   0.00000  Uiso   1.00
C145   C     0.38038   0.35628   0.01036   0.00000  Uiso   1.00
C146   C     0.48106   0.27480   0.00482   0.00000  Uiso   1.00
C147   C     0.66687   0.17677   0.98278   0.00000  Uiso   1.00
C148   C     0.12519   0.44955   0.09664   0.00000  Uiso   1.00
C149   C     0.09620   0.59752   0.10933   0.00000  Uiso   1.00
C150   C     0.06691   0.62638   0.14905   0.00000  Uiso   1.00
C151   C     0.01300   0.73181   0.21048   0.00000  Uiso   1.00
C152   C     0.15952   0.18108   0.10249   0.00000  Uiso   1.00
C153   C     0.07457   0.15049   0.08297   0.00000  Uiso   1.00
C154   C     0.00295   0.02441   0.08927   0.00000  Uiso   1.00
C155   C     0.93148   0.01747   0.06858   0.00000  Uiso   1.00
C156   C     0.27935   0.20344   0.06893   0.00000  Uiso   1.00
C157   C     0.37991   0.12189   0.06343   0.00000  Uiso   1.00
C158   C     0.48083   0.15953   0.03092   0.00000  Uiso   1.00
C159   C     0.12495   0.33448   0.12269   0.00000  Uiso   1.00
C160   C     0.09572   0.36312   0.16240   0.00000  Uiso   1.00
C161   C     0.06668   0.51110   0.17515   0.00000  Uiso   1.00
H162   H     0.16014   0.48252   0.03423   0.00000  Uiso   1.00
H163   H     0.00364   0.34787   0.01604   0.00000  Uiso   1.00
H164   H     0.38054   0.44534   0.99021   0.00000  Uiso   1.00
H165   H     0.09639   0.68653   0.08916   0.00000  Uiso   1.00
H166   H     0.83006   0.14782   0.00735   0.00000  Uiso   1.00
H167   H     0.62478   0.35338   0.95288   0.00000  Uiso   1.00
H168   H     0.02560   0.86198   0.16154   0.00000  Uiso   1.00
H169   H     0.15934   0.09149   0.12277   0.00000  Uiso   1.00
H170   H     0.00279   0.93538   0.10944   0.00000  Uiso   1.00
H171   H     0.37969   0.03286   0.08360   0.00000  Uiso   1.00
H172   H     0.09555   0.27405   0.18255   0.00000  Uiso   1.00
H173   H     0.82937   0.81302   0.08315   0.00000  Uiso   1.00
H174   H     0.62410   0.01859   0.02868   0.00000  Uiso   1.00
H175   H     0.02492   0.52719   0.23734   0.00000  Uiso   1.00
O176   O     0.72677   0.88476   0.03487   0.00000  Uiso   1.00
O177   O     0.76942   0.15447   0.96342   0.00000  Uiso   1.00
O178   O     0.98331   0.82174   0.23717   0.00000  Uiso   1.00
N179   N     0.85136   0.09046   0.02703   0.00000  Uiso   1.00
N180   N     0.59438   0.28263   0.97610   0.00000  Uiso   1.00
N181   N     0.03423   0.75814   0.17117   0.00000  Uiso   1.00
N182   N     0.85099   0.91031   0.06782   0.00000  Uiso   1.00
N183   N     0.59401   0.10249   0.01689   0.00000  Uiso   1.00
N184   N     0.03386   0.57799   0.21196   0.00000  Uiso   1.00
