data_job_04617
_audit_creation_date              2018-12-19
_audit_creation_method            'Materials Studio'
_symmetry_space_group_name_H-M    'P1'
_symmetry_Int_Tables_number       1
_symmetry_cell_setting            triclinic
loop_
_symmetry_equiv_pos_as_xyz
  x,y,z
_cell_length_a                    11.4762
_cell_length_b                    22.2296
_cell_length_c                    11.3459
_cell_angle_alpha                 90.0000
_cell_angle_beta                  66.7282
_cell_angle_gamma                 90.0000
loop_
_atom_site_label
_atom_site_type_symbol
_atom_site_fract_x
_atom_site_fract_y
_atom_site_fract_z
_atom_site_U_iso_or_equiv
_atom_site_adp_type
_atom_site_occupancy
C1     C     0.08272   0.41843   0.38490   0.00000  Uiso   1.00
C2     C     0.16668   0.39012   0.25699   0.00000  Uiso   1.00
C3     C     0.17535   0.40871   0.13704   0.00000  Uiso   1.00
C4     C     0.25762   0.37693   0.03168   0.00000  Uiso   1.00
C5     C     0.37713   0.34036   0.83090   0.00000  Uiso   1.00
C6     C     0.99983   0.36772   0.46561   0.00000  Uiso   1.00
C7     C     0.86822   0.36749   0.52107   0.00000  Uiso   1.00
C8     C     0.81004   0.31685   0.59134   0.00000  Uiso   1.00
C9     C     0.67052   0.24553   0.71452   0.00000  Uiso   1.00
C10    C     0.17120   0.43610   0.45007   0.00000  Uiso   1.00
C11    C     0.18367   0.49334   0.49250   0.00000  Uiso   1.00
C12    C     0.26975   0.50027   0.54971   0.00000  Uiso   1.00
C13    C     0.39632   0.53510   0.64877   0.00000  Uiso   1.00
C14    C     0.21340   0.32893   0.41110   0.00000  Uiso   1.00
C15    C     0.23765   0.34151   0.27123   0.00000  Uiso   1.00
C16    C     0.31993   0.30970   0.16602   0.00000  Uiso   1.00
C17    C     0.32873   0.32824   0.04593   0.00000  Uiso   1.00
C18    C     0.07080   0.31911   0.47984   0.00000  Uiso   1.00
C19    C     0.01280   0.26847   0.55005   0.00000  Uiso   1.00
C20    C     0.88114   0.26815   0.60559   0.00000  Uiso   1.00
C21    C     0.24219   0.38749   0.46430   0.00000  Uiso   1.00
C22    C     0.32826   0.39432   0.52147   0.00000  Uiso   1.00
C23    C     0.34086   0.45157   0.56397   0.00000  Uiso   1.00
H24    H     0.02746   0.45627   0.37383   0.00000  Uiso   1.00
H25    H     0.12040   0.44633   0.12606   0.00000  Uiso   1.00
H26    H     0.81332   0.40511   0.51005   0.00000  Uiso   1.00
H27    H     0.12873   0.53095   0.48147   0.00000  Uiso   1.00
H28    H     0.25471   0.41386   0.85765   0.00000  Uiso   1.00
H29    H     0.60722   0.32696   0.66733   0.00000  Uiso   1.00
H30    H     0.27231   0.59231   0.60708   0.00000  Uiso   1.00
H31    H     0.26866   0.29108   0.42218   0.00000  Uiso   1.00
H32    H     0.37485   0.27208   0.17706   0.00000  Uiso   1.00
H33    H     0.06776   0.23086   0.56105   0.00000  Uiso   1.00
H34    H     0.38317   0.35670   0.53247   0.00000  Uiso   1.00
H35    H     0.46122   0.27243   0.89904   0.00000  Uiso   1.00
H36    H     0.81373   0.18553   0.70873   0.00000  Uiso   1.00
H37    H     0.47882   0.45088   0.64847   0.00000  Uiso   1.00
O38    O     0.42343   0.33361   0.71623   0.00000  Uiso   1.00
O39    O     0.57395   0.21961   0.77852   0.00000  Uiso   1.00
O40    O     0.44654   0.56774   0.69946   0.00000  Uiso   1.00
N41    N     0.28876   0.38319   0.90103   0.00000  Uiso   1.00
N42    N     0.68339   0.30194   0.65802   0.00000  Uiso   1.00
N43    N     0.30517   0.55001   0.60171   0.00000  Uiso   1.00
N44    N     0.39989   0.30709   0.92330   0.00000  Uiso   1.00
N45    N     0.79452   0.22584   0.68029   0.00000  Uiso   1.00
N46    N     0.41630   0.47391   0.62399   0.00000  Uiso   1.00
C47    C     0.95849   0.58102   0.02113   0.00000  Uiso   1.00
C48    C     0.87514   0.60955   0.14901   0.00000  Uiso   1.00
C49    C     0.86723   0.59123   0.26887   0.00000  Uiso   1.00
C50    C     0.78543   0.62318   0.37422   0.00000  Uiso   1.00
C51    C     0.66691   0.66010   0.57494   0.00000  Uiso   1.00
C52    C     0.04106   0.63162   0.93963   0.00000  Uiso   1.00
C53    C     0.17265   0.63185   0.88343   0.00000  Uiso   1.00
C54    C     0.23051   0.68237   0.81251   0.00000  Uiso   1.00
C55    C     0.36958   0.75354   0.68808   0.00000  Uiso   1.00
C56    C     0.86935   0.56312   0.95688   0.00000  Uiso   1.00
C57    C     0.85659   0.50576   0.91516   0.00000  Uiso   1.00
C58    C     0.76991   0.49862   0.85873   0.00000  Uiso   1.00
C59    C     0.64237   0.46343   0.76109   0.00000  Uiso   1.00
C60    C     0.82729   0.67033   0.99507   0.00000  Uiso   1.00
C61    C     0.80389   0.65806   0.13485   0.00000  Uiso   1.00
C62    C     0.72207   0.69004   0.24004   0.00000  Uiso   1.00
C63    C     0.71404   0.67177   0.36004   0.00000  Uiso   1.00
C64    C     0.96980   0.68012   0.92547   0.00000  Uiso   1.00
C65    C     0.02749   0.73066   0.85461   0.00000  Uiso   1.00
C66    C     0.15912   0.73097   0.79833   0.00000  Uiso   1.00
C67    C     0.79809   0.61163   0.94273   0.00000  Uiso   1.00
C68    C     0.71142   0.60457   0.88634   0.00000  Uiso   1.00
C69    C     0.69852   0.54721   0.84455   0.00000  Uiso   1.00
H70    H     0.01397   0.54326   0.03214   0.00000  Uiso   1.00
H71    H     0.92241   0.55369   0.27978   0.00000  Uiso   1.00
H72    H     0.22777   0.59430   0.89439   0.00000  Uiso   1.00
H73    H     0.91175   0.46823   0.92613   0.00000  Uiso   1.00
H74    H     0.78949   0.58666   0.54810   0.00000  Uiso   1.00
H75    H     0.43337   0.67228   0.73545   0.00000  Uiso   1.00
H76    H     0.76699   0.40644   0.80236   0.00000  Uiso   1.00
H77    H     0.77180   0.70810   0.98405   0.00000  Uiso   1.00
H78    H     0.66694   0.72758   0.22906   0.00000  Uiso   1.00
H79    H     0.97231   0.76819   0.84367   0.00000  Uiso   1.00
H80    H     0.65629   0.64212   0.87540   0.00000  Uiso   1.00
H81    H     0.58215   0.72779   0.50693   0.00000  Uiso   1.00
H82    H     0.22603   0.81341   0.69427   0.00000  Uiso   1.00
H83    H     0.55964   0.54758   0.76119   0.00000  Uiso   1.00
O84    O     0.62124   0.66708   0.68956   0.00000  Uiso   1.00
O85    O     0.46598   0.77940   0.62337   0.00000  Uiso   1.00
O86    O     0.59170   0.43063   0.71117   0.00000  Uiso   1.00
N87    N     0.75507   0.61719   0.50479   0.00000  Uiso   1.00
N88    N     0.35705   0.69725   0.74502   0.00000  Uiso   1.00
N89    N     0.73407   0.44872   0.80755   0.00000  Uiso   1.00
N90    N     0.64350   0.69314   0.48264   0.00000  Uiso   1.00
N91    N     0.24548   0.77319   0.72287   0.00000  Uiso   1.00
N92    N     0.62250   0.52466   0.78540   0.00000  Uiso   1.00
C93    C     0.91728   0.91843   0.61510   0.00000  Uiso   1.00
C94    C     0.83332   0.89012   0.74301   0.00000  Uiso   1.00
C95    C     0.82465   0.90871   0.86296   0.00000  Uiso   1.00
C96    C     0.74238   0.87693   0.96832   0.00000  Uiso   1.00
C97    C     0.62287   0.84036   0.16910   0.00000  Uiso   1.00
C98    C     0.00017   0.86772   0.53439   0.00000  Uiso   1.00
C99    C     0.13178   0.86749   0.47893   0.00000  Uiso   1.00
C100   C     0.18996   0.81685   0.40866   0.00000  Uiso   1.00
C101   C     0.32948   0.74553   0.28548   0.00000  Uiso   1.00
C102   C     0.82880   0.93610   0.54993   0.00000  Uiso   1.00
C103   C     0.81633   0.99334   0.50750   0.00000  Uiso   1.00
C104   C     0.73025   0.00027   0.45029   0.00000  Uiso   1.00
C105   C     0.60368   0.03510   0.35123   0.00000  Uiso   1.00
C106   C     0.78660   0.82893   0.58890   0.00000  Uiso   1.00
C107   C     0.76235   0.84151   0.72877   0.00000  Uiso   1.00
C108   C     0.68007   0.80970   0.83398   0.00000  Uiso   1.00
C109   C     0.67127   0.82824   0.95407   0.00000  Uiso   1.00
C110   C     0.92920   0.81911   0.52016   0.00000  Uiso   1.00
C111   C     0.98720   0.76847   0.44995   0.00000  Uiso   1.00
C112   C     0.11886   0.76815   0.39441   0.00000  Uiso   1.00
C113   C     0.75781   0.88749   0.53570   0.00000  Uiso   1.00
C114   C     0.67174   0.89432   0.47853   0.00000  Uiso   1.00
C115   C     0.65914   0.95157   0.43603   0.00000  Uiso   1.00
H116   H     0.97254   0.95627   0.62617   0.00000  Uiso   1.00
H117   H     0.87960   0.94633   0.87394   0.00000  Uiso   1.00
H118   H     0.18668   0.90511   0.48995   0.00000  Uiso   1.00
H119   H     0.87127   0.03095   0.51853   0.00000  Uiso   1.00
H120   H     0.74529   0.91386   0.14235   0.00000  Uiso   1.00
H121   H     0.39278   0.82696   0.33267   0.00000  Uiso   1.00
H122   H     0.72769   0.09231   0.39292   0.00000  Uiso   1.00
H123   H     0.73134   0.79108   0.57782   0.00000  Uiso   1.00
H124   H     0.62515   0.77208   0.82294   0.00000  Uiso   1.00
H125   H     0.93224   0.73086   0.43895   0.00000  Uiso   1.00
H126   H     0.61683   0.85670   0.46753   0.00000  Uiso   1.00
H127   H     0.53878   0.77243   0.10096   0.00000  Uiso   1.00
H128   H     0.18627   0.68553   0.29127   0.00000  Uiso   1.00
H129   H     0.52118   0.95088   0.35153   0.00000  Uiso   1.00
O130   O     0.57657   0.83361   0.28377   0.00000  Uiso   1.00
O131   O     0.42605   0.71961   0.22148   0.00000  Uiso   1.00
O132   O     0.55346   0.06774   0.30054   0.00000  Uiso   1.00
N133   N     0.71124   0.88319   0.09897   0.00000  Uiso   1.00
N134   N     0.31661   0.80194   0.34198   0.00000  Uiso   1.00
N135   N     0.69483   0.05001   0.39829   0.00000  Uiso   1.00
N136   N     0.60011   0.80709   0.07670   0.00000  Uiso   1.00
N137   N     0.20548   0.72584   0.31971   0.00000  Uiso   1.00
N138   N     0.58370   0.97391   0.37601   0.00000  Uiso   1.00
C139   C     0.04151   0.08102   0.97887   0.00000  Uiso   1.00
C140   C     0.12486   0.10955   0.85099   0.00000  Uiso   1.00
C141   C     0.13277   0.09123   0.73113   0.00000  Uiso   1.00
C142   C     0.21457   0.12318   0.62578   0.00000  Uiso   1.00
C143   C     0.33309   0.16010   0.42506   0.00000  Uiso   1.00
C144   C     0.95894   0.13162   0.06037   0.00000  Uiso   1.00
C145   C     0.82735   0.13185   0.11657   0.00000  Uiso   1.00
C146   C     0.76949   0.18237   0.18749   0.00000  Uiso   1.00
C147   C     0.63042   0.25354   0.31192   0.00000  Uiso   1.00
C148   C     0.13065   0.06312   0.04312   0.00000  Uiso   1.00
C149   C     0.14341   0.00576   0.08484   0.00000  Uiso   1.00
C150   C     0.23009   0.99862   0.14127   0.00000  Uiso   1.00
C151   C     0.35763   0.96343   0.23891   0.00000  Uiso   1.00
C152   C     0.17271   0.17033   0.00493   0.00000  Uiso   1.00
C153   C     0.19611   0.15806   0.86515   0.00000  Uiso   1.00
C154   C     0.27793   0.19004   0.75996   0.00000  Uiso   1.00
C155   C     0.28596   0.17177   0.63996   0.00000  Uiso   1.00
C156   C     0.03020   0.18012   0.07453   0.00000  Uiso   1.00
C157   C     0.97251   0.23066   0.14539   0.00000  Uiso   1.00
C158   C     0.84088   0.23097   0.20167   0.00000  Uiso   1.00
C159   C     0.20191   0.11163   0.05727   0.00000  Uiso   1.00
C160   C     0.28858   0.10457   0.11366   0.00000  Uiso   1.00
C161   C     0.30148   0.04721   0.15545   0.00000  Uiso   1.00
H162   H     0.98603   0.04326   0.96786   0.00000  Uiso   1.00
H163   H     0.07759   0.05369   0.72022   0.00000  Uiso   1.00
H164   H     0.77223   0.09430   0.10561   0.00000  Uiso   1.00
H165   H     0.08825   0.96823   0.07387   0.00000  Uiso   1.00
H166   H     0.21051   0.08666   0.45190   0.00000  Uiso   1.00
H167   H     0.56663   0.17228   0.26455   0.00000  Uiso   1.00
H168   H     0.23301   0.90644   0.19764   0.00000  Uiso   1.00
H169   H     0.22820   0.20810   0.01595   0.00000  Uiso   1.00
H170   H     0.33306   0.22758   0.77094   0.00000  Uiso   1.00
H171   H     0.02769   0.26819   0.15633   0.00000  Uiso   1.00
H172   H     0.34371   0.14212   0.12460   0.00000  Uiso   1.00
H173   H     0.41785   0.22779   0.49307   0.00000  Uiso   1.00
H174   H     0.77397   0.31341   0.30573   0.00000  Uiso   1.00
H175   H     0.44036   0.04758   0.23881   0.00000  Uiso   1.00
O176   O     0.37876   0.16708   0.31044   0.00000  Uiso   1.00
O177   O     0.53402   0.27940   0.37663   0.00000  Uiso   1.00
O178   O     0.40830   0.93063   0.28883   0.00000  Uiso   1.00
N179   N     0.24493   0.11719   0.49521   0.00000  Uiso   1.00
N180   N     0.64295   0.19725   0.25498   0.00000  Uiso   1.00
N181   N     0.26593   0.94872   0.19245   0.00000  Uiso   1.00
N182   N     0.35650   0.19314   0.51736   0.00000  Uiso   1.00
N183   N     0.75452   0.27319   0.27713   0.00000  Uiso   1.00
N184   N     0.37750   0.02466   0.21460   0.00000  Uiso   1.00
