data_job_02850
_audit_creation_date              2018-12-19
_audit_creation_method            'Materials Studio'
_symmetry_space_group_name_H-M    'P1'
_symmetry_Int_Tables_number       1
_symmetry_cell_setting            triclinic
loop_
_symmetry_equiv_pos_as_xyz
  x,y,z
_cell_length_a                    13.8977
_cell_length_b                    11.4507
_cell_length_c                    16.9266
_cell_angle_alpha                 90.0000
_cell_angle_beta                  57.8782
_cell_angle_gamma                 90.0000
loop_
_atom_site_label
_atom_site_type_symbol
_atom_site_fract_x
_atom_site_fract_y
_atom_site_fract_z
_atom_site_U_iso_or_equiv
_atom_site_adp_type
_atom_site_occupancy
C1     C     0.28377   0.72136   0.01324   0.00000  Uiso   1.00
C2     C     0.28533   0.85174   0.03090   0.00000  Uiso   1.00
C3     C     0.37528   0.92724   0.97747   0.00000  Uiso   1.00
C4     C     0.36000   0.04339   0.00514   0.00000  Uiso   1.00
C5     C     0.37791   0.23987   0.02068   0.00000  Uiso   1.00
C6     C     0.25661   0.66023   0.10288   0.00000  Uiso   1.00
C7     C     0.32240   0.57471   0.10997   0.00000  Uiso   1.00
C8     C     0.28291   0.52964   0.19824   0.00000  Uiso   1.00
C9     C     0.25618   0.42873   0.32551   0.00000  Uiso   1.00
C10    C     0.18114   0.70146   0.00474   0.00000  Uiso   1.00
C11    C     0.18347   0.65058   0.92932   0.00000  Uiso   1.00
C12    C     0.08044   0.64019   0.93497   0.00000  Uiso   1.00
C13    C     0.93654   0.60331   0.90987   0.00000  Uiso   1.00
C14    C     0.09666   0.79337   0.15739   0.00000  Uiso   1.00
C15    C     0.18370   0.89084   0.10919   0.00000  Uiso   1.00
C16    C     0.16827   0.00691   0.13695   0.00000  Uiso   1.00
C17    C     0.25818   0.08258   0.08357   0.00000  Uiso   1.00
C18    C     0.15498   0.69934   0.18117   0.00000  Uiso   1.00
C19    C     0.11538   0.65437   0.26945   0.00000  Uiso   1.00
C20    C     0.18110   0.56882   0.27667   0.00000  Uiso   1.00
C21    C     0.07951   0.74057   0.08303   0.00000  Uiso   1.00
C22    C     0.97646   0.73025   0.08880   0.00000  Uiso   1.00
C23    C     0.97863   0.67937   0.01341   0.00000  Uiso   1.00
H24    H     0.36289   0.69091   0.95229   0.00000  Uiso   1.00
H25    H     0.45393   0.89694   0.91689   0.00000  Uiso   1.00
H26    H     0.40104   0.54445   0.04937   0.00000  Uiso   1.00
H27    H     0.26213   0.62032   0.86875   0.00000  Uiso   1.00
H28    H     0.51005   0.14261   0.91219   0.00000  Uiso   1.00
H29    H     0.39851   0.39934   0.19152   0.00000  Uiso   1.00
H30    H     0.10561   0.55932   0.81065   0.00000  Uiso   1.00
H31    H     0.01753   0.82382   0.21834   0.00000  Uiso   1.00
H32    H     0.08961   0.03715   0.19754   0.00000  Uiso   1.00
H33    H     0.03673   0.68466   0.33002   0.00000  Uiso   1.00
H34    H     0.89783   0.76053   0.14940   0.00000  Uiso   1.00
H35    H     0.21437   0.25641   0.13998   0.00000  Uiso   1.00
H36    H     0.10283   0.51313   0.41930   0.00000  Uiso   1.00
H37    H     0.80992   0.67312   0.03843   0.00000  Uiso   1.00
O38    O     0.41587   0.33744   0.00762   0.00000  Uiso   1.00
O39    O     0.26953   0.36228   0.37408   0.00000  Uiso   1.00
O40    O     0.88525   0.57218   0.87438   0.00000  Uiso   1.00
N41    N     0.43056   0.14012   0.96865   0.00000  Uiso   1.00
N42    N     0.32629   0.44522   0.22980   0.00000  Uiso   1.00
N43    N     0.05244   0.59476   0.87373   0.00000  Uiso   1.00
N44    N     0.27145   0.20135   0.09122   0.00000  Uiso   1.00
N45    N     0.16718   0.50645   0.35237   0.00000  Uiso   1.00
N46    N     0.89334   0.65599   0.99630   0.00000  Uiso   1.00
C47    C     0.71623   0.22136   0.48676   0.00000  Uiso   1.00
C48    C     0.71467   0.35174   0.46910   0.00000  Uiso   1.00
C49    C     0.62472   0.42724   0.52253   0.00000  Uiso   1.00
C50    C     0.64000   0.54339   0.49486   0.00000  Uiso   1.00
C51    C     0.62209   0.73987   0.47932   0.00000  Uiso   1.00
C52    C     0.74339   0.16023   0.39712   0.00000  Uiso   1.00
C53    C     0.67760   0.07471   0.39003   0.00000  Uiso   1.00
C54    C     0.71709   0.02964   0.30176   0.00000  Uiso   1.00
C55    C     0.74382   0.92873   0.17449   0.00000  Uiso   1.00
C56    C     0.81886   0.20146   0.49526   0.00000  Uiso   1.00
C57    C     0.81653   0.15058   0.57068   0.00000  Uiso   1.00
C58    C     0.91956   0.14019   0.56503   0.00000  Uiso   1.00
C59    C     0.06346   0.10331   0.59013   0.00000  Uiso   1.00
C60    C     0.90334   0.29337   0.34261   0.00000  Uiso   1.00
C61    C     0.81630   0.39084   0.39081   0.00000  Uiso   1.00
C62    C     0.83173   0.50691   0.36305   0.00000  Uiso   1.00
C63    C     0.74182   0.58258   0.41643   0.00000  Uiso   1.00
C64    C     0.84502   0.19934   0.31883   0.00000  Uiso   1.00
C65    C     0.88462   0.15437   0.23055   0.00000  Uiso   1.00
C66    C     0.81890   0.06882   0.22333   0.00000  Uiso   1.00
C67    C     0.92049   0.24057   0.41697   0.00000  Uiso   1.00
C68    C     0.02354   0.23025   0.41120   0.00000  Uiso   1.00
C69    C     0.02137   0.17937   0.48659   0.00000  Uiso   1.00
H70    H     0.63711   0.19091   0.54771   0.00000  Uiso   1.00
H71    H     0.54607   0.39694   0.58311   0.00000  Uiso   1.00
H72    H     0.59896   0.04445   0.45063   0.00000  Uiso   1.00
H73    H     0.73787   0.12032   0.63125   0.00000  Uiso   1.00
H74    H     0.48995   0.64261   0.58781   0.00000  Uiso   1.00
H75    H     0.60149   0.89934   0.30848   0.00000  Uiso   1.00
H76    H     0.89439   0.05932   0.68935   0.00000  Uiso   1.00
H77    H     0.98247   0.32382   0.28166   0.00000  Uiso   1.00
H78    H     0.91039   0.53715   0.30246   0.00000  Uiso   1.00
H79    H     0.96327   0.18466   0.16998   0.00000  Uiso   1.00
H80    H     0.10217   0.26053   0.35060   0.00000  Uiso   1.00
H81    H     0.78563   0.75641   0.36002   0.00000  Uiso   1.00
H82    H     0.89717   0.01313   0.08070   0.00000  Uiso   1.00
H83    H     0.19008   0.17312   0.46157   0.00000  Uiso   1.00
O84    O     0.58413   0.83744   0.49238   0.00000  Uiso   1.00
O85    O     0.73047   0.86228   0.12592   0.00000  Uiso   1.00
O86    O     0.11475   0.07218   0.62562   0.00000  Uiso   1.00
N87    N     0.56944   0.64012   0.53135   0.00000  Uiso   1.00
N88    N     0.67371   0.94522   0.27020   0.00000  Uiso   1.00
N89    N     0.94756   0.09476   0.62627   0.00000  Uiso   1.00
N90    N     0.72855   0.70135   0.40878   0.00000  Uiso   1.00
N91    N     0.83282   0.00645   0.14763   0.00000  Uiso   1.00
N92    N     0.10666   0.15599   0.50370   0.00000  Uiso   1.00
C93    C     0.71623   0.27864   0.98676   0.00000  Uiso   1.00
C94    C     0.71467   0.14826   0.96910   0.00000  Uiso   1.00
C95    C     0.62472   0.07276   0.02253   0.00000  Uiso   1.00
C96    C     0.64000   0.95661   0.99486   0.00000  Uiso   1.00
C97    C     0.62209   0.76013   0.97932   0.00000  Uiso   1.00
C98    C     0.74339   0.33977   0.89712   0.00000  Uiso   1.00
C99    C     0.67760   0.42529   0.89003   0.00000  Uiso   1.00
C100   C     0.71709   0.47036   0.80176   0.00000  Uiso   1.00
C101   C     0.74382   0.57127   0.67449   0.00000  Uiso   1.00
C102   C     0.81886   0.29854   0.99526   0.00000  Uiso   1.00
C103   C     0.81653   0.34942   0.07068   0.00000  Uiso   1.00
C104   C     0.91956   0.35981   0.06503   0.00000  Uiso   1.00
C105   C     0.06346   0.39669   0.09013   0.00000  Uiso   1.00
C106   C     0.90334   0.20663   0.84261   0.00000  Uiso   1.00
C107   C     0.81630   0.10916   0.89081   0.00000  Uiso   1.00
C108   C     0.83173   0.99309   0.86305   0.00000  Uiso   1.00
C109   C     0.74182   0.91742   0.91643   0.00000  Uiso   1.00
C110   C     0.84502   0.30066   0.81883   0.00000  Uiso   1.00
C111   C     0.88462   0.34563   0.73055   0.00000  Uiso   1.00
C112   C     0.81890   0.43118   0.72333   0.00000  Uiso   1.00
C113   C     0.92049   0.25943   0.91697   0.00000  Uiso   1.00
C114   C     0.02354   0.26975   0.91120   0.00000  Uiso   1.00
C115   C     0.02137   0.32063   0.98659   0.00000  Uiso   1.00
H116   H     0.63711   0.30909   0.04771   0.00000  Uiso   1.00
H117   H     0.54607   0.10306   0.08311   0.00000  Uiso   1.00
H118   H     0.59896   0.45555   0.95063   0.00000  Uiso   1.00
H119   H     0.73787   0.37968   0.13125   0.00000  Uiso   1.00
H120   H     0.48995   0.85739   0.08781   0.00000  Uiso   1.00
H121   H     0.60149   0.60066   0.80848   0.00000  Uiso   1.00
H122   H     0.89439   0.44068   0.18935   0.00000  Uiso   1.00
H123   H     0.98247   0.17618   0.78166   0.00000  Uiso   1.00
H124   H     0.91039   0.96285   0.80246   0.00000  Uiso   1.00
H125   H     0.96327   0.31534   0.66998   0.00000  Uiso   1.00
H126   H     0.10217   0.23947   0.85060   0.00000  Uiso   1.00
H127   H     0.78563   0.74359   0.86002   0.00000  Uiso   1.00
H128   H     0.89717   0.48687   0.58070   0.00000  Uiso   1.00
H129   H     0.19008   0.32688   0.96157   0.00000  Uiso   1.00
O130   O     0.58413   0.66256   0.99238   0.00000  Uiso   1.00
O131   O     0.73047   0.63772   0.62592   0.00000  Uiso   1.00
O132   O     0.11475   0.42782   0.12562   0.00000  Uiso   1.00
N133   N     0.56944   0.85988   0.03135   0.00000  Uiso   1.00
N134   N     0.67371   0.55478   0.77020   0.00000  Uiso   1.00
N135   N     0.94756   0.40524   0.12627   0.00000  Uiso   1.00
N136   N     0.72855   0.79865   0.90878   0.00000  Uiso   1.00
N137   N     0.83282   0.49355   0.64763   0.00000  Uiso   1.00
N138   N     0.10666   0.34401   0.00370   0.00000  Uiso   1.00
C139   C     0.28377   0.77864   0.51324   0.00000  Uiso   1.00
C140   C     0.28533   0.64826   0.53090   0.00000  Uiso   1.00
C141   C     0.37528   0.57276   0.47747   0.00000  Uiso   1.00
C142   C     0.36000   0.45661   0.50514   0.00000  Uiso   1.00
C143   C     0.37791   0.26013   0.52068   0.00000  Uiso   1.00
C144   C     0.25661   0.83977   0.60288   0.00000  Uiso   1.00
C145   C     0.32240   0.92529   0.60997   0.00000  Uiso   1.00
C146   C     0.28291   0.97036   0.69824   0.00000  Uiso   1.00
C147   C     0.25618   0.07127   0.82551   0.00000  Uiso   1.00
C148   C     0.18114   0.79854   0.50474   0.00000  Uiso   1.00
C149   C     0.18347   0.84942   0.42932   0.00000  Uiso   1.00
C150   C     0.08044   0.85981   0.43497   0.00000  Uiso   1.00
C151   C     0.93654   0.89669   0.40987   0.00000  Uiso   1.00
C152   C     0.09666   0.70663   0.65739   0.00000  Uiso   1.00
C153   C     0.18370   0.60916   0.60919   0.00000  Uiso   1.00
C154   C     0.16827   0.49309   0.63695   0.00000  Uiso   1.00
C155   C     0.25818   0.41742   0.58357   0.00000  Uiso   1.00
C156   C     0.15498   0.80066   0.68117   0.00000  Uiso   1.00
C157   C     0.11538   0.84563   0.76945   0.00000  Uiso   1.00
C158   C     0.18110   0.93118   0.77667   0.00000  Uiso   1.00
C159   C     0.07951   0.75943   0.58303   0.00000  Uiso   1.00
C160   C     0.97646   0.76975   0.58880   0.00000  Uiso   1.00
C161   C     0.97863   0.82063   0.51341   0.00000  Uiso   1.00
H162   H     0.36289   0.80909   0.45229   0.00000  Uiso   1.00
H163   H     0.45393   0.60306   0.41689   0.00000  Uiso   1.00
H164   H     0.40104   0.95555   0.54937   0.00000  Uiso   1.00
H165   H     0.26213   0.87968   0.36875   0.00000  Uiso   1.00
H166   H     0.51005   0.35739   0.41219   0.00000  Uiso   1.00
H167   H     0.39851   0.10066   0.69152   0.00000  Uiso   1.00
H168   H     0.10561   0.94068   0.31065   0.00000  Uiso   1.00
H169   H     0.01753   0.67618   0.71834   0.00000  Uiso   1.00
H170   H     0.08961   0.46285   0.69754   0.00000  Uiso   1.00
H171   H     0.03673   0.81534   0.83002   0.00000  Uiso   1.00
H172   H     0.89783   0.73947   0.64940   0.00000  Uiso   1.00
H173   H     0.21437   0.24359   0.63998   0.00000  Uiso   1.00
H174   H     0.10283   0.98687   0.91930   0.00000  Uiso   1.00
H175   H     0.80992   0.82688   0.53843   0.00000  Uiso   1.00
O176   O     0.41587   0.16256   0.50762   0.00000  Uiso   1.00
O177   O     0.26953   0.13772   0.87408   0.00000  Uiso   1.00
O178   O     0.88525   0.92782   0.37438   0.00000  Uiso   1.00
N179   N     0.43056   0.35988   0.46865   0.00000  Uiso   1.00
N180   N     0.32629   0.05478   0.72980   0.00000  Uiso   1.00
N181   N     0.05244   0.90524   0.37373   0.00000  Uiso   1.00
N182   N     0.27145   0.29865   0.59122   0.00000  Uiso   1.00
N183   N     0.16718   0.99355   0.85237   0.00000  Uiso   1.00
N184   N     0.89334   0.84401   0.49630   0.00000  Uiso   1.00
