data_job_01622
_audit_creation_date              2018-12-19
_audit_creation_method            'Materials Studio'
_symmetry_space_group_name_H-M    'P1'
_symmetry_Int_Tables_number       1
_symmetry_cell_setting            triclinic
loop_
_symmetry_equiv_pos_as_xyz
  x,y,z
_cell_length_a                    16.8107
_cell_length_b                    26.8637
_cell_length_c                    12.3033
_cell_angle_alpha                 90.0000
_cell_angle_beta                  90.0000
_cell_angle_gamma                 90.0000
loop_
_atom_site_label
_atom_site_type_symbol
_atom_site_fract_x
_atom_site_fract_y
_atom_site_fract_z
_atom_site_U_iso_or_equiv
_atom_site_adp_type
_atom_site_occupancy
C1     C     0.89735   0.80946   0.66705   0.00000  Uiso   1.00
C2     C     0.98344   0.79602   0.69283   0.00000  Uiso   1.00
C3     C     0.01646   0.74877   0.68625   0.00000  Uiso   1.00
C4     C     0.09632   0.74420   0.71323   0.00000  Uiso   1.00
C5     C     0.22314   0.71707   0.74829   0.00000  Uiso   1.00
C6     C     0.90100   0.84992   0.58025   0.00000  Uiso   1.00
C7     C     0.86470   0.84799   0.47903   0.00000  Uiso   1.00
C8     C     0.87515   0.88879   0.41125   0.00000  Uiso   1.00
C9     C     0.87393   0.94535   0.27156   0.00000  Uiso   1.00
C10    C     0.86456   0.83446   0.76891   0.00000  Uiso   1.00
C11    C     0.79761   0.81953   0.82629   0.00000  Uiso   1.00
C12    C     0.77737   0.84732   0.91733   0.00000  Uiso   1.00
C13    C     0.71958   0.87987   0.07056   0.00000  Uiso   1.00
C14    C     0.98045   0.88536   0.72667   0.00000  Uiso   1.00
C15    C     0.02858   0.83725   0.72521   0.00000  Uiso   1.00
C16    C     0.10841   0.83275   0.75222   0.00000  Uiso   1.00
C17    C     0.14154   0.78550   0.74568   0.00000  Uiso   1.00
C18    C     0.94613   0.89115   0.61263   0.00000  Uiso   1.00
C19    C     0.95664   0.93196   0.54499   0.00000  Uiso   1.00
C20    C     0.92037   0.93009   0.44369   0.00000  Uiso   1.00
C21    C     0.90970   0.87568   0.80129   0.00000  Uiso   1.00
C22    C     0.88956   0.90351   0.89226   0.00000  Uiso   1.00
C23    C     0.82259   0.88863   0.94978   0.00000  Uiso   1.00
H24    H     0.86220   0.77736   0.64183   0.00000  Uiso   1.00
H25    H     0.98151   0.71688   0.66118   0.00000  Uiso   1.00
H26    H     0.82976   0.81608   0.45399   0.00000  Uiso   1.00
H27    H     0.76269   0.78762   0.80121   0.00000  Uiso   1.00
H28    H     0.13370   0.66800   0.69687   0.00000  Uiso   1.00
H29    H     0.81371   0.87718   0.26003   0.00000  Uiso   1.00
H30    H     0.67227   0.81718   0.99219   0.00000  Uiso   1.00
H31    H     0.01559   0.91746   0.75188   0.00000  Uiso   1.00
H32    H     0.14332   0.86466   0.77728   0.00000  Uiso   1.00
H33    H     0.99157   0.96386   0.57008   0.00000  Uiso   1.00
H34    H     0.92450   0.93541   0.91730   0.00000  Uiso   1.00
H35    H     0.26503   0.78795   0.79109   0.00000  Uiso   1.00
H36    H     0.94503   0.99713   0.35425   0.00000  Uiso   1.00
H37    H     0.80360   0.93713   0.08641   0.00000  Uiso   1.00
O38    O     0.28063   0.69071   0.75866   0.00000  Uiso   1.00
O39    O     0.86079   0.96515   0.18555   0.00000  Uiso   1.00
O40    O     0.67523   0.88643   0.14613   0.00000  Uiso   1.00
N41    N     0.14707   0.70347   0.71558   0.00000  Uiso   1.00
N42    N     0.84791   0.89904   0.30715   0.00000  Uiso   1.00
N43    N     0.71566   0.84295   0.99165   0.00000  Uiso   1.00
N44    N     0.21774   0.76802   0.76629   0.00000  Uiso   1.00
N45    N     0.91858   0.96358   0.35785   0.00000  Uiso   1.00
N46    N     0.78633   0.90750   0.04235   0.00000  Uiso   1.00
C47    C     0.25140   0.30954   0.66769   0.00000  Uiso   1.00
C48    C     0.33761   0.29657   0.69380   0.00000  Uiso   1.00
C49    C     0.37128   0.24949   0.68743   0.00000  Uiso   1.00
C50    C     0.45115   0.24535   0.71470   0.00000  Uiso   1.00
C51    C     0.57826   0.21889   0.75025   0.00000  Uiso   1.00
C52    C     0.25467   0.34998   0.58083   0.00000  Uiso   1.00
C53    C     0.21858   0.34782   0.47948   0.00000  Uiso   1.00
C54    C     0.22862   0.38865   0.41166   0.00000  Uiso   1.00
C55    C     0.22690   0.44514   0.27185   0.00000  Uiso   1.00
C56    C     0.21809   0.33441   0.76939   0.00000  Uiso   1.00
C57    C     0.15123   0.31916   0.82657   0.00000  Uiso   1.00
C58    C     0.13045   0.34688   0.91749   0.00000  Uiso   1.00
C59    C     0.07194   0.37919   0.07044   0.00000  Uiso   1.00
C60    C     0.33337   0.38590   0.72745   0.00000  Uiso   1.00
C61    C     0.38214   0.33804   0.72626   0.00000  Uiso   1.00
C62    C     0.46198   0.33397   0.75355   0.00000  Uiso   1.00
C63    C     0.49575   0.28690   0.74722   0.00000  Uiso   1.00
C64    C     0.29919   0.39146   0.61328   0.00000  Uiso   1.00
C65    C     0.30928   0.43230   0.54560   0.00000  Uiso   1.00
C66    C     0.27322   0.43020   0.44417   0.00000  Uiso   1.00
C67    C     0.26261   0.37588   0.80185   0.00000  Uiso   1.00
C68    C     0.24193   0.40364   0.89269   0.00000  Uiso   1.00
C69    C     0.17506   0.38843   0.95000   0.00000  Uiso   1.00
H70    H     0.21673   0.27725   0.64242   0.00000  Uiso   1.00
H71    H     0.33680   0.21740   0.66230   0.00000  Uiso   1.00
H72    H     0.18412   0.31572   0.45439   0.00000  Uiso   1.00
H73    H     0.11679   0.28706   0.80143   0.00000  Uiso   1.00
H74    H     0.48957   0.16934   0.69862   0.00000  Uiso   1.00
H75    H     0.16761   0.37665   0.26025   0.00000  Uiso   1.00
H76    H     0.02561   0.31622   0.99204   0.00000  Uiso   1.00
H77    H     0.36804   0.41820   0.75272   0.00000  Uiso   1.00
H78    H     0.49642   0.36608   0.77866   0.00000  Uiso   1.00
H79    H     0.34373   0.46439   0.57074   0.00000  Uiso   1.00
H80    H     0.27640   0.43574   0.91778   0.00000  Uiso   1.00
H81    H     0.61912   0.29001   0.79306   0.00000  Uiso   1.00
H82    H     0.29715   0.49732   0.35468   0.00000  Uiso   1.00
H83    H     0.15516   0.43689   0.08647   0.00000  Uiso   1.00
O84    O     0.63607   0.19284   0.76088   0.00000  Uiso   1.00
O85    O     0.21366   0.46484   0.18576   0.00000  Uiso   1.00
O86    O     0.02737   0.38555   0.14585   0.00000  Uiso   1.00
N87    N     0.50244   0.20489   0.71731   0.00000  Uiso   1.00
N88    N     0.20143   0.39871   0.30745   0.00000  Uiso   1.00
N89    N     0.06867   0.34222   0.99159   0.00000  Uiso   1.00
N90    N     0.57215   0.26982   0.76812   0.00000  Uiso   1.00
N91    N     0.27114   0.46364   0.35826   0.00000  Uiso   1.00
N92    N     0.13838   0.40715   0.04241   0.00000  Uiso   1.00
C93    C     0.10265   0.19054   0.66705   0.00000  Uiso   1.00
C94    C     0.01656   0.20398   0.69283   0.00000  Uiso   1.00
C95    C     0.98354   0.25123   0.68625   0.00000  Uiso   1.00
C96    C     0.90368   0.25580   0.71323   0.00000  Uiso   1.00
C97    C     0.77686   0.28293   0.74829   0.00000  Uiso   1.00
C98    C     0.09900   0.15008   0.58025   0.00000  Uiso   1.00
C99    C     0.13530   0.15201   0.47903   0.00000  Uiso   1.00
C100   C     0.12485   0.11121   0.41125   0.00000  Uiso   1.00
C101   C     0.12607   0.05465   0.27156   0.00000  Uiso   1.00
C102   C     0.13544   0.16554   0.76891   0.00000  Uiso   1.00
C103   C     0.20239   0.18047   0.82629   0.00000  Uiso   1.00
C104   C     0.22263   0.15268   0.91733   0.00000  Uiso   1.00
C105   C     0.28042   0.12013   0.07056   0.00000  Uiso   1.00
C106   C     0.01955   0.11464   0.72667   0.00000  Uiso   1.00
C107   C     0.97142   0.16275   0.72521   0.00000  Uiso   1.00
C108   C     0.89159   0.16725   0.75222   0.00000  Uiso   1.00
C109   C     0.85846   0.21450   0.74568   0.00000  Uiso   1.00
C110   C     0.05387   0.10885   0.61263   0.00000  Uiso   1.00
C111   C     0.04336   0.06804   0.54499   0.00000  Uiso   1.00
C112   C     0.07963   0.06991   0.44369   0.00000  Uiso   1.00
C113   C     0.09030   0.12432   0.80129   0.00000  Uiso   1.00
C114   C     0.11044   0.09649   0.89226   0.00000  Uiso   1.00
C115   C     0.17741   0.11137   0.94978   0.00000  Uiso   1.00
H116   H     0.13780   0.22264   0.64183   0.00000  Uiso   1.00
H117   H     0.01849   0.28312   0.66118   0.00000  Uiso   1.00
H118   H     0.17024   0.18392   0.45399   0.00000  Uiso   1.00
H119   H     0.23731   0.21238   0.80121   0.00000  Uiso   1.00
H120   H     0.86630   0.33200   0.69687   0.00000  Uiso   1.00
H121   H     0.18629   0.12282   0.26003   0.00000  Uiso   1.00
H122   H     0.32773   0.18282   0.99219   0.00000  Uiso   1.00
H123   H     0.98441   0.08254   0.75188   0.00000  Uiso   1.00
H124   H     0.85668   0.13534   0.77728   0.00000  Uiso   1.00
H125   H     0.00843   0.03614   0.57008   0.00000  Uiso   1.00
H126   H     0.07550   0.06459   0.91730   0.00000  Uiso   1.00
H127   H     0.73497   0.21205   0.79109   0.00000  Uiso   1.00
H128   H     0.05497   0.00287   0.35425   0.00000  Uiso   1.00
H129   H     0.19640   0.06287   0.08641   0.00000  Uiso   1.00
O130   O     0.71937   0.30929   0.75866   0.00000  Uiso   1.00
O131   O     0.13921   0.03485   0.18555   0.00000  Uiso   1.00
O132   O     0.32477   0.11357   0.14613   0.00000  Uiso   1.00
N133   N     0.85293   0.29653   0.71558   0.00000  Uiso   1.00
N134   N     0.15209   0.10096   0.30715   0.00000  Uiso   1.00
N135   N     0.28434   0.15705   0.99165   0.00000  Uiso   1.00
N136   N     0.78226   0.23198   0.76629   0.00000  Uiso   1.00
N137   N     0.08142   0.03642   0.35785   0.00000  Uiso   1.00
N138   N     0.21367   0.09250   0.04235   0.00000  Uiso   1.00
C139   C     0.74860   0.69046   0.66769   0.00000  Uiso   1.00
C140   C     0.66239   0.70343   0.69380   0.00000  Uiso   1.00
C141   C     0.62872   0.75051   0.68743   0.00000  Uiso   1.00
C142   C     0.54885   0.75465   0.71470   0.00000  Uiso   1.00
C143   C     0.42174   0.78111   0.75025   0.00000  Uiso   1.00
C144   C     0.74533   0.65002   0.58083   0.00000  Uiso   1.00
C145   C     0.78142   0.65218   0.47948   0.00000  Uiso   1.00
C146   C     0.77138   0.61135   0.41166   0.00000  Uiso   1.00
C147   C     0.77310   0.55486   0.27185   0.00000  Uiso   1.00
C148   C     0.78191   0.66559   0.76939   0.00000  Uiso   1.00
C149   C     0.84877   0.68084   0.82657   0.00000  Uiso   1.00
C150   C     0.86955   0.65312   0.91749   0.00000  Uiso   1.00
C151   C     0.92806   0.62081   0.07044   0.00000  Uiso   1.00
C152   C     0.66663   0.61410   0.72745   0.00000  Uiso   1.00
C153   C     0.61786   0.66196   0.72626   0.00000  Uiso   1.00
C154   C     0.53802   0.66603   0.75355   0.00000  Uiso   1.00
C155   C     0.50425   0.71310   0.74722   0.00000  Uiso   1.00
C156   C     0.70081   0.60854   0.61328   0.00000  Uiso   1.00
C157   C     0.69072   0.56770   0.54560   0.00000  Uiso   1.00
C158   C     0.72678   0.56980   0.44417   0.00000  Uiso   1.00
C159   C     0.73739   0.62412   0.80185   0.00000  Uiso   1.00
C160   C     0.75807   0.59636   0.89269   0.00000  Uiso   1.00
C161   C     0.82494   0.61157   0.95000   0.00000  Uiso   1.00
H162   H     0.78327   0.72275   0.64242   0.00000  Uiso   1.00
H163   H     0.66320   0.78260   0.66230   0.00000  Uiso   1.00
H164   H     0.81588   0.68428   0.45439   0.00000  Uiso   1.00
H165   H     0.88321   0.71294   0.80143   0.00000  Uiso   1.00
H166   H     0.51043   0.83066   0.69862   0.00000  Uiso   1.00
H167   H     0.83239   0.62335   0.26025   0.00000  Uiso   1.00
H168   H     0.97439   0.68378   0.99204   0.00000  Uiso   1.00
H169   H     0.63196   0.58180   0.75272   0.00000  Uiso   1.00
H170   H     0.50358   0.63392   0.77866   0.00000  Uiso   1.00
H171   H     0.65627   0.53561   0.57074   0.00000  Uiso   1.00
H172   H     0.72360   0.56426   0.91778   0.00000  Uiso   1.00
H173   H     0.38088   0.70999   0.79306   0.00000  Uiso   1.00
H174   H     0.70285   0.50268   0.35468   0.00000  Uiso   1.00
H175   H     0.84484   0.56311   0.08647   0.00000  Uiso   1.00
O176   O     0.36393   0.80716   0.76088   0.00000  Uiso   1.00
O177   O     0.78634   0.53516   0.18576   0.00000  Uiso   1.00
O178   O     0.97263   0.61445   0.14585   0.00000  Uiso   1.00
N179   N     0.49756   0.79511   0.71731   0.00000  Uiso   1.00
N180   N     0.79857   0.60129   0.30745   0.00000  Uiso   1.00
N181   N     0.93133   0.65778   0.99159   0.00000  Uiso   1.00
N182   N     0.42785   0.73018   0.76812   0.00000  Uiso   1.00
N183   N     0.72886   0.53636   0.35826   0.00000  Uiso   1.00
N184   N     0.86162   0.59285   0.04241   0.00000  Uiso   1.00
C185   C     0.60265   0.30946   0.33295   0.00000  Uiso   1.00
C186   C     0.51656   0.29602   0.30717   0.00000  Uiso   1.00
C187   C     0.48354   0.24877   0.31375   0.00000  Uiso   1.00
C188   C     0.40368   0.24420   0.28677   0.00000  Uiso   1.00
C189   C     0.27686   0.21707   0.25171   0.00000  Uiso   1.00
C190   C     0.59900   0.34992   0.41975   0.00000  Uiso   1.00
C191   C     0.63530   0.34799   0.52097   0.00000  Uiso   1.00
C192   C     0.62485   0.38879   0.58875   0.00000  Uiso   1.00
C193   C     0.62607   0.44535   0.72844   0.00000  Uiso   1.00
C194   C     0.63544   0.33446   0.23109   0.00000  Uiso   1.00
C195   C     0.70239   0.31953   0.17371   0.00000  Uiso   1.00
C196   C     0.72263   0.34732   0.08267   0.00000  Uiso   1.00
C197   C     0.78042   0.37987   0.92944   0.00000  Uiso   1.00
C198   C     0.51955   0.38536   0.27333   0.00000  Uiso   1.00
C199   C     0.47142   0.33725   0.27479   0.00000  Uiso   1.00
C200   C     0.39159   0.33275   0.24778   0.00000  Uiso   1.00
C201   C     0.35846   0.28550   0.25432   0.00000  Uiso   1.00
C202   C     0.55387   0.39115   0.38737   0.00000  Uiso   1.00
C203   C     0.54336   0.43196   0.45501   0.00000  Uiso   1.00
C204   C     0.57963   0.43009   0.55631   0.00000  Uiso   1.00
C205   C     0.59030   0.37568   0.19871   0.00000  Uiso   1.00
C206   C     0.61044   0.40351   0.10774   0.00000  Uiso   1.00
C207   C     0.67741   0.38863   0.05022   0.00000  Uiso   1.00
H208   H     0.63780   0.27736   0.35817   0.00000  Uiso   1.00
H209   H     0.51849   0.21688   0.33882   0.00000  Uiso   1.00
H210   H     0.67024   0.31608   0.54601   0.00000  Uiso   1.00
H211   H     0.73731   0.28762   0.19879   0.00000  Uiso   1.00
H212   H     0.36630   0.16800   0.30313   0.00000  Uiso   1.00
H213   H     0.68629   0.37718   0.73997   0.00000  Uiso   1.00
H214   H     0.82773   0.31718   0.00781   0.00000  Uiso   1.00
H215   H     0.48441   0.41746   0.24812   0.00000  Uiso   1.00
H216   H     0.35668   0.36466   0.22272   0.00000  Uiso   1.00
H217   H     0.50843   0.46386   0.42992   0.00000  Uiso   1.00
H218   H     0.57550   0.43541   0.08270   0.00000  Uiso   1.00
H219   H     0.23497   0.28795   0.20891   0.00000  Uiso   1.00
H220   H     0.55497   0.49713   0.64575   0.00000  Uiso   1.00
H221   H     0.69640   0.43713   0.91359   0.00000  Uiso   1.00
O222   O     0.21937   0.19071   0.24134   0.00000  Uiso   1.00
O223   O     0.63921   0.46515   0.81445   0.00000  Uiso   1.00
O224   O     0.82477   0.38643   0.85387   0.00000  Uiso   1.00
N225   N     0.35293   0.20347   0.28442   0.00000  Uiso   1.00
N226   N     0.65209   0.39904   0.69285   0.00000  Uiso   1.00
N227   N     0.78434   0.34295   0.00835   0.00000  Uiso   1.00
N228   N     0.28226   0.26802   0.23371   0.00000  Uiso   1.00
N229   N     0.58142   0.46358   0.64215   0.00000  Uiso   1.00
N230   N     0.71367   0.40750   0.95765   0.00000  Uiso   1.00
C231   C     0.24860   0.80954   0.33231   0.00000  Uiso   1.00
C232   C     0.16239   0.79657   0.30620   0.00000  Uiso   1.00
C233   C     0.12872   0.74949   0.31257   0.00000  Uiso   1.00
C234   C     0.04885   0.74535   0.28530   0.00000  Uiso   1.00
C235   C     0.92174   0.71889   0.24975   0.00000  Uiso   1.00
C236   C     0.24533   0.84998   0.41917   0.00000  Uiso   1.00
C237   C     0.28142   0.84782   0.52052   0.00000  Uiso   1.00
C238   C     0.27138   0.88865   0.58834   0.00000  Uiso   1.00
C239   C     0.27310   0.94514   0.72815   0.00000  Uiso   1.00
C240   C     0.28191   0.83441   0.23061   0.00000  Uiso   1.00
C241   C     0.34877   0.81916   0.17343   0.00000  Uiso   1.00
C242   C     0.36955   0.84688   0.08251   0.00000  Uiso   1.00
C243   C     0.42806   0.87919   0.92956   0.00000  Uiso   1.00
C244   C     0.16663   0.88590   0.27255   0.00000  Uiso   1.00
C245   C     0.11786   0.83804   0.27374   0.00000  Uiso   1.00
C246   C     0.03802   0.83397   0.24645   0.00000  Uiso   1.00
C247   C     0.00425   0.78690   0.25278   0.00000  Uiso   1.00
C248   C     0.20081   0.89146   0.38672   0.00000  Uiso   1.00
C249   C     0.19072   0.93230   0.45440   0.00000  Uiso   1.00
C250   C     0.22678   0.93020   0.55583   0.00000  Uiso   1.00
C251   C     0.23739   0.87588   0.19815   0.00000  Uiso   1.00
C252   C     0.25807   0.90364   0.10731   0.00000  Uiso   1.00
C253   C     0.32494   0.88843   0.05000   0.00000  Uiso   1.00
H254   H     0.28327   0.77725   0.35758   0.00000  Uiso   1.00
H255   H     0.16320   0.71740   0.33770   0.00000  Uiso   1.00
H256   H     0.31588   0.81572   0.54561   0.00000  Uiso   1.00
H257   H     0.38321   0.78706   0.19857   0.00000  Uiso   1.00
H258   H     0.01043   0.66934   0.30138   0.00000  Uiso   1.00
H259   H     0.33239   0.87665   0.73975   0.00000  Uiso   1.00
H260   H     0.47439   0.81622   0.00796   0.00000  Uiso   1.00
H261   H     0.13196   0.91820   0.24728   0.00000  Uiso   1.00
H262   H     0.00358   0.86608   0.22134   0.00000  Uiso   1.00
H263   H     0.15627   0.96439   0.42926   0.00000  Uiso   1.00
H264   H     0.22360   0.93574   0.08222   0.00000  Uiso   1.00
H265   H     0.88088   0.79001   0.20694   0.00000  Uiso   1.00
H266   H     0.20285   0.99732   0.64532   0.00000  Uiso   1.00
H267   H     0.34484   0.93689   0.91353   0.00000  Uiso   1.00
O268   O     0.86393   0.69284   0.23912   0.00000  Uiso   1.00
O269   O     0.28634   0.96484   0.81424   0.00000  Uiso   1.00
O270   O     0.47263   0.88555   0.85415   0.00000  Uiso   1.00
N271   N     0.99756   0.70489   0.28269   0.00000  Uiso   1.00
N272   N     0.29857   0.89871   0.69255   0.00000  Uiso   1.00
N273   N     0.43133   0.84222   0.00841   0.00000  Uiso   1.00
N274   N     0.92785   0.76982   0.23188   0.00000  Uiso   1.00
N275   N     0.22886   0.96364   0.64174   0.00000  Uiso   1.00
N276   N     0.36162   0.90715   0.95759   0.00000  Uiso   1.00
C277   C     0.39735   0.69054   0.33295   0.00000  Uiso   1.00
C278   C     0.48344   0.70398   0.30717   0.00000  Uiso   1.00
C279   C     0.51646   0.75123   0.31375   0.00000  Uiso   1.00
C280   C     0.59632   0.75580   0.28677   0.00000  Uiso   1.00
C281   C     0.72314   0.78293   0.25171   0.00000  Uiso   1.00
C282   C     0.40100   0.65008   0.41975   0.00000  Uiso   1.00
C283   C     0.36470   0.65201   0.52097   0.00000  Uiso   1.00
C284   C     0.37515   0.61121   0.58875   0.00000  Uiso   1.00
C285   C     0.37393   0.55465   0.72844   0.00000  Uiso   1.00
C286   C     0.36456   0.66554   0.23109   0.00000  Uiso   1.00
C287   C     0.29761   0.68047   0.17371   0.00000  Uiso   1.00
C288   C     0.27737   0.65268   0.08267   0.00000  Uiso   1.00
C289   C     0.21958   0.62013   0.92944   0.00000  Uiso   1.00
C290   C     0.48045   0.61464   0.27333   0.00000  Uiso   1.00
C291   C     0.52858   0.66275   0.27479   0.00000  Uiso   1.00
C292   C     0.60841   0.66725   0.24778   0.00000  Uiso   1.00
C293   C     0.64154   0.71450   0.25432   0.00000  Uiso   1.00
C294   C     0.44613   0.60885   0.38737   0.00000  Uiso   1.00
C295   C     0.45664   0.56804   0.45501   0.00000  Uiso   1.00
C296   C     0.42037   0.56991   0.55631   0.00000  Uiso   1.00
C297   C     0.40970   0.62432   0.19871   0.00000  Uiso   1.00
C298   C     0.38956   0.59649   0.10774   0.00000  Uiso   1.00
C299   C     0.32259   0.61137   0.05022   0.00000  Uiso   1.00
H300   H     0.36220   0.72264   0.35817   0.00000  Uiso   1.00
H301   H     0.48151   0.78312   0.33882   0.00000  Uiso   1.00
H302   H     0.32976   0.68392   0.54601   0.00000  Uiso   1.00
H303   H     0.26269   0.71238   0.19879   0.00000  Uiso   1.00
H304   H     0.63370   0.83200   0.30313   0.00000  Uiso   1.00
H305   H     0.31371   0.62282   0.73997   0.00000  Uiso   1.00
H306   H     0.17227   0.68282   0.00781   0.00000  Uiso   1.00
H307   H     0.51559   0.58254   0.24812   0.00000  Uiso   1.00
H308   H     0.64332   0.63534   0.22272   0.00000  Uiso   1.00
H309   H     0.49157   0.53614   0.42992   0.00000  Uiso   1.00
H310   H     0.42450   0.56459   0.08270   0.00000  Uiso   1.00
H311   H     0.76503   0.71205   0.20891   0.00000  Uiso   1.00
H312   H     0.44503   0.50287   0.64575   0.00000  Uiso   1.00
H313   H     0.30360   0.56287   0.91359   0.00000  Uiso   1.00
O314   O     0.78063   0.80929   0.24134   0.00000  Uiso   1.00
O315   O     0.36079   0.53485   0.81445   0.00000  Uiso   1.00
O316   O     0.17523   0.61357   0.85387   0.00000  Uiso   1.00
N317   N     0.64707   0.79653   0.28442   0.00000  Uiso   1.00
N318   N     0.34791   0.60096   0.69285   0.00000  Uiso   1.00
N319   N     0.21566   0.65705   0.00835   0.00000  Uiso   1.00
N320   N     0.71774   0.73198   0.23371   0.00000  Uiso   1.00
N321   N     0.41858   0.53642   0.64215   0.00000  Uiso   1.00
N322   N     0.28633   0.59250   0.95765   0.00000  Uiso   1.00
C323   C     0.75140   0.19046   0.33231   0.00000  Uiso   1.00
C324   C     0.83761   0.20343   0.30620   0.00000  Uiso   1.00
C325   C     0.87128   0.25051   0.31257   0.00000  Uiso   1.00
C326   C     0.95115   0.25465   0.28530   0.00000  Uiso   1.00
C327   C     0.07826   0.28111   0.24975   0.00000  Uiso   1.00
C328   C     0.75467   0.15002   0.41917   0.00000  Uiso   1.00
C329   C     0.71858   0.15218   0.52052   0.00000  Uiso   1.00
C330   C     0.72862   0.11135   0.58834   0.00000  Uiso   1.00
C331   C     0.72690   0.05486   0.72815   0.00000  Uiso   1.00
C332   C     0.71809   0.16559   0.23061   0.00000  Uiso   1.00
C333   C     0.65123   0.18084   0.17343   0.00000  Uiso   1.00
C334   C     0.63045   0.15312   0.08251   0.00000  Uiso   1.00
C335   C     0.57194   0.12081   0.92956   0.00000  Uiso   1.00
C336   C     0.83337   0.11410   0.27255   0.00000  Uiso   1.00
C337   C     0.88214   0.16196   0.27374   0.00000  Uiso   1.00
C338   C     0.96198   0.16603   0.24645   0.00000  Uiso   1.00
C339   C     0.99575   0.21310   0.25278   0.00000  Uiso   1.00
C340   C     0.79919   0.10854   0.38672   0.00000  Uiso   1.00
C341   C     0.80928   0.06770   0.45440   0.00000  Uiso   1.00
C342   C     0.77322   0.06980   0.55583   0.00000  Uiso   1.00
C343   C     0.76261   0.12412   0.19815   0.00000  Uiso   1.00
C344   C     0.74193   0.09636   0.10731   0.00000  Uiso   1.00
C345   C     0.67506   0.11157   0.05000   0.00000  Uiso   1.00
H346   H     0.71673   0.22275   0.35758   0.00000  Uiso   1.00
H347   H     0.83680   0.28260   0.33770   0.00000  Uiso   1.00
H348   H     0.68412   0.18428   0.54561   0.00000  Uiso   1.00
H349   H     0.61679   0.21294   0.19857   0.00000  Uiso   1.00
H350   H     0.98957   0.33066   0.30138   0.00000  Uiso   1.00
H351   H     0.66761   0.12335   0.73975   0.00000  Uiso   1.00
H352   H     0.52561   0.18378   0.00796   0.00000  Uiso   1.00
H353   H     0.86804   0.08180   0.24728   0.00000  Uiso   1.00
H354   H     0.99642   0.13392   0.22134   0.00000  Uiso   1.00
H355   H     0.84373   0.03561   0.42926   0.00000  Uiso   1.00
H356   H     0.77640   0.06426   0.08222   0.00000  Uiso   1.00
H357   H     0.11912   0.20999   0.20694   0.00000  Uiso   1.00
H358   H     0.79715   0.00268   0.64532   0.00000  Uiso   1.00
H359   H     0.65516   0.06311   0.91353   0.00000  Uiso   1.00
O360   O     0.13607   0.30716   0.23912   0.00000  Uiso   1.00
O361   O     0.71366   0.03516   0.81424   0.00000  Uiso   1.00
O362   O     0.52737   0.11445   0.85415   0.00000  Uiso   1.00
N363   N     0.00244   0.29511   0.28269   0.00000  Uiso   1.00
N364   N     0.70143   0.10129   0.69255   0.00000  Uiso   1.00
N365   N     0.56867   0.15778   0.00841   0.00000  Uiso   1.00
N366   N     0.07215   0.23018   0.23188   0.00000  Uiso   1.00
N367   N     0.77114   0.03636   0.64174   0.00000  Uiso   1.00
N368   N     0.63838   0.09285   0.95759   0.00000  Uiso   1.00
