data_job_02882
_audit_creation_date              2018-12-19
_audit_creation_method            'Materials Studio'
_symmetry_space_group_name_H-M    'P1'
_symmetry_Int_Tables_number       1
_symmetry_cell_setting            triclinic
loop_
_symmetry_equiv_pos_as_xyz
  x,y,z
_cell_length_a                    24.4224
_cell_length_b                    12.6181
_cell_length_c                    13.1322
_cell_angle_alpha                 90.0000
_cell_angle_beta                  90.0000
_cell_angle_gamma                 90.0000
loop_
_atom_site_label
_atom_site_type_symbol
_atom_site_fract_x
_atom_site_fract_y
_atom_site_fract_z
_atom_site_U_iso_or_equiv
_atom_site_adp_type
_atom_site_occupancy
C1     C     0.55125   0.75200   0.81513   0.00000  Uiso   1.00
C2     C     0.50727   0.78299   0.73826   0.00000  Uiso   1.00
C3     C     0.45542   0.82079   0.76171   0.00000  Uiso   1.00
C4     C     0.42118   0.84466   0.68049   0.00000  Uiso   1.00
C5     C     0.35029   0.89479   0.57650   0.00000  Uiso   1.00
C6     C     0.56651   0.63758   0.79077   0.00000  Uiso   1.00
C7     C     0.56448   0.55313   0.85838   0.00000  Uiso   1.00
C8     C     0.58012   0.45460   0.82136   0.00000  Uiso   1.00
C9     C     0.60125   0.27900   0.79892   0.00000  Uiso   1.00
C10    C     0.60148   0.81840   0.78893   0.00000  Uiso   1.00
C11    C     0.62885   0.88596   0.85498   0.00000  Uiso   1.00
C12    C     0.67394   0.93965   0.81641   0.00000  Uiso   1.00
C13    C     0.74935   0.04479   0.79110   0.00000  Uiso   1.00
C14    C     0.58265   0.72719   0.62920   0.00000  Uiso   1.00
C15    C     0.52433   0.76951   0.63728   0.00000  Uiso   1.00
C16    C     0.49016   0.79334   0.55600   0.00000  Uiso   1.00
C17    C     0.43826   0.83117   0.57932   0.00000  Uiso   1.00
C18    C     0.58357   0.62411   0.68979   0.00000  Uiso   1.00
C19    C     0.59922   0.52568   0.65267   0.00000  Uiso   1.00
C20    C     0.59721   0.44110   0.72019   0.00000  Uiso   1.00
C21    C     0.61853   0.80493   0.68794   0.00000  Uiso   1.00
C22    C     0.66359   0.85851   0.64927   0.00000  Uiso   1.00
C23    C     0.69102   0.92615   0.71524   0.00000  Uiso   1.00
H24    H     0.53797   0.76248   0.89375   0.00000  Uiso   1.00
H25    H     0.44223   0.83120   0.83987   0.00000  Uiso   1.00
H26    H     0.55129   0.56358   0.93652   0.00000  Uiso   1.00
H27    H     0.61564   0.89637   0.93312   0.00000  Uiso   1.00
H28    H     0.34360   0.90140   0.73560   0.00000  Uiso   1.00
H29    H     0.57356   0.33713   0.93941   0.00000  Uiso   1.00
H30    H     0.70928   0.03887   0.93224   0.00000  Uiso   1.00
H31    H     0.59593   0.71669   0.55057   0.00000  Uiso   1.00
H32    H     0.50337   0.78291   0.47786   0.00000  Uiso   1.00
H33    H     0.61242   0.51529   0.57452   0.00000  Uiso   1.00
H34    H     0.67678   0.84807   0.57111   0.00000  Uiso   1.00
H35    H     0.39322   0.86220   0.44177   0.00000  Uiso   1.00
H36    H     0.62318   0.29793   0.64559   0.00000  Uiso   1.00
H37    H     0.75889   0.99966   0.63842   0.00000  Uiso   1.00
O38    O     0.30647   0.92615   0.54704   0.00000  Uiso   1.00
O39    O     0.60818   0.18586   0.81445   0.00000  Uiso   1.00
O40    O     0.78623   0.10651   0.80503   0.00000  Uiso   1.00
N41    N     0.36799   0.88311   0.67642   0.00000  Uiso   1.00
N42    N     0.58298   0.35555   0.86697   0.00000  Uiso   1.00
N43    N     0.70987   0.01159   0.86028   0.00000  Uiso   1.00
N44    N     0.39469   0.86202   0.51832   0.00000  Uiso   1.00
N45    N     0.60968   0.33446   0.70887   0.00000  Uiso   1.00
N46    N     0.73656   0.99050   0.70217   0.00000  Uiso   1.00
C47    C     0.44875   0.24800   0.31513   0.00000  Uiso   1.00
C48    C     0.49273   0.21701   0.23826   0.00000  Uiso   1.00
C49    C     0.54458   0.17921   0.26171   0.00000  Uiso   1.00
C50    C     0.57882   0.15534   0.18049   0.00000  Uiso   1.00
C51    C     0.64971   0.10521   0.07650   0.00000  Uiso   1.00
C52    C     0.43349   0.36242   0.29077   0.00000  Uiso   1.00
C53    C     0.43552   0.44687   0.35838   0.00000  Uiso   1.00
C54    C     0.41988   0.54540   0.32136   0.00000  Uiso   1.00
C55    C     0.39875   0.72100   0.29892   0.00000  Uiso   1.00
C56    C     0.39852   0.18160   0.28893   0.00000  Uiso   1.00
C57    C     0.37115   0.11404   0.35498   0.00000  Uiso   1.00
C58    C     0.32606   0.06035   0.31641   0.00000  Uiso   1.00
C59    C     0.25065   0.95521   0.29110   0.00000  Uiso   1.00
C60    C     0.41735   0.27281   0.12920   0.00000  Uiso   1.00
C61    C     0.47567   0.23049   0.13728   0.00000  Uiso   1.00
C62    C     0.50984   0.20666   0.05600   0.00000  Uiso   1.00
C63    C     0.56174   0.16883   0.07932   0.00000  Uiso   1.00
C64    C     0.41643   0.37589   0.18979   0.00000  Uiso   1.00
C65    C     0.40078   0.47432   0.15267   0.00000  Uiso   1.00
C66    C     0.40279   0.55890   0.22019   0.00000  Uiso   1.00
C67    C     0.38147   0.19507   0.18794   0.00000  Uiso   1.00
C68    C     0.33641   0.14149   0.14927   0.00000  Uiso   1.00
C69    C     0.30898   0.07385   0.21524   0.00000  Uiso   1.00
H70    H     0.46203   0.23752   0.39375   0.00000  Uiso   1.00
H71    H     0.55777   0.16880   0.33987   0.00000  Uiso   1.00
H72    H     0.44871   0.43642   0.43652   0.00000  Uiso   1.00
H73    H     0.38436   0.10363   0.43312   0.00000  Uiso   1.00
H74    H     0.65640   0.09860   0.23560   0.00000  Uiso   1.00
H75    H     0.42644   0.66287   0.43941   0.00000  Uiso   1.00
H76    H     0.29072   0.96113   0.43224   0.00000  Uiso   1.00
H77    H     0.40407   0.28331   0.05057   0.00000  Uiso   1.00
H78    H     0.49663   0.21709   0.97786   0.00000  Uiso   1.00
H79    H     0.38758   0.48471   0.07452   0.00000  Uiso   1.00
H80    H     0.32322   0.15193   0.07111   0.00000  Uiso   1.00
H81    H     0.60678   0.13780   0.94177   0.00000  Uiso   1.00
H82    H     0.37682   0.70207   0.14559   0.00000  Uiso   1.00
H83    H     0.24111   0.00034   0.13842   0.00000  Uiso   1.00
O84    O     0.69353   0.07385   0.04704   0.00000  Uiso   1.00
O85    O     0.39182   0.81414   0.31445   0.00000  Uiso   1.00
O86    O     0.21377   0.89349   0.30503   0.00000  Uiso   1.00
N87    N     0.63201   0.11689   0.17642   0.00000  Uiso   1.00
N88    N     0.41702   0.64445   0.36697   0.00000  Uiso   1.00
N89    N     0.29013   0.98841   0.36028   0.00000  Uiso   1.00
N90    N     0.60531   0.13798   0.01832   0.00000  Uiso   1.00
N91    N     0.39032   0.66554   0.20887   0.00000  Uiso   1.00
N92    N     0.26344   0.00950   0.20217   0.00000  Uiso   1.00
C93    C     0.05125   0.24800   0.81513   0.00000  Uiso   1.00
C94    C     0.00727   0.21701   0.73826   0.00000  Uiso   1.00
C95    C     0.95542   0.17921   0.76171   0.00000  Uiso   1.00
C96    C     0.92118   0.15534   0.68049   0.00000  Uiso   1.00
C97    C     0.85029   0.10521   0.57650   0.00000  Uiso   1.00
C98    C     0.06651   0.36242   0.79077   0.00000  Uiso   1.00
C99    C     0.06448   0.44687   0.85838   0.00000  Uiso   1.00
C100   C     0.08012   0.54540   0.82136   0.00000  Uiso   1.00
C101   C     0.10125   0.72100   0.79892   0.00000  Uiso   1.00
C102   C     0.10148   0.18160   0.78893   0.00000  Uiso   1.00
C103   C     0.12885   0.11404   0.85498   0.00000  Uiso   1.00
C104   C     0.17394   0.06035   0.81641   0.00000  Uiso   1.00
C105   C     0.24935   0.95521   0.79110   0.00000  Uiso   1.00
C106   C     0.08265   0.27281   0.62920   0.00000  Uiso   1.00
C107   C     0.02433   0.23049   0.63728   0.00000  Uiso   1.00
C108   C     0.99016   0.20666   0.55600   0.00000  Uiso   1.00
C109   C     0.93826   0.16883   0.57932   0.00000  Uiso   1.00
C110   C     0.08357   0.37589   0.68979   0.00000  Uiso   1.00
C111   C     0.09922   0.47432   0.65267   0.00000  Uiso   1.00
C112   C     0.09721   0.55890   0.72019   0.00000  Uiso   1.00
C113   C     0.11853   0.19507   0.68794   0.00000  Uiso   1.00
C114   C     0.16359   0.14149   0.64927   0.00000  Uiso   1.00
C115   C     0.19102   0.07385   0.71524   0.00000  Uiso   1.00
H116   H     0.03797   0.23752   0.89375   0.00000  Uiso   1.00
H117   H     0.94223   0.16880   0.83987   0.00000  Uiso   1.00
H118   H     0.05129   0.43642   0.93652   0.00000  Uiso   1.00
H119   H     0.11564   0.10363   0.93312   0.00000  Uiso   1.00
H120   H     0.84360   0.09860   0.73560   0.00000  Uiso   1.00
H121   H     0.07356   0.66287   0.93941   0.00000  Uiso   1.00
H122   H     0.20928   0.96113   0.93224   0.00000  Uiso   1.00
H123   H     0.09593   0.28331   0.55057   0.00000  Uiso   1.00
H124   H     0.00337   0.21709   0.47786   0.00000  Uiso   1.00
H125   H     0.11242   0.48471   0.57452   0.00000  Uiso   1.00
H126   H     0.17678   0.15193   0.57111   0.00000  Uiso   1.00
H127   H     0.89322   0.13780   0.44177   0.00000  Uiso   1.00
H128   H     0.12318   0.70207   0.64559   0.00000  Uiso   1.00
H129   H     0.25889   0.00034   0.63842   0.00000  Uiso   1.00
O130   O     0.80647   0.07385   0.54704   0.00000  Uiso   1.00
O131   O     0.10818   0.81414   0.81445   0.00000  Uiso   1.00
O132   O     0.28623   0.89349   0.80503   0.00000  Uiso   1.00
N133   N     0.86799   0.11689   0.67642   0.00000  Uiso   1.00
N134   N     0.08298   0.64445   0.86697   0.00000  Uiso   1.00
N135   N     0.20987   0.98841   0.86028   0.00000  Uiso   1.00
N136   N     0.89469   0.13798   0.51832   0.00000  Uiso   1.00
N137   N     0.10968   0.66554   0.70887   0.00000  Uiso   1.00
N138   N     0.23656   0.00950   0.70217   0.00000  Uiso   1.00
C139   C     0.94875   0.75200   0.31513   0.00000  Uiso   1.00
C140   C     0.99273   0.78299   0.23826   0.00000  Uiso   1.00
C141   C     0.04458   0.82079   0.26171   0.00000  Uiso   1.00
C142   C     0.07882   0.84466   0.18049   0.00000  Uiso   1.00
C143   C     0.14971   0.89479   0.07650   0.00000  Uiso   1.00
C144   C     0.93349   0.63758   0.29077   0.00000  Uiso   1.00
C145   C     0.93552   0.55313   0.35838   0.00000  Uiso   1.00
C146   C     0.91988   0.45460   0.32136   0.00000  Uiso   1.00
C147   C     0.89875   0.27900   0.29892   0.00000  Uiso   1.00
C148   C     0.89852   0.81840   0.28893   0.00000  Uiso   1.00
C149   C     0.87115   0.88596   0.35498   0.00000  Uiso   1.00
C150   C     0.82606   0.93965   0.31641   0.00000  Uiso   1.00
C151   C     0.75065   0.04479   0.29110   0.00000  Uiso   1.00
C152   C     0.91735   0.72719   0.12920   0.00000  Uiso   1.00
C153   C     0.97567   0.76951   0.13728   0.00000  Uiso   1.00
C154   C     0.00984   0.79334   0.05600   0.00000  Uiso   1.00
C155   C     0.06174   0.83117   0.07932   0.00000  Uiso   1.00
C156   C     0.91643   0.62411   0.18979   0.00000  Uiso   1.00
C157   C     0.90078   0.52568   0.15267   0.00000  Uiso   1.00
C158   C     0.90279   0.44110   0.22019   0.00000  Uiso   1.00
C159   C     0.88147   0.80493   0.18794   0.00000  Uiso   1.00
C160   C     0.83641   0.85851   0.14927   0.00000  Uiso   1.00
C161   C     0.80898   0.92615   0.21524   0.00000  Uiso   1.00
H162   H     0.96203   0.76248   0.39375   0.00000  Uiso   1.00
H163   H     0.05777   0.83120   0.33987   0.00000  Uiso   1.00
H164   H     0.94871   0.56358   0.43652   0.00000  Uiso   1.00
H165   H     0.88436   0.89637   0.43312   0.00000  Uiso   1.00
H166   H     0.15640   0.90140   0.23560   0.00000  Uiso   1.00
H167   H     0.92644   0.33713   0.43941   0.00000  Uiso   1.00
H168   H     0.79072   0.03887   0.43224   0.00000  Uiso   1.00
H169   H     0.90407   0.71669   0.05057   0.00000  Uiso   1.00
H170   H     0.99663   0.78291   0.97786   0.00000  Uiso   1.00
H171   H     0.88758   0.51529   0.07452   0.00000  Uiso   1.00
H172   H     0.82322   0.84807   0.07111   0.00000  Uiso   1.00
H173   H     0.10678   0.86220   0.94177   0.00000  Uiso   1.00
H174   H     0.87682   0.29793   0.14559   0.00000  Uiso   1.00
H175   H     0.74111   0.99966   0.13842   0.00000  Uiso   1.00
O176   O     0.19353   0.92615   0.04704   0.00000  Uiso   1.00
O177   O     0.89182   0.18586   0.31445   0.00000  Uiso   1.00
O178   O     0.71377   0.10651   0.30503   0.00000  Uiso   1.00
N179   N     0.13201   0.88311   0.17642   0.00000  Uiso   1.00
N180   N     0.91702   0.35555   0.36697   0.00000  Uiso   1.00
N181   N     0.79013   0.01159   0.36028   0.00000  Uiso   1.00
N182   N     0.10531   0.86202   0.01832   0.00000  Uiso   1.00
N183   N     0.89032   0.33446   0.20887   0.00000  Uiso   1.00
N184   N     0.76344   0.99050   0.20217   0.00000  Uiso   1.00
