data_job_00406
_audit_creation_date              2018-12-19
_audit_creation_method            'Materials Studio'
_symmetry_space_group_name_H-M    'P1'
_symmetry_Int_Tables_number       1
_symmetry_cell_setting            triclinic
loop_
_symmetry_equiv_pos_as_xyz
  x,y,z
_cell_length_a                    22.6679
_cell_length_b                    22.6679
_cell_length_c                    9.9033
_cell_angle_alpha                 90.0000
_cell_angle_beta                  90.0000
_cell_angle_gamma                 90.0000
loop_
_atom_site_label
_atom_site_type_symbol
_atom_site_fract_x
_atom_site_fract_y
_atom_site_fract_z
_atom_site_U_iso_or_equiv
_atom_site_adp_type
_atom_site_occupancy
C1     C     0.53070   0.69325   0.94961   0.00000  Uiso   1.00
C2     C     0.48122   0.73480   0.90677   0.00000  Uiso   1.00
C3     C     0.43871   0.72294   0.80964   0.00000  Uiso   1.00
C4     C     0.39722   0.76670   0.78500   0.00000  Uiso   1.00
C5     C     0.32025   0.82306   0.70777   0.00000  Uiso   1.00
C6     C     0.58800   0.72728   0.92864   0.00000  Uiso   1.00
C7     C     0.63528   0.70910   0.84992   0.00000  Uiso   1.00
C8     C     0.68369   0.74652   0.84372   0.00000  Uiso   1.00
C9     C     0.77252   0.79120   0.80052   0.00000  Uiso   1.00
C10    C     0.52420   0.68536   0.10180   0.00000  Uiso   1.00
C11    C     0.51785   0.63194   0.16869   0.00000  Uiso   1.00
C12    C     0.51256   0.63408   0.30828   0.00000  Uiso   1.00
C13    C     0.50233   0.61367   0.53395   0.00000  Uiso   1.00
C14    C     0.53262   0.79203   0.07858   0.00000  Uiso   1.00
C15    C     0.48226   0.78845   0.97682   0.00000  Uiso   1.00
C16    C     0.44083   0.83224   0.95233   0.00000  Uiso   1.00
C17    C     0.39826   0.82045   0.85518   0.00000  Uiso   1.00
C18    C     0.58905   0.78093   0.99869   0.00000  Uiso   1.00
C19    C     0.63740   0.81839   0.99261   0.00000  Uiso   1.00
C20    C     0.68474   0.80028   0.91389   0.00000  Uiso   1.00
C21    C     0.52524   0.73902   0.17186   0.00000  Uiso   1.00
C22    C     0.51997   0.74124   0.31137   0.00000  Uiso   1.00
C23    C     0.51361   0.68783   0.37846   0.00000  Uiso   1.00
H24    H     0.52990   0.65147   0.89508   0.00000  Uiso   1.00
H25    H     0.43792   0.68141   0.75544   0.00000  Uiso   1.00
H26    H     0.63447   0.66757   0.79573   0.00000  Uiso   1.00
H27    H     0.51705   0.59043   0.11445   0.00000  Uiso   1.00
H28    H     0.33642   0.73828   0.63149   0.00000  Uiso   1.00
H29    H     0.75085   0.70908   0.71648   0.00000  Uiso   1.00
H30    H     0.50326   0.54641   0.38856   0.00000  Uiso   1.00
H31    H     0.53343   0.83381   0.13312   0.00000  Uiso   1.00
H32    H     0.44164   0.87376   0.00655   0.00000  Uiso   1.00
H33    H     0.63819   0.85991   0.04683   0.00000  Uiso   1.00
H34    H     0.52078   0.78277   0.36555   0.00000  Uiso   1.00
H35    H     0.33944   0.89440   0.83529   0.00000  Uiso   1.00
H36    H     0.75388   0.86519   0.92028   0.00000  Uiso   1.00
H37    H     0.50629   0.70252   0.59236   0.00000  Uiso   1.00
O38    O     0.27750   0.83934   0.64580   0.00000  Uiso   1.00
O39    O     0.82123   0.80102   0.75733   0.00000  Uiso   1.00
O40    O     0.49639   0.58759   0.63907   0.00000  Uiso   1.00
N41    N     0.34972   0.76954   0.69685   0.00000  Uiso   1.00
N42    N     0.73719   0.74224   0.77629   0.00000  Uiso   1.00
N43    N     0.50573   0.59015   0.40463   0.00000  Uiso   1.00
N44    N     0.35135   0.85354   0.80651   0.00000  Uiso   1.00
N45    N     0.73882   0.82624   0.88595   0.00000  Uiso   1.00
N46    N     0.50735   0.67415   0.51429   0.00000  Uiso   1.00
C47    C     0.46930   0.30675   0.44961   0.00000  Uiso   1.00
C48    C     0.51878   0.26520   0.40677   0.00000  Uiso   1.00
C49    C     0.56129   0.27706   0.30964   0.00000  Uiso   1.00
C50    C     0.60278   0.23330   0.28500   0.00000  Uiso   1.00
C51    C     0.67975   0.17694   0.20777   0.00000  Uiso   1.00
C52    C     0.41200   0.27272   0.42864   0.00000  Uiso   1.00
C53    C     0.36472   0.29090   0.34992   0.00000  Uiso   1.00
C54    C     0.31631   0.25348   0.34372   0.00000  Uiso   1.00
C55    C     0.22748   0.20880   0.30052   0.00000  Uiso   1.00
C56    C     0.47580   0.31464   0.60180   0.00000  Uiso   1.00
C57    C     0.48215   0.36806   0.66869   0.00000  Uiso   1.00
C58    C     0.48744   0.36592   0.80828   0.00000  Uiso   1.00
C59    C     0.49767   0.38633   0.03395   0.00000  Uiso   1.00
C60    C     0.46738   0.20797   0.57858   0.00000  Uiso   1.00
C61    C     0.51774   0.21155   0.47682   0.00000  Uiso   1.00
C62    C     0.55917   0.16776   0.45233   0.00000  Uiso   1.00
C63    C     0.60174   0.17955   0.35518   0.00000  Uiso   1.00
C64    C     0.41095   0.21907   0.49869   0.00000  Uiso   1.00
C65    C     0.36260   0.18161   0.49261   0.00000  Uiso   1.00
C66    C     0.31526   0.19972   0.41389   0.00000  Uiso   1.00
C67    C     0.47476   0.26098   0.67186   0.00000  Uiso   1.00
C68    C     0.48003   0.25876   0.81137   0.00000  Uiso   1.00
C69    C     0.48639   0.31217   0.87846   0.00000  Uiso   1.00
H70    H     0.47010   0.34853   0.39508   0.00000  Uiso   1.00
H71    H     0.56208   0.31859   0.25544   0.00000  Uiso   1.00
H72    H     0.36553   0.33243   0.29573   0.00000  Uiso   1.00
H73    H     0.48295   0.40957   0.61445   0.00000  Uiso   1.00
H74    H     0.66358   0.26172   0.13149   0.00000  Uiso   1.00
H75    H     0.24915   0.29092   0.21648   0.00000  Uiso   1.00
H76    H     0.49674   0.45359   0.88856   0.00000  Uiso   1.00
H77    H     0.46657   0.16619   0.63312   0.00000  Uiso   1.00
H78    H     0.55836   0.12624   0.50655   0.00000  Uiso   1.00
H79    H     0.36181   0.14009   0.54683   0.00000  Uiso   1.00
H80    H     0.47922   0.21723   0.86555   0.00000  Uiso   1.00
H81    H     0.66056   0.10560   0.33529   0.00000  Uiso   1.00
H82    H     0.24612   0.13481   0.42028   0.00000  Uiso   1.00
H83    H     0.49371   0.29748   0.09236   0.00000  Uiso   1.00
O84    O     0.72250   0.16066   0.14580   0.00000  Uiso   1.00
O85    O     0.17877   0.19898   0.25733   0.00000  Uiso   1.00
O86    O     0.50361   0.41241   0.13907   0.00000  Uiso   1.00
N87    N     0.65028   0.23046   0.19685   0.00000  Uiso   1.00
N88    N     0.26281   0.25776   0.27629   0.00000  Uiso   1.00
N89    N     0.49427   0.40985   0.90463   0.00000  Uiso   1.00
N90    N     0.64865   0.14646   0.30651   0.00000  Uiso   1.00
N91    N     0.26118   0.17376   0.38595   0.00000  Uiso   1.00
N92    N     0.49265   0.32585   0.01429   0.00000  Uiso   1.00
C93    C     0.80675   0.03070   0.69961   0.00000  Uiso   1.00
C94    C     0.76520   0.98122   0.65677   0.00000  Uiso   1.00
C95    C     0.77706   0.93871   0.55964   0.00000  Uiso   1.00
C96    C     0.73330   0.89722   0.53500   0.00000  Uiso   1.00
C97    C     0.67694   0.82025   0.45777   0.00000  Uiso   1.00
C98    C     0.77272   0.08800   0.67864   0.00000  Uiso   1.00
C99    C     0.79090   0.13528   0.59992   0.00000  Uiso   1.00
C100   C     0.75348   0.18369   0.59372   0.00000  Uiso   1.00
C101   C     0.70880   0.27252   0.55052   0.00000  Uiso   1.00
C102   C     0.81464   0.02420   0.85180   0.00000  Uiso   1.00
C103   C     0.86806   0.01785   0.91869   0.00000  Uiso   1.00
C104   C     0.86592   0.01256   0.05828   0.00000  Uiso   1.00
C105   C     0.88633   0.00233   0.28395   0.00000  Uiso   1.00
C106   C     0.70797   0.03262   0.82858   0.00000  Uiso   1.00
C107   C     0.71155   0.98226   0.72682   0.00000  Uiso   1.00
C108   C     0.66776   0.94083   0.70233   0.00000  Uiso   1.00
C109   C     0.67955   0.89826   0.60518   0.00000  Uiso   1.00
C110   C     0.71907   0.08905   0.74869   0.00000  Uiso   1.00
C111   C     0.68161   0.13740   0.74261   0.00000  Uiso   1.00
C112   C     0.69972   0.18474   0.66389   0.00000  Uiso   1.00
C113   C     0.76098   0.02524   0.92186   0.00000  Uiso   1.00
C114   C     0.75876   0.01997   0.06137   0.00000  Uiso   1.00
C115   C     0.81217   0.01361   0.12846   0.00000  Uiso   1.00
H116   H     0.84853   0.02990   0.64508   0.00000  Uiso   1.00
H117   H     0.81859   0.93792   0.50544   0.00000  Uiso   1.00
H118   H     0.83243   0.13447   0.54573   0.00000  Uiso   1.00
H119   H     0.90957   0.01705   0.86445   0.00000  Uiso   1.00
H120   H     0.76172   0.83642   0.38149   0.00000  Uiso   1.00
H121   H     0.79092   0.25085   0.46648   0.00000  Uiso   1.00
H122   H     0.95359   0.00326   0.13856   0.00000  Uiso   1.00
H123   H     0.66619   0.03343   0.88312   0.00000  Uiso   1.00
H124   H     0.62624   0.94164   0.75655   0.00000  Uiso   1.00
H125   H     0.64009   0.13819   0.79683   0.00000  Uiso   1.00
H126   H     0.71723   0.02078   0.11555   0.00000  Uiso   1.00
H127   H     0.60560   0.83944   0.58529   0.00000  Uiso   1.00
H128   H     0.63481   0.25388   0.67028   0.00000  Uiso   1.00
H129   H     0.79748   0.00629   0.34236   0.00000  Uiso   1.00
O130   O     0.66066   0.77750   0.39580   0.00000  Uiso   1.00
O131   O     0.69898   0.32123   0.50733   0.00000  Uiso   1.00
O132   O     0.91241   0.99639   0.38907   0.00000  Uiso   1.00
N133   N     0.73046   0.84972   0.44685   0.00000  Uiso   1.00
N134   N     0.75776   0.23719   0.52629   0.00000  Uiso   1.00
N135   N     0.90985   0.00573   0.15463   0.00000  Uiso   1.00
N136   N     0.64646   0.85135   0.55651   0.00000  Uiso   1.00
N137   N     0.67376   0.23882   0.63595   0.00000  Uiso   1.00
N138   N     0.82585   0.00735   0.26429   0.00000  Uiso   1.00
C139   C     0.19325   0.96930   0.19961   0.00000  Uiso   1.00
C140   C     0.23480   0.01878   0.15677   0.00000  Uiso   1.00
C141   C     0.22294   0.06129   0.05964   0.00000  Uiso   1.00
C142   C     0.26670   0.10278   0.03500   0.00000  Uiso   1.00
C143   C     0.32306   0.17975   0.95777   0.00000  Uiso   1.00
C144   C     0.22728   0.91200   0.17864   0.00000  Uiso   1.00
C145   C     0.20910   0.86472   0.09992   0.00000  Uiso   1.00
C146   C     0.24652   0.81631   0.09372   0.00000  Uiso   1.00
C147   C     0.29120   0.72748   0.05052   0.00000  Uiso   1.00
C148   C     0.18536   0.97580   0.35180   0.00000  Uiso   1.00
C149   C     0.13194   0.98215   0.41869   0.00000  Uiso   1.00
C150   C     0.13408   0.98744   0.55828   0.00000  Uiso   1.00
C151   C     0.11367   0.99767   0.78395   0.00000  Uiso   1.00
C152   C     0.29203   0.96738   0.32858   0.00000  Uiso   1.00
C153   C     0.28845   0.01774   0.22682   0.00000  Uiso   1.00
C154   C     0.33224   0.05917   0.20233   0.00000  Uiso   1.00
C155   C     0.32045   0.10174   0.10518   0.00000  Uiso   1.00
C156   C     0.28093   0.91095   0.24869   0.00000  Uiso   1.00
C157   C     0.31839   0.86260   0.24261   0.00000  Uiso   1.00
C158   C     0.30028   0.81526   0.16389   0.00000  Uiso   1.00
C159   C     0.23902   0.97476   0.42186   0.00000  Uiso   1.00
C160   C     0.24124   0.98003   0.56137   0.00000  Uiso   1.00
C161   C     0.18783   0.98639   0.62846   0.00000  Uiso   1.00
H162   H     0.15147   0.97010   0.14508   0.00000  Uiso   1.00
H163   H     0.18141   0.06208   0.00544   0.00000  Uiso   1.00
H164   H     0.16757   0.86553   0.04573   0.00000  Uiso   1.00
H165   H     0.09043   0.98295   0.36445   0.00000  Uiso   1.00
H166   H     0.23828   0.16358   0.88149   0.00000  Uiso   1.00
H167   H     0.20908   0.74915   0.96648   0.00000  Uiso   1.00
H168   H     0.04641   0.99674   0.63856   0.00000  Uiso   1.00
H169   H     0.33381   0.96657   0.38312   0.00000  Uiso   1.00
H170   H     0.37376   0.05836   0.25655   0.00000  Uiso   1.00
H171   H     0.35991   0.86181   0.29683   0.00000  Uiso   1.00
H172   H     0.28277   0.97922   0.61555   0.00000  Uiso   1.00
H173   H     0.39440   0.16056   0.08529   0.00000  Uiso   1.00
H174   H     0.36519   0.74612   0.17028   0.00000  Uiso   1.00
H175   H     0.20252   0.99371   0.84236   0.00000  Uiso   1.00
O176   O     0.33934   0.22250   0.89580   0.00000  Uiso   1.00
O177   O     0.30102   0.67877   0.00733   0.00000  Uiso   1.00
O178   O     0.08759   0.00361   0.88907   0.00000  Uiso   1.00
N179   N     0.26954   0.15028   0.94685   0.00000  Uiso   1.00
N180   N     0.24224   0.76281   0.02629   0.00000  Uiso   1.00
N181   N     0.09015   0.99427   0.65463   0.00000  Uiso   1.00
N182   N     0.35354   0.14865   0.05651   0.00000  Uiso   1.00
N183   N     0.32624   0.76118   0.13595   0.00000  Uiso   1.00
N184   N     0.17415   0.99265   0.76429   0.00000  Uiso   1.00
C185   C     0.96930   0.19325   0.80039   0.00000  Uiso   1.00
C186   C     0.01878   0.23480   0.84323   0.00000  Uiso   1.00
C187   C     0.06129   0.22294   0.94036   0.00000  Uiso   1.00
C188   C     0.10278   0.26670   0.96500   0.00000  Uiso   1.00
C189   C     0.17975   0.32306   0.04223   0.00000  Uiso   1.00
C190   C     0.91200   0.22728   0.82136   0.00000  Uiso   1.00
C191   C     0.86472   0.20910   0.90008   0.00000  Uiso   1.00
C192   C     0.81631   0.24652   0.90628   0.00000  Uiso   1.00
C193   C     0.72748   0.29120   0.94948   0.00000  Uiso   1.00
C194   C     0.97580   0.18536   0.64820   0.00000  Uiso   1.00
C195   C     0.98215   0.13194   0.58131   0.00000  Uiso   1.00
C196   C     0.98744   0.13408   0.44172   0.00000  Uiso   1.00
C197   C     0.99767   0.11367   0.21605   0.00000  Uiso   1.00
C198   C     0.96738   0.29203   0.67142   0.00000  Uiso   1.00
C199   C     0.01774   0.28845   0.77318   0.00000  Uiso   1.00
C200   C     0.05917   0.33224   0.79767   0.00000  Uiso   1.00
C201   C     0.10174   0.32045   0.89482   0.00000  Uiso   1.00
C202   C     0.91095   0.28093   0.75131   0.00000  Uiso   1.00
C203   C     0.86260   0.31839   0.75739   0.00000  Uiso   1.00
C204   C     0.81526   0.30028   0.83611   0.00000  Uiso   1.00
C205   C     0.97476   0.23902   0.57814   0.00000  Uiso   1.00
C206   C     0.98003   0.24124   0.43863   0.00000  Uiso   1.00
C207   C     0.98639   0.18783   0.37154   0.00000  Uiso   1.00
H208   H     0.97010   0.15147   0.85492   0.00000  Uiso   1.00
H209   H     0.06208   0.18141   0.99456   0.00000  Uiso   1.00
H210   H     0.86553   0.16757   0.95427   0.00000  Uiso   1.00
H211   H     0.98295   0.09043   0.63555   0.00000  Uiso   1.00
H212   H     0.16358   0.23828   0.11851   0.00000  Uiso   1.00
H213   H     0.74915   0.20908   0.03352   0.00000  Uiso   1.00
H214   H     0.99674   0.04641   0.36144   0.00000  Uiso   1.00
H215   H     0.96657   0.33381   0.61688   0.00000  Uiso   1.00
H216   H     0.05836   0.37376   0.74345   0.00000  Uiso   1.00
H217   H     0.86181   0.35991   0.70317   0.00000  Uiso   1.00
H218   H     0.97922   0.28277   0.38445   0.00000  Uiso   1.00
H219   H     0.16056   0.39440   0.91471   0.00000  Uiso   1.00
H220   H     0.74612   0.36519   0.82972   0.00000  Uiso   1.00
H221   H     0.99371   0.20252   0.15764   0.00000  Uiso   1.00
O222   O     0.22250   0.33934   0.10420   0.00000  Uiso   1.00
O223   O     0.67877   0.30102   0.99267   0.00000  Uiso   1.00
O224   O     0.00361   0.08759   0.11093   0.00000  Uiso   1.00
N225   N     0.15028   0.26954   0.05315   0.00000  Uiso   1.00
N226   N     0.76281   0.24224   0.97371   0.00000  Uiso   1.00
N227   N     0.99427   0.09015   0.34537   0.00000  Uiso   1.00
N228   N     0.14865   0.35354   0.94349   0.00000  Uiso   1.00
N229   N     0.76118   0.32624   0.86405   0.00000  Uiso   1.00
N230   N     0.99265   0.17415   0.23571   0.00000  Uiso   1.00
C231   C     0.03070   0.80675   0.30039   0.00000  Uiso   1.00
C232   C     0.98122   0.76520   0.34323   0.00000  Uiso   1.00
C233   C     0.93871   0.77706   0.44036   0.00000  Uiso   1.00
C234   C     0.89722   0.73330   0.46500   0.00000  Uiso   1.00
C235   C     0.82025   0.67694   0.54223   0.00000  Uiso   1.00
C236   C     0.08800   0.77272   0.32136   0.00000  Uiso   1.00
C237   C     0.13528   0.79090   0.40008   0.00000  Uiso   1.00
C238   C     0.18369   0.75348   0.40628   0.00000  Uiso   1.00
C239   C     0.27252   0.70880   0.44948   0.00000  Uiso   1.00
C240   C     0.02420   0.81464   0.14820   0.00000  Uiso   1.00
C241   C     0.01785   0.86806   0.08131   0.00000  Uiso   1.00
C242   C     0.01256   0.86592   0.94172   0.00000  Uiso   1.00
C243   C     0.00233   0.88633   0.71605   0.00000  Uiso   1.00
C244   C     0.03262   0.70797   0.17142   0.00000  Uiso   1.00
C245   C     0.98226   0.71155   0.27318   0.00000  Uiso   1.00
C246   C     0.94083   0.66776   0.29767   0.00000  Uiso   1.00
C247   C     0.89826   0.67955   0.39482   0.00000  Uiso   1.00
C248   C     0.08905   0.71907   0.25131   0.00000  Uiso   1.00
C249   C     0.13740   0.68161   0.25739   0.00000  Uiso   1.00
C250   C     0.18474   0.69972   0.33611   0.00000  Uiso   1.00
C251   C     0.02524   0.76098   0.07814   0.00000  Uiso   1.00
C252   C     0.01997   0.75876   0.93863   0.00000  Uiso   1.00
C253   C     0.01361   0.81217   0.87154   0.00000  Uiso   1.00
H254   H     0.02990   0.84853   0.35492   0.00000  Uiso   1.00
H255   H     0.93792   0.81859   0.49456   0.00000  Uiso   1.00
H256   H     0.13447   0.83243   0.45427   0.00000  Uiso   1.00
H257   H     0.01705   0.90957   0.13555   0.00000  Uiso   1.00
H258   H     0.83642   0.76172   0.61851   0.00000  Uiso   1.00
H259   H     0.25085   0.79092   0.53352   0.00000  Uiso   1.00
H260   H     0.00326   0.95359   0.86144   0.00000  Uiso   1.00
H261   H     0.03343   0.66619   0.11688   0.00000  Uiso   1.00
H262   H     0.94164   0.62624   0.24345   0.00000  Uiso   1.00
H263   H     0.13819   0.64009   0.20317   0.00000  Uiso   1.00
H264   H     0.02078   0.71723   0.88445   0.00000  Uiso   1.00
H265   H     0.83944   0.60560   0.41471   0.00000  Uiso   1.00
H266   H     0.25388   0.63481   0.32972   0.00000  Uiso   1.00
H267   H     0.00629   0.79748   0.65764   0.00000  Uiso   1.00
O268   O     0.77750   0.66066   0.60420   0.00000  Uiso   1.00
O269   O     0.32123   0.69898   0.49267   0.00000  Uiso   1.00
O270   O     0.99639   0.91241   0.61093   0.00000  Uiso   1.00
N271   N     0.84972   0.73046   0.55315   0.00000  Uiso   1.00
N272   N     0.23719   0.75776   0.47371   0.00000  Uiso   1.00
N273   N     0.00573   0.90985   0.84537   0.00000  Uiso   1.00
N274   N     0.85135   0.64646   0.44349   0.00000  Uiso   1.00
N275   N     0.23882   0.67376   0.36405   0.00000  Uiso   1.00
N276   N     0.00735   0.82585   0.73571   0.00000  Uiso   1.00
C277   C     0.69325   0.53070   0.05039   0.00000  Uiso   1.00
C278   C     0.73480   0.48122   0.09323   0.00000  Uiso   1.00
C279   C     0.72294   0.43871   0.19036   0.00000  Uiso   1.00
C280   C     0.76670   0.39722   0.21500   0.00000  Uiso   1.00
C281   C     0.82306   0.32025   0.29223   0.00000  Uiso   1.00
C282   C     0.72728   0.58800   0.07136   0.00000  Uiso   1.00
C283   C     0.70910   0.63528   0.15008   0.00000  Uiso   1.00
C284   C     0.74652   0.68369   0.15628   0.00000  Uiso   1.00
C285   C     0.79120   0.77252   0.19948   0.00000  Uiso   1.00
C286   C     0.68536   0.52420   0.89820   0.00000  Uiso   1.00
C287   C     0.63194   0.51785   0.83131   0.00000  Uiso   1.00
C288   C     0.63408   0.51256   0.69172   0.00000  Uiso   1.00
C289   C     0.61367   0.50233   0.46605   0.00000  Uiso   1.00
C290   C     0.79203   0.53262   0.92142   0.00000  Uiso   1.00
C291   C     0.78845   0.48226   0.02318   0.00000  Uiso   1.00
C292   C     0.83224   0.44083   0.04767   0.00000  Uiso   1.00
C293   C     0.82045   0.39826   0.14482   0.00000  Uiso   1.00
C294   C     0.78093   0.58905   0.00131   0.00000  Uiso   1.00
C295   C     0.81839   0.63740   0.00739   0.00000  Uiso   1.00
C296   C     0.80028   0.68474   0.08611   0.00000  Uiso   1.00
C297   C     0.73902   0.52524   0.82814   0.00000  Uiso   1.00
C298   C     0.74124   0.51997   0.68863   0.00000  Uiso   1.00
C299   C     0.68783   0.51361   0.62154   0.00000  Uiso   1.00
H300   H     0.65147   0.52990   0.10492   0.00000  Uiso   1.00
H301   H     0.68141   0.43792   0.24456   0.00000  Uiso   1.00
H302   H     0.66757   0.63447   0.20427   0.00000  Uiso   1.00
H303   H     0.59043   0.51705   0.88555   0.00000  Uiso   1.00
H304   H     0.73828   0.33642   0.36851   0.00000  Uiso   1.00
H305   H     0.70908   0.75085   0.28352   0.00000  Uiso   1.00
H306   H     0.54641   0.50326   0.61144   0.00000  Uiso   1.00
H307   H     0.83381   0.53343   0.86688   0.00000  Uiso   1.00
H308   H     0.87376   0.44164   0.99345   0.00000  Uiso   1.00
H309   H     0.85991   0.63819   0.95317   0.00000  Uiso   1.00
H310   H     0.78277   0.52078   0.63445   0.00000  Uiso   1.00
H311   H     0.89440   0.33944   0.16471   0.00000  Uiso   1.00
H312   H     0.86519   0.75388   0.07972   0.00000  Uiso   1.00
H313   H     0.70252   0.50629   0.40764   0.00000  Uiso   1.00
O314   O     0.83934   0.27750   0.35420   0.00000  Uiso   1.00
O315   O     0.80102   0.82123   0.24267   0.00000  Uiso   1.00
O316   O     0.58759   0.49639   0.36093   0.00000  Uiso   1.00
N317   N     0.76954   0.34972   0.30315   0.00000  Uiso   1.00
N318   N     0.74224   0.73719   0.22371   0.00000  Uiso   1.00
N319   N     0.59015   0.50573   0.59537   0.00000  Uiso   1.00
N320   N     0.85354   0.35135   0.19349   0.00000  Uiso   1.00
N321   N     0.82624   0.73882   0.11405   0.00000  Uiso   1.00
N322   N     0.67415   0.50735   0.48571   0.00000  Uiso   1.00
C323   C     0.30675   0.46930   0.55039   0.00000  Uiso   1.00
C324   C     0.26520   0.51878   0.59323   0.00000  Uiso   1.00
C325   C     0.27706   0.56129   0.69036   0.00000  Uiso   1.00
C326   C     0.23330   0.60278   0.71500   0.00000  Uiso   1.00
C327   C     0.17694   0.67975   0.79223   0.00000  Uiso   1.00
C328   C     0.27272   0.41200   0.57136   0.00000  Uiso   1.00
C329   C     0.29090   0.36472   0.65008   0.00000  Uiso   1.00
C330   C     0.25348   0.31631   0.65628   0.00000  Uiso   1.00
C331   C     0.20880   0.22748   0.69948   0.00000  Uiso   1.00
C332   C     0.31464   0.47580   0.39820   0.00000  Uiso   1.00
C333   C     0.36806   0.48215   0.33131   0.00000  Uiso   1.00
C334   C     0.36592   0.48744   0.19172   0.00000  Uiso   1.00
C335   C     0.38633   0.49767   0.96605   0.00000  Uiso   1.00
C336   C     0.20797   0.46738   0.42142   0.00000  Uiso   1.00
C337   C     0.21155   0.51774   0.52318   0.00000  Uiso   1.00
C338   C     0.16776   0.55917   0.54767   0.00000  Uiso   1.00
C339   C     0.17955   0.60174   0.64482   0.00000  Uiso   1.00
C340   C     0.21907   0.41095   0.50131   0.00000  Uiso   1.00
C341   C     0.18161   0.36260   0.50739   0.00000  Uiso   1.00
C342   C     0.19972   0.31526   0.58611   0.00000  Uiso   1.00
C343   C     0.26098   0.47476   0.32814   0.00000  Uiso   1.00
C344   C     0.25876   0.48003   0.18863   0.00000  Uiso   1.00
C345   C     0.31217   0.48639   0.12154   0.00000  Uiso   1.00
H346   H     0.34853   0.47010   0.60492   0.00000  Uiso   1.00
H347   H     0.31859   0.56208   0.74456   0.00000  Uiso   1.00
H348   H     0.33243   0.36553   0.70427   0.00000  Uiso   1.00
H349   H     0.40957   0.48295   0.38555   0.00000  Uiso   1.00
H350   H     0.26172   0.66358   0.86851   0.00000  Uiso   1.00
H351   H     0.29092   0.24915   0.78352   0.00000  Uiso   1.00
H352   H     0.45359   0.49674   0.11144   0.00000  Uiso   1.00
H353   H     0.16619   0.46657   0.36688   0.00000  Uiso   1.00
H354   H     0.12624   0.55836   0.49345   0.00000  Uiso   1.00
H355   H     0.14009   0.36181   0.45317   0.00000  Uiso   1.00
H356   H     0.21723   0.47922   0.13445   0.00000  Uiso   1.00
H357   H     0.10560   0.66056   0.66471   0.00000  Uiso   1.00
H358   H     0.13481   0.24612   0.57972   0.00000  Uiso   1.00
H359   H     0.29748   0.49371   0.90764   0.00000  Uiso   1.00
O360   O     0.16066   0.72250   0.85420   0.00000  Uiso   1.00
O361   O     0.19898   0.17877   0.74267   0.00000  Uiso   1.00
O362   O     0.41241   0.50361   0.86093   0.00000  Uiso   1.00
N363   N     0.23046   0.65028   0.80315   0.00000  Uiso   1.00
N364   N     0.25776   0.26281   0.72371   0.00000  Uiso   1.00
N365   N     0.40985   0.49427   0.09537   0.00000  Uiso   1.00
N366   N     0.14646   0.64865   0.69349   0.00000  Uiso   1.00
N367   N     0.17376   0.26118   0.61405   0.00000  Uiso   1.00
N368   N     0.32585   0.49265   0.98571   0.00000  Uiso   1.00
