data_job_06309
_audit_creation_date              2018-12-19
_audit_creation_method            'Materials Studio'
_symmetry_space_group_name_H-M    'P1'
_symmetry_Int_Tables_number       1
_symmetry_cell_setting            triclinic
loop_
_symmetry_equiv_pos_as_xyz
  x,y,z
_cell_length_a                    12.7716
_cell_length_b                    20.0429
_cell_length_c                    20.9733
_cell_angle_alpha                 115.2710
_cell_angle_beta                  77.2031
_cell_angle_gamma                 83.0771
loop_
_atom_site_label
_atom_site_type_symbol
_atom_site_fract_x
_atom_site_fract_y
_atom_site_fract_z
_atom_site_U_iso_or_equiv
_atom_site_adp_type
_atom_site_occupancy
C1     C     0.18647   0.49224   0.60117   0.00000  Uiso   1.00
C2     C     0.07028   0.54257   0.62746   0.00000  Uiso   1.00
C3     C     0.02333   0.56878   0.58621   0.00000  Uiso   1.00
C4     C     0.91601   0.61418   0.62022   0.00000  Uiso   1.00
C5     C     0.74446   0.68955   0.64999   0.00000  Uiso   1.00
C6     C     0.24392   0.53518   0.65707   0.00000  Uiso   1.00
C7     C     0.34299   0.55517   0.64072   0.00000  Uiso   1.00
C8     C     0.38184   0.59434   0.69966   0.00000  Uiso   1.00
C9     C     0.47992   0.65819   0.77541   0.00000  Uiso   1.00
C10    C     0.17179   0.42229   0.61065   0.00000  Uiso   1.00
C11    C     0.21024   0.34735   0.55527   0.00000  Uiso   1.00
C12    C     0.18839   0.29147   0.57513   0.00000  Uiso   1.00
C13    C     0.17449   0.18003   0.57879   0.00000  Uiso   1.00
C14    C     0.07934   0.52625   0.73492   0.00000  Uiso   1.00
C15    C     0.01209   0.56104   0.70010   0.00000  Uiso   1.00
C16    C     0.90481   0.60641   0.73418   0.00000  Uiso   1.00
C17    C     0.85771   0.63269   0.69299   0.00000  Uiso   1.00
C18    C     0.18574   0.55365   0.72972   0.00000  Uiso   1.00
C19    C     0.22446   0.59280   0.78870   0.00000  Uiso   1.00
C20    C     0.32355   0.61285   0.77244   0.00000  Uiso   1.00
C21    C     0.11360   0.44075   0.68329   0.00000  Uiso   1.00
C22    C     0.09170   0.38498   0.70324   0.00000  Uiso   1.00
C23    C     0.13010   0.30997   0.64790   0.00000  Uiso   1.00
H24    H     0.23177   0.47786   0.54462   0.00000  Uiso   1.00
H25    H     0.06840   0.55448   0.52999   0.00000  Uiso   1.00
H26    H     0.38800   0.54086   0.58450   0.00000  Uiso   1.00
H27    H     0.25526   0.33308   0.49906   0.00000  Uiso   1.00
H28    H     0.86161   0.64760   0.54582   0.00000  Uiso   1.00
H29    H     0.53554   0.61886   0.66075   0.00000  Uiso   1.00
H30    H     0.25565   0.18070   0.48058   0.00000  Uiso   1.00
H31    H     0.03404   0.54063   0.79148   0.00000  Uiso   1.00
H32    H     0.85980   0.62069   0.79040   0.00000  Uiso   1.00
H33    H     0.17941   0.60708   0.84491   0.00000  Uiso   1.00
H34    H     0.04667   0.39929   0.75947   0.00000  Uiso   1.00
H35    H     0.69231   0.70134   0.75718   0.00000  Uiso   1.00
H36    H     0.36624   0.67261   0.87211   0.00000  Uiso   1.00
H37    H     0.08634   0.23445   0.69194   0.00000  Uiso   1.00
O38    O     0.66593   0.72603   0.64635   0.00000  Uiso   1.00
O39    O     0.55010   0.68831   0.79712   0.00000  Uiso   1.00
O40    O     0.18288   0.11346   0.56074   0.00000  Uiso   1.00
N41    N     0.84567   0.64925   0.59571   0.00000  Uiso   1.00
N42    N     0.47574   0.62239   0.70316   0.00000  Uiso   1.00
N43    N     0.21409   0.21275   0.53472   0.00000  Uiso   1.00
N44    N     0.75457   0.67817   0.70944   0.00000  Uiso   1.00
N45    N     0.38464   0.65131   0.81689   0.00000  Uiso   1.00
N46    N     0.12299   0.24167   0.64845   0.00000  Uiso   1.00
C47    C     0.78299   0.42239   0.88283   0.00000  Uiso   1.00
C48    C     0.69204   0.38792   0.90745   0.00000  Uiso   1.00
C49    C     0.60533   0.42487   0.97307   0.00000  Uiso   1.00
C50    C     0.53069   0.38349   0.98540   0.00000  Uiso   1.00
C51    C     0.38770   0.34147   0.03149   0.00000  Uiso   1.00
C52    C     0.89219   0.37018   0.86856   0.00000  Uiso   1.00
C53    C     0.97376   0.39222   0.90147   0.00000  Uiso   1.00
C54    C     0.06762   0.33590   0.88104   0.00000  Uiso   1.00
C55    C     0.23541   0.26635   0.86671   0.00000  Uiso   1.00
C56    C     0.77958   0.41367   0.80750   0.00000  Uiso   1.00
C57    C     0.76650   0.47227   0.78905   0.00000  Uiso   1.00
C58    C     0.76557   0.45256   0.71720   0.00000  Uiso   1.00
C59    C     0.75852   0.45052   0.60806   0.00000  Uiso   1.00
C60    C     0.80463   0.28320   0.78802   0.00000  Uiso   1.00
C61    C     0.70380   0.31232   0.85596   0.00000  Uiso   1.00
C62    C     0.62927   0.27087   0.86818   0.00000  Uiso   1.00
C63    C     0.54246   0.30776   0.93381   0.00000  Uiso   1.00
C64    C     0.90395   0.29458   0.81706   0.00000  Uiso   1.00
C65    C     0.99771   0.23822   0.79657   0.00000  Uiso   1.00
C66    C     0.07940   0.26016   0.82945   0.00000  Uiso   1.00
C67    C     0.79133   0.33806   0.75600   0.00000  Uiso   1.00
C68    C     0.79044   0.31827   0.68416   0.00000  Uiso   1.00
C69    C     0.77735   0.37682   0.66561   0.00000  Uiso   1.00
H70    H     0.77385   0.48124   0.92292   0.00000  Uiso   1.00
H71    H     0.59626   0.48338   0.01292   0.00000  Uiso   1.00
H72    H     0.96465   0.45073   0.94132   0.00000  Uiso   1.00
H73    H     0.75741   0.53076   0.82892   0.00000  Uiso   1.00
H74    H     0.40459   0.45239   0.09000   0.00000  Uiso   1.00
H75    H     0.18136   0.38356   0.93901   0.00000  Uiso   1.00
H76    H     0.74436   0.55233   0.70199   0.00000  Uiso   1.00
H77    H     0.81378   0.22433   0.74792   0.00000  Uiso   1.00
H78    H     0.63838   0.21237   0.82832   0.00000  Uiso   1.00
H79    H     0.00677   0.17972   0.75672   0.00000  Uiso   1.00
H80    H     0.79953   0.25975   0.64432   0.00000  Uiso   1.00
H81    H     0.43878   0.23243   0.94017   0.00000  Uiso   1.00
H82    H     0.21556   0.16360   0.78918   0.00000  Uiso   1.00
H83    H     0.77856   0.33236   0.55217   0.00000  Uiso   1.00
O84    O     0.30560   0.33917   0.07114   0.00000  Uiso   1.00
O85    O     0.32471   0.24887   0.87304   0.00000  Uiso   1.00
O86    O     0.75137   0.47028   0.56209   0.00000  Uiso   1.00
N87    N     0.43669   0.40227   0.04370   0.00000  Uiso   1.00
N88    N     0.16293   0.33791   0.90254   0.00000  Uiso   1.00
N89    N     0.75440   0.49569   0.68095   0.00000  Uiso   1.00
N90    N     0.45509   0.28391   0.96308   0.00000  Uiso   1.00
N91    N     0.18132   0.21955   0.82192   0.00000  Uiso   1.00
N92    N     0.77279   0.37733   0.60033   0.00000  Uiso   1.00
C93    C     0.65932   0.13933   0.53156   0.00000  Uiso   1.00
C94    C     0.59412   0.11000   0.47675   0.00000  Uiso   1.00
C95    C     0.57043   0.03905   0.45013   0.00000  Uiso   1.00
C96    C     0.50972   0.02303   0.40033   0.00000  Uiso   1.00
C97    C     0.41395   0.96940   0.31860   0.00000  Uiso   1.00
C98    C     0.75496   0.16157   0.49367   0.00000  Uiso   1.00
C99    C     0.86651   0.13399   0.48129   0.00000  Uiso   1.00
C100   C     0.94119   0.16139   0.44575   0.00000  Uiso   1.00
C101   C     0.09512   0.18786   0.39034   0.00000  Uiso   1.00
C102   C     0.58388   0.21338   0.59608   0.00000  Uiso   1.00
C103   C     0.55159   0.22938   0.66980   0.00000  Uiso   1.00
C104   C     0.48225   0.30041   0.72047   0.00000  Uiso   1.00
C105   C     0.37055   0.40732   0.82406   0.00000  Uiso   1.00
C106   C     0.59362   0.23704   0.49046   0.00000  Uiso   1.00
C107   C     0.55843   0.16307   0.45443   0.00000  Uiso   1.00
C108   C     0.49773   0.14715   0.40466   0.00000  Uiso   1.00
C109   C     0.47396   0.07620   0.37797   0.00000  Uiso   1.00
C110   C     0.71927   0.21464   0.47135   0.00000  Uiso   1.00
C111   C     0.79381   0.24209   0.43582   0.00000  Uiso   1.00
C112   C     0.90543   0.21456   0.42339   0.00000  Uiso   1.00
C113   C     0.54818   0.26645   0.57376   0.00000  Uiso   1.00
C114   C     0.47889   0.33747   0.62433   0.00000  Uiso   1.00
C115   C     0.44650   0.35357   0.69811   0.00000  Uiso   1.00
H116   H     0.68712   0.09802   0.54893   0.00000  Uiso   1.00
H117   H     0.59808   0.99799   0.46741   0.00000  Uiso   1.00
H118   H     0.89410   0.09293   0.49858   0.00000  Uiso   1.00
H119   H     0.57923   0.18829   0.68705   0.00000  Uiso   1.00
H120   H     0.48365   0.91050   0.36717   0.00000  Uiso   1.00
H121   H     0.10783   0.11068   0.43290   0.00000  Uiso   1.00
H122   H     0.44387   0.31179   0.83034   0.00000  Uiso   1.00
H123   H     0.56583   0.27836   0.47308   0.00000  Uiso   1.00
H124   H     0.47012   0.18823   0.38740   0.00000  Uiso   1.00
H125   H     0.76616   0.28316   0.41856   0.00000  Uiso   1.00
H126   H     0.45128   0.37853   0.60703   0.00000  Uiso   1.00
H127   H     0.37981   0.06490   0.30222   0.00000  Uiso   1.00
H128   H     0.00399   0.26509   0.36796   0.00000  Uiso   1.00
H129   H     0.34002   0.46619   0.76539   0.00000  Uiso   1.00
O130   O     0.37099   0.92515   0.27968   0.00000  Uiso   1.00
O131   O     0.18989   0.18779   0.36594   0.00000  Uiso   1.00
O132   O     0.31878   0.45163   0.88736   0.00000  Uiso   1.00
N133   N     0.47233   0.95921   0.36365   0.00000  Uiso   1.00
N134   N     0.05590   0.14636   0.42510   0.00000  Uiso   1.00
N135   N     0.43517   0.33438   0.79667   0.00000  Uiso   1.00
N136   N     0.41645   0.04229   0.32871   0.00000  Uiso   1.00
N137   N     0.00002   0.22945   0.39015   0.00000  Uiso   1.00
N138   N     0.37929   0.41747   0.76173   0.00000  Uiso   1.00
C139   C     0.81353   0.50776   0.39883   0.00000  Uiso   1.00
C140   C     0.92972   0.45743   0.37254   0.00000  Uiso   1.00
C141   C     0.97667   0.43122   0.41379   0.00000  Uiso   1.00
C142   C     0.08399   0.38582   0.37978   0.00000  Uiso   1.00
C143   C     0.25554   0.31045   0.35001   0.00000  Uiso   1.00
C144   C     0.75608   0.46482   0.34293   0.00000  Uiso   1.00
C145   C     0.65702   0.44483   0.35928   0.00000  Uiso   1.00
C146   C     0.61816   0.40566   0.30033   0.00000  Uiso   1.00
C147   C     0.52008   0.34181   0.22459   0.00000  Uiso   1.00
C148   C     0.82821   0.57771   0.38935   0.00000  Uiso   1.00
C149   C     0.78976   0.65265   0.44473   0.00000  Uiso   1.00
C150   C     0.81161   0.70853   0.42487   0.00000  Uiso   1.00
C151   C     0.82551   0.81997   0.42121   0.00000  Uiso   1.00
C152   C     0.92066   0.47375   0.26508   0.00000  Uiso   1.00
C153   C     0.98791   0.43896   0.29990   0.00000  Uiso   1.00
C154   C     0.09519   0.39359   0.26582   0.00000  Uiso   1.00
C155   C     0.14229   0.36731   0.30701   0.00000  Uiso   1.00
C156   C     0.81426   0.44635   0.27028   0.00000  Uiso   1.00
C157   C     0.77554   0.40720   0.21130   0.00000  Uiso   1.00
C158   C     0.67645   0.38715   0.22756   0.00000  Uiso   1.00
C159   C     0.88640   0.55925   0.31671   0.00000  Uiso   1.00
C160   C     0.90830   0.61502   0.29676   0.00000  Uiso   1.00
C161   C     0.86990   0.69002   0.35209   0.00000  Uiso   1.00
H162   H     0.76823   0.52214   0.45538   0.00000  Uiso   1.00
H163   H     0.93160   0.44552   0.47001   0.00000  Uiso   1.00
H164   H     0.61200   0.45914   0.41550   0.00000  Uiso   1.00
H165   H     0.74474   0.66692   0.50094   0.00000  Uiso   1.00
H166   H     0.13839   0.35240   0.45418   0.00000  Uiso   1.00
H167   H     0.46446   0.38114   0.33925   0.00000  Uiso   1.00
H168   H     0.74435   0.81930   0.51942   0.00000  Uiso   1.00
H169   H     0.96596   0.45937   0.20852   0.00000  Uiso   1.00
H170   H     0.14020   0.37931   0.20960   0.00000  Uiso   1.00
H171   H     0.82059   0.39292   0.15509   0.00000  Uiso   1.00
H172   H     0.95333   0.60071   0.24053   0.00000  Uiso   1.00
H173   H     0.30769   0.29866   0.24282   0.00000  Uiso   1.00
H174   H     0.63376   0.32739   0.12789   0.00000  Uiso   1.00
H175   H     0.91366   0.76555   0.30806   0.00000  Uiso   1.00
O176   O     0.33407   0.27397   0.35365   0.00000  Uiso   1.00
O177   O     0.44990   0.31169   0.20288   0.00000  Uiso   1.00
O178   O     0.81712   0.88654   0.43926   0.00000  Uiso   1.00
N179   N     0.15433   0.35075   0.40429   0.00000  Uiso   1.00
N180   N     0.52426   0.37761   0.29684   0.00000  Uiso   1.00
N181   N     0.78591   0.78725   0.46528   0.00000  Uiso   1.00
N182   N     0.24543   0.32183   0.29056   0.00000  Uiso   1.00
N183   N     0.61536   0.34869   0.18311   0.00000  Uiso   1.00
N184   N     0.87701   0.75833   0.35155   0.00000  Uiso   1.00
C185   C     0.21701   0.57761   0.11717   0.00000  Uiso   1.00
C186   C     0.30796   0.61208   0.09255   0.00000  Uiso   1.00
C187   C     0.39468   0.57513   0.02693   0.00000  Uiso   1.00
C188   C     0.46931   0.61651   0.01460   0.00000  Uiso   1.00
C189   C     0.61230   0.65853   0.96851   0.00000  Uiso   1.00
C190   C     0.10781   0.62982   0.13144   0.00000  Uiso   1.00
C191   C     0.02624   0.60778   0.09853   0.00000  Uiso   1.00
C192   C     0.93238   0.66410   0.11896   0.00000  Uiso   1.00
C193   C     0.76459   0.73365   0.13329   0.00000  Uiso   1.00
C194   C     0.22042   0.58633   0.19250   0.00000  Uiso   1.00
C195   C     0.23350   0.52773   0.21095   0.00000  Uiso   1.00
C196   C     0.23443   0.54744   0.28280   0.00000  Uiso   1.00
C197   C     0.24148   0.54948   0.39194   0.00000  Uiso   1.00
C198   C     0.19537   0.71680   0.21198   0.00000  Uiso   1.00
C199   C     0.29620   0.68768   0.14404   0.00000  Uiso   1.00
C200   C     0.37073   0.72913   0.13182   0.00000  Uiso   1.00
C201   C     0.45754   0.69224   0.06619   0.00000  Uiso   1.00
C202   C     0.09605   0.70542   0.18294   0.00000  Uiso   1.00
C203   C     0.00230   0.76178   0.20343   0.00000  Uiso   1.00
C204   C     0.92060   0.73984   0.17055   0.00000  Uiso   1.00
C205   C     0.20867   0.66194   0.24400   0.00000  Uiso   1.00
C206   C     0.20956   0.68173   0.31584   0.00000  Uiso   1.00
C207   C     0.22265   0.62318   0.33439   0.00000  Uiso   1.00
H208   H     0.22616   0.51876   0.07708   0.00000  Uiso   1.00
H209   H     0.40374   0.51662   0.98708   0.00000  Uiso   1.00
H210   H     0.03535   0.54927   0.05868   0.00000  Uiso   1.00
H211   H     0.24259   0.46924   0.17108   0.00000  Uiso   1.00
H212   H     0.59541   0.54761   0.91000   0.00000  Uiso   1.00
H213   H     0.81864   0.61644   0.06099   0.00000  Uiso   1.00
H214   H     0.25564   0.44767   0.29800   0.00000  Uiso   1.00
H215   H     0.18622   0.77567   0.25208   0.00000  Uiso   1.00
H216   H     0.36162   0.78763   0.17168   0.00000  Uiso   1.00
H217   H     0.99323   0.82028   0.24328   0.00000  Uiso   1.00
H218   H     0.20047   0.74025   0.35568   0.00000  Uiso   1.00
H219   H     0.56122   0.76757   0.05983   0.00000  Uiso   1.00
H220   H     0.78444   0.83640   0.21082   0.00000  Uiso   1.00
H221   H     0.22144   0.66764   0.44783   0.00000  Uiso   1.00
O222   O     0.69440   0.66083   0.92886   0.00000  Uiso   1.00
O223   O     0.67529   0.75113   0.12696   0.00000  Uiso   1.00
O224   O     0.24863   0.52972   0.43791   0.00000  Uiso   1.00
N225   N     0.56331   0.59773   0.95630   0.00000  Uiso   1.00
N226   N     0.83708   0.66209   0.09746   0.00000  Uiso   1.00
N227   N     0.24560   0.50431   0.31905   0.00000  Uiso   1.00
N228   N     0.54491   0.71609   0.03692   0.00000  Uiso   1.00
N229   N     0.81868   0.78045   0.17808   0.00000  Uiso   1.00
N230   N     0.22721   0.62267   0.39967   0.00000  Uiso   1.00
C231   C     0.34068   0.86067   0.46844   0.00000  Uiso   1.00
C232   C     0.40588   0.89000   0.52325   0.00000  Uiso   1.00
C233   C     0.42957   0.96095   0.54987   0.00000  Uiso   1.00
C234   C     0.49028   0.97697   0.59967   0.00000  Uiso   1.00
C235   C     0.58605   0.03060   0.68140   0.00000  Uiso   1.00
C236   C     0.24504   0.83843   0.50633   0.00000  Uiso   1.00
C237   C     0.13349   0.86601   0.51871   0.00000  Uiso   1.00
C238   C     0.05881   0.83861   0.55425   0.00000  Uiso   1.00
C239   C     0.90488   0.81214   0.60966   0.00000  Uiso   1.00
C240   C     0.41612   0.78662   0.40392   0.00000  Uiso   1.00
C241   C     0.44841   0.77062   0.33020   0.00000  Uiso   1.00
C242   C     0.51775   0.69959   0.27952   0.00000  Uiso   1.00
C243   C     0.62945   0.59268   0.17594   0.00000  Uiso   1.00
C244   C     0.40639   0.76296   0.50954   0.00000  Uiso   1.00
C245   C     0.44157   0.83693   0.54557   0.00000  Uiso   1.00
C246   C     0.50227   0.85285   0.59534   0.00000  Uiso   1.00
C247   C     0.52604   0.92380   0.62203   0.00000  Uiso   1.00
C248   C     0.28073   0.78536   0.52865   0.00000  Uiso   1.00
C249   C     0.20619   0.75791   0.56418   0.00000  Uiso   1.00
C250   C     0.09457   0.78544   0.57661   0.00000  Uiso   1.00
C251   C     0.45182   0.73355   0.42624   0.00000  Uiso   1.00
C252   C     0.52111   0.66253   0.37567   0.00000  Uiso   1.00
C253   C     0.55350   0.64643   0.30189   0.00000  Uiso   1.00
H254   H     0.31288   0.90198   0.45106   0.00000  Uiso   1.00
H255   H     0.40192   0.00201   0.53259   0.00000  Uiso   1.00
H256   H     0.10590   0.90707   0.50142   0.00000  Uiso   1.00
H257   H     0.42077   0.81171   0.31295   0.00000  Uiso   1.00
H258   H     0.51635   0.08950   0.63283   0.00000  Uiso   1.00
H259   H     0.89217   0.88932   0.56710   0.00000  Uiso   1.00
H260   H     0.55613   0.68821   0.16966   0.00000  Uiso   1.00
H261   H     0.43417   0.72164   0.52692   0.00000  Uiso   1.00
H262   H     0.52988   0.81177   0.61260   0.00000  Uiso   1.00
H263   H     0.23385   0.71684   0.58144   0.00000  Uiso   1.00
H264   H     0.54872   0.62147   0.39296   0.00000  Uiso   1.00
H265   H     0.62019   0.93510   0.69778   0.00000  Uiso   1.00
H266   H     0.99601   0.73491   0.63204   0.00000  Uiso   1.00
H267   H     0.65998   0.53381   0.23461   0.00000  Uiso   1.00
O268   O     0.62901   0.07485   0.72032   0.00000  Uiso   1.00
O269   O     0.81011   0.81221   0.63406   0.00000  Uiso   1.00
O270   O     0.68122   0.54837   0.11264   0.00000  Uiso   1.00
N271   N     0.52767   0.04079   0.63635   0.00000  Uiso   1.00
N272   N     0.94410   0.85364   0.57490   0.00000  Uiso   1.00
N273   N     0.56483   0.66562   0.20333   0.00000  Uiso   1.00
N274   N     0.58355   0.95771   0.67129   0.00000  Uiso   1.00
N275   N     0.99998   0.77055   0.60984   0.00000  Uiso   1.00
N276   N     0.62071   0.58253   0.23827   0.00000  Uiso   1.00
