data_job_05869
_audit_creation_date              2018-12-19
_audit_creation_method            'Materials Studio'
_symmetry_space_group_name_H-M    'P1'
_symmetry_Int_Tables_number       1
_symmetry_cell_setting            triclinic
loop_
_symmetry_equiv_pos_as_xyz
  x,y,z
_cell_length_a                    17.7797
_cell_length_b                    7.5108
_cell_length_c                    17.1572
_cell_angle_alpha                 90.0000
_cell_angle_beta                  90.0000
_cell_angle_gamma                 90.0000
loop_
_atom_site_label
_atom_site_type_symbol
_atom_site_fract_x
_atom_site_fract_y
_atom_site_fract_z
_atom_site_U_iso_or_equiv
_atom_site_adp_type
_atom_site_occupancy
C1     C     0.77184   0.64526   0.37193   0.00000  Uiso   1.00
C2     C     0.82527   0.48650   0.37414   0.00000  Uiso   1.00
C3     C     0.90316   0.49515   0.37075   0.00000  Uiso   1.00
C4     C     0.94196   0.33485   0.37357   0.00000  Uiso   1.00
C5     C     0.03066   0.11313   0.37605   0.00000  Uiso   1.00
C6     C     0.71861   0.61166   0.30381   0.00000  Uiso   1.00
C7     C     0.70683   0.72555   0.24129   0.00000  Uiso   1.00
C8     C     0.65584   0.67061   0.18492   0.00000  Uiso   1.00
C9     C     0.57892   0.64325   0.07824   0.00000  Uiso   1.00
C10    C     0.72393   0.63199   0.44542   0.00000  Uiso   1.00
C11    C     0.71660   0.76299   0.50196   0.00000  Uiso   1.00
C12    C     0.67007   0.72518   0.56480   0.00000  Uiso   1.00
C13    C     0.60141   0.72940   0.67799   0.00000  Uiso   1.00
C14    C     0.70221   0.34520   0.38299   0.00000  Uiso   1.00
C15    C     0.78744   0.32353   0.38015   0.00000  Uiso   1.00
C16    C     0.82613   0.16317   0.38298   0.00000  Uiso   1.00
C17    C     0.90407   0.17158   0.37960   0.00000  Uiso   1.00
C18    C     0.68079   0.44869   0.30982   0.00000  Uiso   1.00
C19    C     0.62980   0.39357   0.25353   0.00000  Uiso   1.00
C20    C     0.61795   0.50734   0.19094   0.00000  Uiso   1.00
C21    C     0.68611   0.46901   0.45143   0.00000  Uiso   1.00
C22    C     0.63957   0.43100   0.51419   0.00000  Uiso   1.00
C23    C     0.63218   0.56191   0.57082   0.00000  Uiso   1.00
H24    H     0.80128   0.77214   0.36725   0.00000  Uiso   1.00
H25    H     0.93241   0.62130   0.36609   0.00000  Uiso   1.00
H26    H     0.73610   0.85166   0.23666   0.00000  Uiso   1.00
H27    H     0.74588   0.88909   0.49729   0.00000  Uiso   1.00
H28    H     0.06111   0.38218   0.36742   0.00000  Uiso   1.00
H29    H     0.64717   0.86795   0.09453   0.00000  Uiso   1.00
H30    H     0.66777   0.94688   0.64411   0.00000  Uiso   1.00
H31    H     0.67276   0.21831   0.38767   0.00000  Uiso   1.00
H32    H     0.79684   0.03707   0.38763   0.00000  Uiso   1.00
H33    H     0.60054   0.26744   0.25820   0.00000  Uiso   1.00
H34    H     0.61031   0.30487   0.51883   0.00000  Uiso   1.00
H35    H     0.95108   0.90800   0.38490   0.00000  Uiso   1.00
H36    H     0.53713   0.39378   0.11201   0.00000  Uiso   1.00
H37    H     0.55774   0.47270   0.66159   0.00000  Uiso   1.00
O38    O     0.09004   0.03586   0.37574   0.00000  Uiso   1.00
O39    O     0.54695   0.67319   0.01773   0.00000  Uiso   1.00
O40    O     0.57399   0.77673   0.73876   0.00000  Uiso   1.00
N41    N     0.01819   0.29546   0.37156   0.00000  Uiso   1.00
N42    N     0.63119   0.74961   0.11641   0.00000  Uiso   1.00
N43    N     0.65043   0.82342   0.63021   0.00000  Uiso   1.00
N44    N     0.95898   0.04031   0.38096   0.00000  Uiso   1.00
N45    N     0.57198   0.49446   0.12582   0.00000  Uiso   1.00
N46    N     0.59123   0.56827   0.63962   0.00000  Uiso   1.00
C47    C     0.22816   0.35474   0.87193   0.00000  Uiso   1.00
C48    C     0.17473   0.51350   0.87414   0.00000  Uiso   1.00
C49    C     0.09684   0.50485   0.87075   0.00000  Uiso   1.00
C50    C     0.05804   0.66515   0.87357   0.00000  Uiso   1.00
C51    C     0.96934   0.88687   0.87605   0.00000  Uiso   1.00
C52    C     0.28139   0.38834   0.80381   0.00000  Uiso   1.00
C53    C     0.29317   0.27445   0.74129   0.00000  Uiso   1.00
C54    C     0.34416   0.32939   0.68492   0.00000  Uiso   1.00
C55    C     0.42108   0.35675   0.57824   0.00000  Uiso   1.00
C56    C     0.27607   0.36801   0.94542   0.00000  Uiso   1.00
C57    C     0.28340   0.23701   0.00196   0.00000  Uiso   1.00
C58    C     0.32993   0.27482   0.06480   0.00000  Uiso   1.00
C59    C     0.39859   0.27060   0.17799   0.00000  Uiso   1.00
C60    C     0.29779   0.65480   0.88299   0.00000  Uiso   1.00
C61    C     0.21256   0.67647   0.88015   0.00000  Uiso   1.00
C62    C     0.17387   0.83683   0.88298   0.00000  Uiso   1.00
C63    C     0.09593   0.82842   0.87960   0.00000  Uiso   1.00
C64    C     0.31921   0.55131   0.80982   0.00000  Uiso   1.00
C65    C     0.37020   0.60643   0.75353   0.00000  Uiso   1.00
C66    C     0.38205   0.49266   0.69094   0.00000  Uiso   1.00
C67    C     0.31389   0.53099   0.95143   0.00000  Uiso   1.00
C68    C     0.36043   0.56900   0.01419   0.00000  Uiso   1.00
C69    C     0.36782   0.43809   0.07082   0.00000  Uiso   1.00
H70    H     0.19872   0.22786   0.86725   0.00000  Uiso   1.00
H71    H     0.06759   0.37870   0.86609   0.00000  Uiso   1.00
H72    H     0.26390   0.14834   0.73666   0.00000  Uiso   1.00
H73    H     0.25412   0.11091   0.99729   0.00000  Uiso   1.00
H74    H     0.93889   0.61782   0.86742   0.00000  Uiso   1.00
H75    H     0.35283   0.13205   0.59453   0.00000  Uiso   1.00
H76    H     0.33223   0.05312   0.14411   0.00000  Uiso   1.00
H77    H     0.32724   0.78169   0.88767   0.00000  Uiso   1.00
H78    H     0.20316   0.96293   0.88763   0.00000  Uiso   1.00
H79    H     0.39946   0.73256   0.75820   0.00000  Uiso   1.00
H80    H     0.38969   0.69513   0.01883   0.00000  Uiso   1.00
H81    H     0.04892   0.09200   0.88490   0.00000  Uiso   1.00
H82    H     0.46287   0.60622   0.61201   0.00000  Uiso   1.00
H83    H     0.44226   0.52730   0.16159   0.00000  Uiso   1.00
O84    O     0.90996   0.96414   0.87574   0.00000  Uiso   1.00
O85    O     0.45305   0.32681   0.51773   0.00000  Uiso   1.00
O86    O     0.42601   0.22327   0.23876   0.00000  Uiso   1.00
N87    N     0.98181   0.70454   0.87156   0.00000  Uiso   1.00
N88    N     0.36881   0.25039   0.61641   0.00000  Uiso   1.00
N89    N     0.34957   0.17658   0.13021   0.00000  Uiso   1.00
N90    N     0.04102   0.95969   0.88096   0.00000  Uiso   1.00
N91    N     0.42802   0.50554   0.62582   0.00000  Uiso   1.00
N92    N     0.40877   0.43173   0.13962   0.00000  Uiso   1.00
C93    C     0.27184   0.35474   0.37193   0.00000  Uiso   1.00
C94    C     0.32527   0.51350   0.37414   0.00000  Uiso   1.00
C95    C     0.40316   0.50485   0.37075   0.00000  Uiso   1.00
C96    C     0.44196   0.66515   0.37357   0.00000  Uiso   1.00
C97    C     0.53066   0.88687   0.37605   0.00000  Uiso   1.00
C98    C     0.21861   0.38834   0.30381   0.00000  Uiso   1.00
C99    C     0.20683   0.27445   0.24129   0.00000  Uiso   1.00
C100   C     0.15584   0.32939   0.18492   0.00000  Uiso   1.00
C101   C     0.07892   0.35675   0.07824   0.00000  Uiso   1.00
C102   C     0.22393   0.36801   0.44542   0.00000  Uiso   1.00
C103   C     0.21660   0.23701   0.50196   0.00000  Uiso   1.00
C104   C     0.17007   0.27482   0.56480   0.00000  Uiso   1.00
C105   C     0.10141   0.27060   0.67799   0.00000  Uiso   1.00
C106   C     0.20221   0.65480   0.38299   0.00000  Uiso   1.00
C107   C     0.28744   0.67647   0.38015   0.00000  Uiso   1.00
C108   C     0.32613   0.83683   0.38298   0.00000  Uiso   1.00
C109   C     0.40407   0.82842   0.37960   0.00000  Uiso   1.00
C110   C     0.18079   0.55131   0.30982   0.00000  Uiso   1.00
C111   C     0.12980   0.60643   0.25353   0.00000  Uiso   1.00
C112   C     0.11795   0.49266   0.19094   0.00000  Uiso   1.00
C113   C     0.18611   0.53099   0.45143   0.00000  Uiso   1.00
C114   C     0.13957   0.56900   0.51419   0.00000  Uiso   1.00
C115   C     0.13218   0.43809   0.57082   0.00000  Uiso   1.00
H116   H     0.30128   0.22786   0.36725   0.00000  Uiso   1.00
H117   H     0.43241   0.37870   0.36609   0.00000  Uiso   1.00
H118   H     0.23610   0.14834   0.23666   0.00000  Uiso   1.00
H119   H     0.24588   0.11091   0.49729   0.00000  Uiso   1.00
H120   H     0.56111   0.61782   0.36742   0.00000  Uiso   1.00
H121   H     0.14717   0.13205   0.09453   0.00000  Uiso   1.00
H122   H     0.16777   0.05312   0.64411   0.00000  Uiso   1.00
H123   H     0.17276   0.78169   0.38767   0.00000  Uiso   1.00
H124   H     0.29684   0.96293   0.38763   0.00000  Uiso   1.00
H125   H     0.10054   0.73256   0.25820   0.00000  Uiso   1.00
H126   H     0.11031   0.69513   0.51883   0.00000  Uiso   1.00
H127   H     0.45108   0.09200   0.38490   0.00000  Uiso   1.00
H128   H     0.03713   0.60622   0.11201   0.00000  Uiso   1.00
H129   H     0.05774   0.52730   0.66159   0.00000  Uiso   1.00
O130   O     0.59004   0.96414   0.37574   0.00000  Uiso   1.00
O131   O     0.04695   0.32681   0.01773   0.00000  Uiso   1.00
O132   O     0.07399   0.22327   0.73876   0.00000  Uiso   1.00
N133   N     0.51819   0.70454   0.37156   0.00000  Uiso   1.00
N134   N     0.13119   0.25039   0.11641   0.00000  Uiso   1.00
N135   N     0.15043   0.17658   0.63021   0.00000  Uiso   1.00
N136   N     0.45898   0.95969   0.38096   0.00000  Uiso   1.00
N137   N     0.07198   0.50554   0.12582   0.00000  Uiso   1.00
N138   N     0.09123   0.43173   0.63962   0.00000  Uiso   1.00
C139   C     0.72816   0.64526   0.87193   0.00000  Uiso   1.00
C140   C     0.67473   0.48650   0.87414   0.00000  Uiso   1.00
C141   C     0.59684   0.49515   0.87075   0.00000  Uiso   1.00
C142   C     0.55804   0.33485   0.87357   0.00000  Uiso   1.00
C143   C     0.46934   0.11313   0.87605   0.00000  Uiso   1.00
C144   C     0.78139   0.61166   0.80381   0.00000  Uiso   1.00
C145   C     0.79317   0.72555   0.74129   0.00000  Uiso   1.00
C146   C     0.84416   0.67061   0.68492   0.00000  Uiso   1.00
C147   C     0.92108   0.64325   0.57824   0.00000  Uiso   1.00
C148   C     0.77607   0.63199   0.94542   0.00000  Uiso   1.00
C149   C     0.78340   0.76299   0.00196   0.00000  Uiso   1.00
C150   C     0.82993   0.72518   0.06480   0.00000  Uiso   1.00
C151   C     0.89859   0.72940   0.17799   0.00000  Uiso   1.00
C152   C     0.79779   0.34520   0.88299   0.00000  Uiso   1.00
C153   C     0.71256   0.32353   0.88015   0.00000  Uiso   1.00
C154   C     0.67387   0.16317   0.88298   0.00000  Uiso   1.00
C155   C     0.59593   0.17158   0.87960   0.00000  Uiso   1.00
C156   C     0.81921   0.44869   0.80982   0.00000  Uiso   1.00
C157   C     0.87020   0.39357   0.75353   0.00000  Uiso   1.00
C158   C     0.88205   0.50734   0.69094   0.00000  Uiso   1.00
C159   C     0.81389   0.46901   0.95143   0.00000  Uiso   1.00
C160   C     0.86043   0.43100   0.01419   0.00000  Uiso   1.00
C161   C     0.86782   0.56191   0.07082   0.00000  Uiso   1.00
H162   H     0.69872   0.77214   0.86725   0.00000  Uiso   1.00
H163   H     0.56759   0.62130   0.86609   0.00000  Uiso   1.00
H164   H     0.76390   0.85166   0.73666   0.00000  Uiso   1.00
H165   H     0.75412   0.88909   0.99729   0.00000  Uiso   1.00
H166   H     0.43889   0.38218   0.86742   0.00000  Uiso   1.00
H167   H     0.85283   0.86795   0.59453   0.00000  Uiso   1.00
H168   H     0.83223   0.94688   0.14411   0.00000  Uiso   1.00
H169   H     0.82724   0.21831   0.88767   0.00000  Uiso   1.00
H170   H     0.70316   0.03707   0.88763   0.00000  Uiso   1.00
H171   H     0.89946   0.26744   0.75820   0.00000  Uiso   1.00
H172   H     0.88969   0.30487   0.01883   0.00000  Uiso   1.00
H173   H     0.54892   0.90800   0.88490   0.00000  Uiso   1.00
H174   H     0.96287   0.39378   0.61201   0.00000  Uiso   1.00
H175   H     0.94226   0.47270   0.16159   0.00000  Uiso   1.00
O176   O     0.40996   0.03586   0.87574   0.00000  Uiso   1.00
O177   O     0.95305   0.67319   0.51773   0.00000  Uiso   1.00
O178   O     0.92601   0.77673   0.23876   0.00000  Uiso   1.00
N179   N     0.48181   0.29546   0.87156   0.00000  Uiso   1.00
N180   N     0.86881   0.74961   0.61641   0.00000  Uiso   1.00
N181   N     0.84957   0.82342   0.13021   0.00000  Uiso   1.00
N182   N     0.54102   0.04031   0.88096   0.00000  Uiso   1.00
N183   N     0.92802   0.49446   0.62582   0.00000  Uiso   1.00
N184   N     0.90877   0.56827   0.13962   0.00000  Uiso   1.00
