data_job_06155
_audit_creation_date              2018-12-19
_audit_creation_method            'Materials Studio'
_symmetry_space_group_name_H-M    'P1'
_symmetry_Int_Tables_number       1
_symmetry_cell_setting            triclinic
loop_
_symmetry_equiv_pos_as_xyz
  x,y,z
_cell_length_a                    17.3390
_cell_length_b                    17.3342
_cell_length_c                    17.3256
_cell_angle_alpha                 83.9665
_cell_angle_beta                  83.9492
_cell_angle_gamma                 83.9227
loop_
_atom_site_label
_atom_site_type_symbol
_atom_site_fract_x
_atom_site_fract_y
_atom_site_fract_z
_atom_site_U_iso_or_equiv
_atom_site_adp_type
_atom_site_occupancy
C1     C     0.98009   0.59296   0.42377   0.00000  Uiso   1.00
C2     C     0.05060   0.57350   0.36634   0.00000  Uiso   1.00
C3     C     0.10695   0.51116   0.37650   0.00000  Uiso   1.00
C4     C     0.16687   0.50341   0.31720   0.00000  Uiso   1.00
C5     C     0.27586   0.46519   0.23824   0.00000  Uiso   1.00
C6     C     0.98504   0.67641   0.44189   0.00000  Uiso   1.00
C7     C     0.98624   0.70058   0.51558   0.00000  Uiso   1.00
C8     C     0.99096   0.77946   0.51988   0.00000  Uiso   1.00
C9     C     0.99810   0.90101   0.55822   0.00000  Uiso   1.00
C10    C     0.90890   0.59552   0.37852   0.00000  Uiso   1.00
C11    C     0.84608   0.55170   0.39894   0.00000  Uiso   1.00
C12    C     0.78669   0.56248   0.34989   0.00000  Uiso   1.00
C13    C     0.67562   0.55844   0.28984   0.00000  Uiso   1.00
C14    C     0.98632   0.69005   0.30037   0.00000  Uiso   1.00
C15    C     0.05398   0.62624   0.29932   0.00000  Uiso   1.00
C16    C     0.11383   0.61857   0.23998   0.00000  Uiso   1.00
C17    C     0.17026   0.55623   0.25006   0.00000  Uiso   1.00
C18    C     0.98842   0.72914   0.37487   0.00000  Uiso   1.00
C19    C     0.99313   0.80799   0.37906   0.00000  Uiso   1.00
C20    C     0.99435   0.83228   0.45274   0.00000  Uiso   1.00
C21    C     0.91228   0.64825   0.31150   0.00000  Uiso   1.00
C22    C     0.85297   0.65911   0.26242   0.00000  Uiso   1.00
C23    C     0.79008   0.61531   0.28275   0.00000  Uiso   1.00
H24    H     0.97746   0.55192   0.47595   0.00000  Uiso   1.00
H25    H     0.10431   0.47037   0.42838   0.00000  Uiso   1.00
H26    H     0.98362   0.65977   0.56744   0.00000  Uiso   1.00
H27    H     0.84349   0.51090   0.45081   0.00000  Uiso   1.00
H28    H     0.24646   0.40324   0.34610   0.00000  Uiso   1.00
H29    H     0.99194   0.80259   0.63931   0.00000  Uiso   1.00
H30    H     0.69644   0.48868   0.39338   0.00000  Uiso   1.00
H31    H     0.98895   0.73110   0.24819   0.00000  Uiso   1.00
H32    H     0.11644   0.65939   0.18812   0.00000  Uiso   1.00
H33    H     0.99574   0.84878   0.32718   0.00000  Uiso   1.00
H34    H     0.85561   0.69992   0.21055   0.00000  Uiso   1.00
H35    H     0.25630   0.55665   0.15110   0.00000  Uiso   1.00
H36    H     0.00178   0.95600   0.44431   0.00000  Uiso   1.00
H37    H     0.70628   0.64209   0.19838   0.00000  Uiso   1.00
O38    O     0.33505   0.42955   0.21321   0.00000  Uiso   1.00
O39    O     0.00112   0.95348   0.59789   0.00000  Uiso   1.00
O40    O     0.61343   0.54164   0.27523   0.00000  Uiso   1.00
N41    N     0.23127   0.44917   0.30844   0.00000  Uiso   1.00
N42    N     0.99333   0.82254   0.58258   0.00000  Uiso   1.00
N43    N     0.71705   0.52908   0.35266   0.00000  Uiso   1.00
N44    N     0.23657   0.53172   0.20351   0.00000  Uiso   1.00
N45    N     0.99862   0.90509   0.47765   0.00000  Uiso   1.00
N46    N     0.72234   0.61163   0.24773   0.00000  Uiso   1.00
C47    C     0.42380   0.97994   0.59314   0.00000  Uiso   1.00
C48    C     0.36639   0.05047   0.57370   0.00000  Uiso   1.00
C49    C     0.37654   0.10680   0.51136   0.00000  Uiso   1.00
C50    C     0.31727   0.16675   0.50363   0.00000  Uiso   1.00
C51    C     0.23834   0.27577   0.46544   0.00000  Uiso   1.00
C52    C     0.44188   0.98492   0.67663   0.00000  Uiso   1.00
C53    C     0.51551   0.98612   0.70081   0.00000  Uiso   1.00
C54    C     0.51978   0.99087   0.77972   0.00000  Uiso   1.00
C55    C     0.55806   0.99806   0.90133   0.00000  Uiso   1.00
C56    C     0.37861   0.90874   0.59567   0.00000  Uiso   1.00
C57    C     0.39904   0.84588   0.55180   0.00000  Uiso   1.00
C58    C     0.35005   0.78648   0.56257   0.00000  Uiso   1.00
C59    C     0.29008   0.67540   0.55848   0.00000  Uiso   1.00
C60    C     0.30047   0.98622   0.69028   0.00000  Uiso   1.00
C61    C     0.29940   0.05388   0.62647   0.00000  Uiso   1.00
C62    C     0.24009   0.11376   0.61883   0.00000  Uiso   1.00
C63    C     0.25016   0.17017   0.55648   0.00000  Uiso   1.00
C64    C     0.37490   0.98833   0.72939   0.00000  Uiso   1.00
C65    C     0.37906   0.99307   0.80828   0.00000  Uiso   1.00
C66    C     0.45267   0.99429   0.83258   0.00000  Uiso   1.00
C67    C     0.31162   0.91215   0.64843   0.00000  Uiso   1.00
C68    C     0.26259   0.85284   0.65927   0.00000  Uiso   1.00
C69    C     0.28294   0.78990   0.61543   0.00000  Uiso   1.00
H70    H     0.47595   0.97728   0.55207   0.00000  Uiso   1.00
H71    H     0.42840   0.10414   0.47054   0.00000  Uiso   1.00
H72    H     0.56734   0.98347   0.65997   0.00000  Uiso   1.00
H73    H     0.45088   0.84326   0.51098   0.00000  Uiso   1.00
H74    H     0.34615   0.24632   0.40344   0.00000  Uiso   1.00
H75    H     0.63912   0.99184   0.80286   0.00000  Uiso   1.00
H76    H     0.39355   0.69618   0.48869   0.00000  Uiso   1.00
H77    H     0.24831   0.98888   0.73136   0.00000  Uiso   1.00
H78    H     0.18826   0.11638   0.65967   0.00000  Uiso   1.00
H79    H     0.32721   0.99571   0.84909   0.00000  Uiso   1.00
H80    H     0.21075   0.85550   0.70011   0.00000  Uiso   1.00
H81    H     0.15125   0.25626   0.55695   0.00000  Uiso   1.00
H82    H     0.44422   0.00177   0.95636   0.00000  Uiso   1.00
H83    H     0.19865   0.70611   0.64219   0.00000  Uiso   1.00
O84    O     0.21331   0.33497   0.42981   0.00000  Uiso   1.00
O85    O     0.59768   0.00109   0.95383   0.00000  Uiso   1.00
O86    O     0.27550   0.61319   0.54164   0.00000  Uiso   1.00
N87    N     0.30851   0.23115   0.44940   0.00000  Uiso   1.00
N88    N     0.58242   0.99324   0.82282   0.00000  Uiso   1.00
N89    N     0.35285   0.71681   0.52912   0.00000  Uiso   1.00
N90    N     0.20363   0.23650   0.53200   0.00000  Uiso   1.00
N91    N     0.47755   0.99859   0.90542   0.00000  Uiso   1.00
N92    N     0.24797   0.72216   0.61172   0.00000  Uiso   1.00
C93    C     0.59279   0.42378   0.97978   0.00000  Uiso   1.00
C94    C     0.57337   0.36639   0.05033   0.00000  Uiso   1.00
C95    C     0.51105   0.37658   0.10669   0.00000  Uiso   1.00
C96    C     0.50333   0.31732   0.16664   0.00000  Uiso   1.00
C97    C     0.46517   0.23841   0.27568   0.00000  Uiso   1.00
C98    C     0.67620   0.44186   0.98477   0.00000  Uiso   1.00
C99    C     0.70035   0.51551   0.98600   0.00000  Uiso   1.00
C100   C     0.77919   0.51977   0.99075   0.00000  Uiso   1.00
C101   C     0.90070   0.55804   0.99795   0.00000  Uiso   1.00
C102   C     0.59535   0.37855   0.90853   0.00000  Uiso   1.00
C103   C     0.55153   0.39897   0.84565   0.00000  Uiso   1.00
C104   C     0.56231   0.34994   0.78621   0.00000  Uiso   1.00
C105   C     0.55828   0.28991   0.67504   0.00000  Uiso   1.00
C106   C     0.68990   0.30040   0.98601   0.00000  Uiso   1.00
C107   C     0.62612   0.29938   0.05371   0.00000  Uiso   1.00
C108   C     0.61848   0.24008   0.11359   0.00000  Uiso   1.00
C109   C     0.55616   0.25018   0.17003   0.00000  Uiso   1.00
C110   C     0.72895   0.37485   0.98815   0.00000  Uiso   1.00
C111   C     0.80778   0.37900   0.99289   0.00000  Uiso   1.00
C112   C     0.83204   0.45263   0.99414   0.00000  Uiso   1.00
C113   C     0.64809   0.31154   0.91191   0.00000  Uiso   1.00
C114   C     0.65896   0.26247   0.85255   0.00000  Uiso   1.00
C115   C     0.61515   0.28281   0.78960   0.00000  Uiso   1.00
H116   H     0.55173   0.47596   0.97715   0.00000  Uiso   1.00
H117   H     0.47025   0.42846   0.10406   0.00000  Uiso   1.00
H118   H     0.65952   0.56735   0.98337   0.00000  Uiso   1.00
H119   H     0.51072   0.45084   0.84306   0.00000  Uiso   1.00
H120   H     0.40319   0.34625   0.24627   0.00000  Uiso   1.00
H121   H     0.80227   0.63913   0.99177   0.00000  Uiso   1.00
H122   H     0.48850   0.39343   0.69588   0.00000  Uiso   1.00
H123   H     0.73096   0.24823   0.98865   0.00000  Uiso   1.00
H124   H     0.65931   0.18823   0.11619   0.00000  Uiso   1.00
H125   H     0.84858   0.32713   0.99550   0.00000  Uiso   1.00
H126   H     0.69978   0.21061   0.85519   0.00000  Uiso   1.00
H127   H     0.55664   0.15127   0.25612   0.00000  Uiso   1.00
H128   H     0.95573   0.44416   0.00162   0.00000  Uiso   1.00
H129   H     0.64195   0.19846   0.70573   0.00000  Uiso   1.00
O130   O     0.42956   0.21341   0.33490   0.00000  Uiso   1.00
O131   O     0.95314   0.59766   0.00099   0.00000  Uiso   1.00
O132   O     0.54148   0.27531   0.61279   0.00000  Uiso   1.00
N133   N     0.44913   0.30859   0.23107   0.00000  Uiso   1.00
N134   N     0.82224   0.58241   0.99315   0.00000  Uiso   1.00
N135   N     0.52891   0.35272   0.71650   0.00000  Uiso   1.00
N136   N     0.53170   0.20367   0.23637   0.00000  Uiso   1.00
N137   N     0.90482   0.47750   0.99845   0.00000  Uiso   1.00
N138   N     0.61148   0.24780   0.72180   0.00000  Uiso   1.00
C139   C     0.01991   0.40703   0.57623   0.00000  Uiso   1.00
C140   C     0.94940   0.42650   0.63366   0.00000  Uiso   1.00
C141   C     0.89305   0.48884   0.62350   0.00000  Uiso   1.00
C142   C     0.83313   0.49659   0.68280   0.00000  Uiso   1.00
C143   C     0.72414   0.53481   0.76176   0.00000  Uiso   1.00
C144   C     0.01496   0.32359   0.55811   0.00000  Uiso   1.00
C145   C     0.01376   0.29942   0.48442   0.00000  Uiso   1.00
C146   C     0.00904   0.22054   0.48012   0.00000  Uiso   1.00
C147   C     0.00190   0.09899   0.44178   0.00000  Uiso   1.00
C148   C     0.09110   0.40448   0.62148   0.00000  Uiso   1.00
C149   C     0.15392   0.44830   0.60106   0.00000  Uiso   1.00
C150   C     0.21331   0.43752   0.65011   0.00000  Uiso   1.00
C151   C     0.32438   0.44156   0.71016   0.00000  Uiso   1.00
C152   C     0.01368   0.30995   0.69962   0.00000  Uiso   1.00
C153   C     0.94602   0.37376   0.70068   0.00000  Uiso   1.00
C154   C     0.88617   0.38143   0.76002   0.00000  Uiso   1.00
C155   C     0.82974   0.44377   0.74994   0.00000  Uiso   1.00
C156   C     0.01158   0.27086   0.62513   0.00000  Uiso   1.00
C157   C     0.00687   0.19201   0.62094   0.00000  Uiso   1.00
C158   C     0.00565   0.16772   0.54726   0.00000  Uiso   1.00
C159   C     0.08772   0.35175   0.68850   0.00000  Uiso   1.00
C160   C     0.14703   0.34089   0.73758   0.00000  Uiso   1.00
C161   C     0.20992   0.38469   0.71725   0.00000  Uiso   1.00
H162   H     0.02254   0.44808   0.52405   0.00000  Uiso   1.00
H163   H     0.89569   0.52963   0.57162   0.00000  Uiso   1.00
H164   H     0.01638   0.34023   0.43256   0.00000  Uiso   1.00
H165   H     0.15651   0.48910   0.54919   0.00000  Uiso   1.00
H166   H     0.75354   0.59676   0.65390   0.00000  Uiso   1.00
H167   H     0.00806   0.19741   0.36069   0.00000  Uiso   1.00
H168   H     0.30356   0.51132   0.60662   0.00000  Uiso   1.00
H169   H     0.01105   0.26890   0.75181   0.00000  Uiso   1.00
H170   H     0.88356   0.34061   0.81188   0.00000  Uiso   1.00
H171   H     0.00426   0.15122   0.67282   0.00000  Uiso   1.00
H172   H     0.14439   0.30008   0.78945   0.00000  Uiso   1.00
H173   H     0.74370   0.44335   0.84890   0.00000  Uiso   1.00
H174   H     0.99822   0.04400   0.55569   0.00000  Uiso   1.00
H175   H     0.29372   0.35791   0.80162   0.00000  Uiso   1.00
O176   O     0.66495   0.57045   0.78679   0.00000  Uiso   1.00
O177   O     0.99888   0.04652   0.40211   0.00000  Uiso   1.00
O178   O     0.38657   0.45836   0.72477   0.00000  Uiso   1.00
N179   N     0.76873   0.55083   0.69156   0.00000  Uiso   1.00
N180   N     0.00667   0.17746   0.41742   0.00000  Uiso   1.00
N181   N     0.28295   0.47092   0.64734   0.00000  Uiso   1.00
N182   N     0.76343   0.46828   0.79649   0.00000  Uiso   1.00
N183   N     0.00138   0.09491   0.52235   0.00000  Uiso   1.00
N184   N     0.27766   0.38837   0.75227   0.00000  Uiso   1.00
C185   C     0.57620   0.02006   0.40686   0.00000  Uiso   1.00
C186   C     0.63361   0.94953   0.42630   0.00000  Uiso   1.00
C187   C     0.62346   0.89320   0.48864   0.00000  Uiso   1.00
C188   C     0.68273   0.83325   0.49637   0.00000  Uiso   1.00
C189   C     0.76166   0.72423   0.53456   0.00000  Uiso   1.00
C190   C     0.55812   0.01508   0.32337   0.00000  Uiso   1.00
C191   C     0.48449   0.01388   0.29919   0.00000  Uiso   1.00
C192   C     0.48022   0.00913   0.22028   0.00000  Uiso   1.00
C193   C     0.44194   0.00194   0.09867   0.00000  Uiso   1.00
C194   C     0.62139   0.09126   0.40433   0.00000  Uiso   1.00
C195   C     0.60096   0.15412   0.44820   0.00000  Uiso   1.00
C196   C     0.64995   0.21352   0.43743   0.00000  Uiso   1.00
C197   C     0.70992   0.32460   0.44152   0.00000  Uiso   1.00
C198   C     0.69953   0.01378   0.30972   0.00000  Uiso   1.00
C199   C     0.70060   0.94612   0.37353   0.00000  Uiso   1.00
C200   C     0.75991   0.88624   0.38117   0.00000  Uiso   1.00
C201   C     0.74984   0.82983   0.44352   0.00000  Uiso   1.00
C202   C     0.62510   0.01167   0.27061   0.00000  Uiso   1.00
C203   C     0.62094   0.00693   0.19172   0.00000  Uiso   1.00
C204   C     0.54732   0.00571   0.16742   0.00000  Uiso   1.00
C205   C     0.68838   0.08785   0.35157   0.00000  Uiso   1.00
C206   C     0.73741   0.14716   0.34073   0.00000  Uiso   1.00
C207   C     0.71706   0.21010   0.38457   0.00000  Uiso   1.00
H208   H     0.52405   0.02272   0.44793   0.00000  Uiso   1.00
H209   H     0.57160   0.89586   0.52946   0.00000  Uiso   1.00
H210   H     0.43266   0.01653   0.34003   0.00000  Uiso   1.00
H211   H     0.54912   0.15674   0.48902   0.00000  Uiso   1.00
H212   H     0.65385   0.75368   0.59656   0.00000  Uiso   1.00
H213   H     0.36088   0.00816   0.19714   0.00000  Uiso   1.00
H214   H     0.60645   0.30382   0.51131   0.00000  Uiso   1.00
H215   H     0.75169   0.01112   0.26864   0.00000  Uiso   1.00
H216   H     0.81174   0.88362   0.34033   0.00000  Uiso   1.00
H217   H     0.67279   0.00429   0.15091   0.00000  Uiso   1.00
H218   H     0.78925   0.14450   0.29989   0.00000  Uiso   1.00
H219   H     0.84875   0.74374   0.44305   0.00000  Uiso   1.00
H220   H     0.55578   0.99823   0.04364   0.00000  Uiso   1.00
H221   H     0.80135   0.29389   0.35781   0.00000  Uiso   1.00
O222   O     0.78669   0.66503   0.57019   0.00000  Uiso   1.00
O223   O     0.40232   0.99891   0.04617   0.00000  Uiso   1.00
O224   O     0.72450   0.38681   0.45836   0.00000  Uiso   1.00
N225   N     0.69149   0.76885   0.55060   0.00000  Uiso   1.00
N226   N     0.41758   0.00676   0.17718   0.00000  Uiso   1.00
N227   N     0.64715   0.28319   0.47088   0.00000  Uiso   1.00
N228   N     0.79636   0.76350   0.46800   0.00000  Uiso   1.00
N229   N     0.52245   0.00141   0.09458   0.00000  Uiso   1.00
N230   N     0.75203   0.27784   0.38828   0.00000  Uiso   1.00
C231   C     0.40721   0.57622   0.02022   0.00000  Uiso   1.00
C232   C     0.42663   0.63361   0.94967   0.00000  Uiso   1.00
C233   C     0.48895   0.62342   0.89331   0.00000  Uiso   1.00
C234   C     0.49667   0.68268   0.83336   0.00000  Uiso   1.00
C235   C     0.53483   0.76159   0.72431   0.00000  Uiso   1.00
C236   C     0.32380   0.55814   0.01523   0.00000  Uiso   1.00
C237   C     0.29965   0.48449   0.01400   0.00000  Uiso   1.00
C238   C     0.22081   0.48023   0.00925   0.00000  Uiso   1.00
C239   C     0.09930   0.44196   0.00205   0.00000  Uiso   1.00
C240   C     0.40465   0.62145   0.09147   0.00000  Uiso   1.00
C241   C     0.44847   0.60103   0.15435   0.00000  Uiso   1.00
C242   C     0.43769   0.65006   0.21379   0.00000  Uiso   1.00
C243   C     0.44172   0.71008   0.32496   0.00000  Uiso   1.00
C244   C     0.31010   0.69960   0.01399   0.00000  Uiso   1.00
C245   C     0.37388   0.70062   0.94629   0.00000  Uiso   1.00
C246   C     0.38151   0.75992   0.88641   0.00000  Uiso   1.00
C247   C     0.44383   0.74982   0.82997   0.00000  Uiso   1.00
C248   C     0.27105   0.62515   0.01185   0.00000  Uiso   1.00
C249   C     0.19222   0.62100   0.00711   0.00000  Uiso   1.00
C250   C     0.16796   0.54737   0.00586   0.00000  Uiso   1.00
C251   C     0.35191   0.68846   0.08809   0.00000  Uiso   1.00
C252   C     0.34104   0.73753   0.14745   0.00000  Uiso   1.00
C253   C     0.38484   0.71719   0.21040   0.00000  Uiso   1.00
H254   H     0.44827   0.52404   0.02285   0.00000  Uiso   1.00
H255   H     0.52975   0.57154   0.89594   0.00000  Uiso   1.00
H256   H     0.34048   0.43265   0.01663   0.00000  Uiso   1.00
H257   H     0.48928   0.54916   0.15694   0.00000  Uiso   1.00
H258   H     0.59681   0.65375   0.75373   0.00000  Uiso   1.00
H259   H     0.19773   0.36087   0.00823   0.00000  Uiso   1.00
H260   H     0.51150   0.60657   0.30412   0.00000  Uiso   1.00
H261   H     0.26904   0.75177   0.01135   0.00000  Uiso   1.00
H262   H     0.34069   0.81177   0.88381   0.00000  Uiso   1.00
H263   H     0.15142   0.67287   0.00450   0.00000  Uiso   1.00
H264   H     0.30022   0.78939   0.14481   0.00000  Uiso   1.00
H265   H     0.44336   0.84873   0.74388   0.00000  Uiso   1.00
H266   H     0.04427   0.55584   0.99838   0.00000  Uiso   1.00
H267   H     0.35805   0.80154   0.29427   0.00000  Uiso   1.00
O268   O     0.57044   0.78659   0.66510   0.00000  Uiso   1.00
O269   O     0.04686   0.40234   0.99901   0.00000  Uiso   1.00
O270   O     0.45852   0.72469   0.38721   0.00000  Uiso   1.00
N271   N     0.55087   0.69141   0.76892   0.00000  Uiso   1.00
N272   N     0.17776   0.41759   0.00685   0.00000  Uiso   1.00
N273   N     0.47109   0.64728   0.28350   0.00000  Uiso   1.00
N274   N     0.46830   0.79633   0.76363   0.00000  Uiso   1.00
N275   N     0.09518   0.52250   0.00155   0.00000  Uiso   1.00
N276   N     0.38852   0.75220   0.27820   0.00000  Uiso   1.00
