data_job_02096
_audit_creation_date              2018-12-19
_audit_creation_method            'Materials Studio'
_symmetry_space_group_name_H-M    'P1'
_symmetry_Int_Tables_number       1
_symmetry_cell_setting            triclinic
loop_
_symmetry_equiv_pos_as_xyz
  x,y,z
_cell_length_a                    16.8234
_cell_length_b                    16.8234
_cell_length_c                    9.4640
_cell_angle_alpha                 90.0000
_cell_angle_beta                  90.0000
_cell_angle_gamma                 90.0000
loop_
_atom_site_label
_atom_site_type_symbol
_atom_site_fract_x
_atom_site_fract_y
_atom_site_fract_z
_atom_site_U_iso_or_equiv
_atom_site_adp_type
_atom_site_occupancy
C1     C     0.18849   0.68827   0.06794   0.00000  Uiso   1.00
C2     C     0.24830   0.64572   0.97339   0.00000  Uiso   1.00
C3     C     0.25288   0.56420   0.95251   0.00000  Uiso   1.00
C4     C     0.31181   0.53696   0.86194   0.00000  Uiso   1.00
C5     C     0.39672   0.46291   0.72541   0.00000  Uiso   1.00
C6     C     0.23743   0.73715   0.17209   0.00000  Uiso   1.00
C7     C     0.23285   0.73250   0.31827   0.00000  Uiso   1.00
C8     C     0.28262   0.78223   0.39497   0.00000  Uiso   1.00
C9     C     0.35061   0.85016   0.56692   0.00000  Uiso   1.00
C10    C     0.14590   0.74813   0.97356   0.00000  Uiso   1.00
C11    C     0.06436   0.75273   0.95285   0.00000  Uiso   1.00
C12    C     0.03707   0.81171   0.86243   0.00000  Uiso   1.00
C13    C     0.96296   0.89669   0.72614   0.00000  Uiso   1.00
C14    C     0.28501   0.78485   0.94421   0.00000  Uiso   1.00
C15    C     0.30073   0.69818   0.90619   0.00000  Uiso   1.00
C16    C     0.35966   0.67106   0.81562   0.00000  Uiso   1.00
C17    C     0.36432   0.58951   0.79461   0.00000  Uiso   1.00
C18    C     0.28985   0.78960   0.10489   0.00000  Uiso   1.00
C19    C     0.33963   0.83935   0.18139   0.00000  Uiso   1.00
C20    C     0.33514   0.83478   0.32765   0.00000  Uiso   1.00
C21    C     0.19832   0.80059   0.90636   0.00000  Uiso   1.00
C22    C     0.17115   0.85958   0.81596   0.00000  Uiso   1.00
C23    C     0.08959   0.86427   0.79511   0.00000  Uiso   1.00
H24    H     0.14768   0.64743   0.12026   0.00000  Uiso   1.00
H25    H     0.21230   0.52362   0.00455   0.00000  Uiso   1.00
H26    H     0.19227   0.69190   0.37025   0.00000  Uiso   1.00
H27    H     0.02382   0.71212   0.00487   0.00000  Uiso   1.00
H28    H     0.30708   0.40949   0.84666   0.00000  Uiso   1.00
H29    H     0.26483   0.76434   0.61776   0.00000  Uiso   1.00
H30    H     0.90960   0.80698   0.84730   0.00000  Uiso   1.00
H31    H     0.32583   0.82570   0.89190   0.00000  Uiso   1.00
H32    H     0.40022   0.71167   0.76364   0.00000  Uiso   1.00
H33    H     0.38019   0.87994   0.12935   0.00000  Uiso   1.00
H34    H     0.21174   0.90017   0.76397   0.00000  Uiso   1.00
H35    H     0.45961   0.56211   0.65113   0.00000  Uiso   1.00
H36    H     0.41735   0.91696   0.42224   0.00000  Uiso   1.00
H37    H     0.06213   0.95960   0.65178   0.00000  Uiso   1.00
O38    O     0.42909   0.40757   0.66868   0.00000  Uiso   1.00
O39    O     0.37364   0.87312   0.68034   0.00000  Uiso   1.00
O40    O     0.90760   0.92906   0.66951   0.00000  Uiso   1.00
N41    N     0.33276   0.46106   0.81822   0.00000  Uiso   1.00
N42    N     0.29326   0.79281   0.53916   0.00000  Uiso   1.00
N43    N     0.96116   0.83269   0.81887   0.00000  Uiso   1.00
N44    N     0.41483   0.54318   0.71301   0.00000  Uiso   1.00
N45    N     0.37533   0.87494   0.43395   0.00000  Uiso   1.00
N46    N     0.04323   0.91481   0.71366   0.00000  Uiso   1.00
C47    C     0.81151   0.31173   0.06794   0.00000  Uiso   1.00
C48    C     0.75170   0.35428   0.97339   0.00000  Uiso   1.00
C49    C     0.74712   0.43580   0.95251   0.00000  Uiso   1.00
C50    C     0.68819   0.46304   0.86194   0.00000  Uiso   1.00
C51    C     0.60328   0.53709   0.72541   0.00000  Uiso   1.00
C52    C     0.76257   0.26285   0.17209   0.00000  Uiso   1.00
C53    C     0.76715   0.26750   0.31827   0.00000  Uiso   1.00
C54    C     0.71738   0.21777   0.39497   0.00000  Uiso   1.00
C55    C     0.64939   0.14984   0.56692   0.00000  Uiso   1.00
C56    C     0.85410   0.25187   0.97356   0.00000  Uiso   1.00
C57    C     0.93564   0.24727   0.95285   0.00000  Uiso   1.00
C58    C     0.96293   0.18829   0.86243   0.00000  Uiso   1.00
C59    C     0.03704   0.10331   0.72614   0.00000  Uiso   1.00
C60    C     0.71499   0.21515   0.94421   0.00000  Uiso   1.00
C61    C     0.69927   0.30182   0.90619   0.00000  Uiso   1.00
C62    C     0.64034   0.32894   0.81562   0.00000  Uiso   1.00
C63    C     0.63568   0.41049   0.79461   0.00000  Uiso   1.00
C64    C     0.71015   0.21040   0.10489   0.00000  Uiso   1.00
C65    C     0.66037   0.16065   0.18139   0.00000  Uiso   1.00
C66    C     0.66486   0.16522   0.32765   0.00000  Uiso   1.00
C67    C     0.80168   0.19941   0.90636   0.00000  Uiso   1.00
C68    C     0.82885   0.14042   0.81596   0.00000  Uiso   1.00
C69    C     0.91041   0.13573   0.79511   0.00000  Uiso   1.00
H70    H     0.85232   0.35257   0.12026   0.00000  Uiso   1.00
H71    H     0.78770   0.47638   0.00455   0.00000  Uiso   1.00
H72    H     0.80773   0.30810   0.37025   0.00000  Uiso   1.00
H73    H     0.97618   0.28788   0.00487   0.00000  Uiso   1.00
H74    H     0.69292   0.59051   0.84666   0.00000  Uiso   1.00
H75    H     0.73517   0.23566   0.61776   0.00000  Uiso   1.00
H76    H     0.09040   0.19302   0.84730   0.00000  Uiso   1.00
H77    H     0.67417   0.17430   0.89190   0.00000  Uiso   1.00
H78    H     0.59978   0.28833   0.76364   0.00000  Uiso   1.00
H79    H     0.61981   0.12006   0.12935   0.00000  Uiso   1.00
H80    H     0.78826   0.09983   0.76397   0.00000  Uiso   1.00
H81    H     0.54039   0.43789   0.65113   0.00000  Uiso   1.00
H82    H     0.58265   0.08304   0.42224   0.00000  Uiso   1.00
H83    H     0.93787   0.04040   0.65178   0.00000  Uiso   1.00
O84    O     0.57091   0.59243   0.66868   0.00000  Uiso   1.00
O85    O     0.62636   0.12688   0.68034   0.00000  Uiso   1.00
O86    O     0.09240   0.07094   0.66951   0.00000  Uiso   1.00
N87    N     0.66724   0.53894   0.81822   0.00000  Uiso   1.00
N88    N     0.70674   0.20719   0.53916   0.00000  Uiso   1.00
N89    N     0.03884   0.16731   0.81887   0.00000  Uiso   1.00
N90    N     0.58517   0.45682   0.71301   0.00000  Uiso   1.00
N91    N     0.62467   0.12506   0.43395   0.00000  Uiso   1.00
N92    N     0.95677   0.08519   0.71366   0.00000  Uiso   1.00
C93    C     0.68827   0.81151   0.93206   0.00000  Uiso   1.00
C94    C     0.64572   0.75170   0.02661   0.00000  Uiso   1.00
C95    C     0.56420   0.74712   0.04749   0.00000  Uiso   1.00
C96    C     0.53696   0.68819   0.13806   0.00000  Uiso   1.00
C97    C     0.46291   0.60328   0.27459   0.00000  Uiso   1.00
C98    C     0.73715   0.76257   0.82791   0.00000  Uiso   1.00
C99    C     0.73250   0.76715   0.68173   0.00000  Uiso   1.00
C100   C     0.78223   0.71738   0.60503   0.00000  Uiso   1.00
C101   C     0.85016   0.64939   0.43308   0.00000  Uiso   1.00
C102   C     0.74813   0.85410   0.02644   0.00000  Uiso   1.00
C103   C     0.75273   0.93564   0.04715   0.00000  Uiso   1.00
C104   C     0.81171   0.96293   0.13757   0.00000  Uiso   1.00
C105   C     0.89669   0.03704   0.27386   0.00000  Uiso   1.00
C106   C     0.78485   0.71499   0.05579   0.00000  Uiso   1.00
C107   C     0.69818   0.69927   0.09381   0.00000  Uiso   1.00
C108   C     0.67106   0.64034   0.18438   0.00000  Uiso   1.00
C109   C     0.58951   0.63568   0.20539   0.00000  Uiso   1.00
C110   C     0.78960   0.71015   0.89511   0.00000  Uiso   1.00
C111   C     0.83935   0.66037   0.81861   0.00000  Uiso   1.00
C112   C     0.83478   0.66486   0.67235   0.00000  Uiso   1.00
C113   C     0.80059   0.80168   0.09364   0.00000  Uiso   1.00
C114   C     0.85958   0.82885   0.18404   0.00000  Uiso   1.00
C115   C     0.86427   0.91041   0.20489   0.00000  Uiso   1.00
H116   H     0.64743   0.85232   0.87974   0.00000  Uiso   1.00
H117   H     0.52362   0.78770   0.99545   0.00000  Uiso   1.00
H118   H     0.69190   0.80773   0.62975   0.00000  Uiso   1.00
H119   H     0.71212   0.97618   0.99513   0.00000  Uiso   1.00
H120   H     0.40949   0.69292   0.15334   0.00000  Uiso   1.00
H121   H     0.76434   0.73517   0.38224   0.00000  Uiso   1.00
H122   H     0.80698   0.09040   0.15270   0.00000  Uiso   1.00
H123   H     0.82570   0.67417   0.10810   0.00000  Uiso   1.00
H124   H     0.71167   0.59978   0.23636   0.00000  Uiso   1.00
H125   H     0.87994   0.61981   0.87065   0.00000  Uiso   1.00
H126   H     0.90017   0.78826   0.23603   0.00000  Uiso   1.00
H127   H     0.56211   0.54039   0.34887   0.00000  Uiso   1.00
H128   H     0.91696   0.58265   0.57776   0.00000  Uiso   1.00
H129   H     0.95960   0.93787   0.34822   0.00000  Uiso   1.00
O130   O     0.40757   0.57091   0.33132   0.00000  Uiso   1.00
O131   O     0.87312   0.62636   0.31966   0.00000  Uiso   1.00
O132   O     0.92906   0.09240   0.33049   0.00000  Uiso   1.00
N133   N     0.46106   0.66724   0.18178   0.00000  Uiso   1.00
N134   N     0.79281   0.70674   0.46084   0.00000  Uiso   1.00
N135   N     0.83269   0.03884   0.18113   0.00000  Uiso   1.00
N136   N     0.54318   0.58517   0.28699   0.00000  Uiso   1.00
N137   N     0.87494   0.62467   0.56605   0.00000  Uiso   1.00
N138   N     0.91481   0.95677   0.28634   0.00000  Uiso   1.00
C139   C     0.31173   0.18849   0.93206   0.00000  Uiso   1.00
C140   C     0.35428   0.24830   0.02661   0.00000  Uiso   1.00
C141   C     0.43580   0.25288   0.04749   0.00000  Uiso   1.00
C142   C     0.46304   0.31181   0.13806   0.00000  Uiso   1.00
C143   C     0.53709   0.39672   0.27459   0.00000  Uiso   1.00
C144   C     0.26285   0.23743   0.82791   0.00000  Uiso   1.00
C145   C     0.26750   0.23285   0.68173   0.00000  Uiso   1.00
C146   C     0.21777   0.28262   0.60503   0.00000  Uiso   1.00
C147   C     0.14984   0.35061   0.43308   0.00000  Uiso   1.00
C148   C     0.25187   0.14590   0.02644   0.00000  Uiso   1.00
C149   C     0.24727   0.06436   0.04715   0.00000  Uiso   1.00
C150   C     0.18829   0.03707   0.13757   0.00000  Uiso   1.00
C151   C     0.10331   0.96296   0.27386   0.00000  Uiso   1.00
C152   C     0.21515   0.28501   0.05579   0.00000  Uiso   1.00
C153   C     0.30182   0.30073   0.09381   0.00000  Uiso   1.00
C154   C     0.32894   0.35966   0.18438   0.00000  Uiso   1.00
C155   C     0.41049   0.36432   0.20539   0.00000  Uiso   1.00
C156   C     0.21040   0.28985   0.89511   0.00000  Uiso   1.00
C157   C     0.16065   0.33963   0.81861   0.00000  Uiso   1.00
C158   C     0.16522   0.33514   0.67235   0.00000  Uiso   1.00
C159   C     0.19941   0.19832   0.09364   0.00000  Uiso   1.00
C160   C     0.14042   0.17115   0.18404   0.00000  Uiso   1.00
C161   C     0.13573   0.08959   0.20489   0.00000  Uiso   1.00
H162   H     0.35257   0.14768   0.87974   0.00000  Uiso   1.00
H163   H     0.47638   0.21230   0.99545   0.00000  Uiso   1.00
H164   H     0.30810   0.19227   0.62975   0.00000  Uiso   1.00
H165   H     0.28788   0.02382   0.99513   0.00000  Uiso   1.00
H166   H     0.59051   0.30708   0.15334   0.00000  Uiso   1.00
H167   H     0.23566   0.26483   0.38224   0.00000  Uiso   1.00
H168   H     0.19302   0.90960   0.15270   0.00000  Uiso   1.00
H169   H     0.17430   0.32583   0.10810   0.00000  Uiso   1.00
H170   H     0.28833   0.40022   0.23636   0.00000  Uiso   1.00
H171   H     0.12006   0.38019   0.87065   0.00000  Uiso   1.00
H172   H     0.09983   0.21174   0.23603   0.00000  Uiso   1.00
H173   H     0.43789   0.45961   0.34887   0.00000  Uiso   1.00
H174   H     0.08304   0.41735   0.57776   0.00000  Uiso   1.00
H175   H     0.04040   0.06213   0.34822   0.00000  Uiso   1.00
O176   O     0.59243   0.42909   0.33132   0.00000  Uiso   1.00
O177   O     0.12688   0.37364   0.31966   0.00000  Uiso   1.00
O178   O     0.07094   0.90760   0.33049   0.00000  Uiso   1.00
N179   N     0.53894   0.33276   0.18178   0.00000  Uiso   1.00
N180   N     0.20719   0.29326   0.46084   0.00000  Uiso   1.00
N181   N     0.16731   0.96116   0.18113   0.00000  Uiso   1.00
N182   N     0.45682   0.41483   0.28699   0.00000  Uiso   1.00
N183   N     0.12506   0.37533   0.56605   0.00000  Uiso   1.00
N184   N     0.08519   0.04323   0.28634   0.00000  Uiso   1.00
