data_job_06346
_audit_creation_date              2018-12-19
_audit_creation_method            'Materials Studio'
_symmetry_space_group_name_H-M    'P1'
_symmetry_Int_Tables_number       1
_symmetry_cell_setting            triclinic
loop_
_symmetry_equiv_pos_as_xyz
  x,y,z
_cell_length_a                    17.3836
_cell_length_b                    17.3157
_cell_length_c                    16.8862
_cell_angle_alpha                 70.7537
_cell_angle_beta                  70.6523
_cell_angle_gamma                 69.8463
loop_
_atom_site_label
_atom_site_type_symbol
_atom_site_fract_x
_atom_site_fract_y
_atom_site_fract_z
_atom_site_U_iso_or_equiv
_atom_site_adp_type
_atom_site_occupancy
C1     C     0.50958   0.76564   0.07530   0.00000  Uiso   1.00
C2     C     0.54552   0.67418   0.06694   0.00000  Uiso   1.00
C3     C     0.58653   0.60687   0.12359   0.00000  Uiso   1.00
C4     C     0.61478   0.52808   0.10461   0.00000  Uiso   1.00
C5     C     0.67251   0.38775   0.10271   0.00000  Uiso   1.00
C6     C     0.55122   0.81934   0.99093   0.00000  Uiso   1.00
C7     C     0.59702   0.87408   0.98367   0.00000  Uiso   1.00
C8     C     0.63006   0.91749   0.90071   0.00000  Uiso   1.00
C9     C     0.69659   0.00256   0.78081   0.00000  Uiso   1.00
C10    C     0.41640   0.78954   0.07590   0.00000  Uiso   1.00
C11    C     0.34883   0.81925   0.14006   0.00000  Uiso   1.00
C12    C     0.26835   0.83759   0.12861   0.00000  Uiso   1.00
C13    C     0.12554   0.87639   0.14064   0.00000  Uiso   1.00
C14    C     0.48681   0.74541   0.94087   0.00000  Uiso   1.00
C15    C     0.53315   0.66320   0.99392   0.00000  Uiso   1.00
C16    C     0.56134   0.58448   0.97485   0.00000  Uiso   1.00
C17    C     0.60239   0.51707   0.03146   0.00000  Uiso   1.00
C18    C     0.53886   0.80835   0.91792   0.00000  Uiso   1.00
C19    C     0.57183   0.85169   0.83494   0.00000  Uiso   1.00
C20    C     0.61767   0.90648   0.82755   0.00000  Uiso   1.00
C21    C     0.40403   0.77855   0.00288   0.00000  Uiso   1.00
C22    C     0.32364   0.79686   0.99133   0.00000  Uiso   1.00
C23    C     0.25596   0.82658   0.05546   0.00000  Uiso   1.00
H24    H     0.51921   0.77420   0.13214   0.00000  Uiso   1.00
H25    H     0.59610   0.61541   0.18008   0.00000  Uiso   1.00
H26    H     0.60657   0.88258   0.04019   0.00000  Uiso   1.00
H27    H     0.35842   0.82775   0.19655   0.00000  Uiso   1.00
H28    H     0.67592   0.43451   0.20101   0.00000  Uiso   1.00
H29    H     0.69798   0.99788   0.90605   0.00000  Uiso   1.00
H30    H     0.17471   0.88226   0.23577   0.00000  Uiso   1.00
H31    H     0.47718   0.73685   0.88402   0.00000  Uiso   1.00
H32    H     0.55177   0.57600   0.91834   0.00000  Uiso   1.00
H33    H     0.56225   0.84318   0.77845   0.00000  Uiso   1.00
H34    H     0.31409   0.78834   0.93482   0.00000  Uiso   1.00
H35    H     0.63994   0.40252   0.98857   0.00000  Uiso   1.00
H36    H     0.66201   0.96590   0.69361   0.00000  Uiso   1.00
H37    H     0.13873   0.85028   0.02333   0.00000  Uiso   1.00
O38    O     0.70778   0.31338   0.12183   0.00000  Uiso   1.00
O39    O     0.73671   0.05252   0.73485   0.00000  Uiso   1.00
O40    O     0.05019   0.90082   0.16744   0.00000  Uiso   1.00
N41    N     0.65720   0.44905   0.14631   0.00000  Uiso   1.00
N42    N     0.67784   0.97576   0.87054   0.00000  Uiso   1.00
N43    N     0.18862   0.86769   0.17879   0.00000  Uiso   1.00
N44    N     0.63784   0.43184   0.03200   0.00000  Uiso   1.00
N45    N     0.65848   0.95855   0.75623   0.00000  Uiso   1.00
N46    N     0.16926   0.85048   0.06448   0.00000  Uiso   1.00
C47    C     0.07286   0.51036   0.76655   0.00000  Uiso   1.00
C48    C     0.06550   0.54581   0.67308   0.00000  Uiso   1.00
C49    C     0.12057   0.58637   0.60537   0.00000  Uiso   1.00
C50    C     0.10287   0.61422   0.52464   0.00000  Uiso   1.00
C51    C     0.10210   0.67118   0.38141   0.00000  Uiso   1.00
C52    C     0.98950   0.55281   0.82148   0.00000  Uiso   1.00
C53    C     0.98068   0.59923   0.87854   0.00000  Uiso   1.00
C54    C     0.89901   0.63296   0.92274   0.00000  Uiso   1.00
C55    C     0.78026   0.70073   0.00994   0.00000  Uiso   1.00
C56    C     0.07493   0.41692   0.78937   0.00000  Uiso   1.00
C57    C     0.13794   0.34910   0.81947   0.00000  Uiso   1.00
C58    C     0.12818   0.26842   0.83666   0.00000  Uiso   1.00
C59    C     0.14208   0.12521   0.87402   0.00000  Uiso   1.00
C60    C     0.94349   0.48769   0.74360   0.00000  Uiso   1.00
C61    C     0.99522   0.53350   0.66062   0.00000  Uiso   1.00
C62    C     0.97744   0.56129   0.57998   0.00000  Uiso   1.00
C63    C     0.03248   0.60188   0.51215   0.00000  Uiso   1.00
C64    C     0.91923   0.54050   0.80901   0.00000  Uiso   1.00
C65    C     0.83755   0.57415   0.85315   0.00000  Uiso   1.00
C66    C     0.82861   0.62063   0.91025   0.00000  Uiso   1.00
C67    C     0.00466   0.40461   0.77691   0.00000  Uiso   1.00
C68    C     0.99481   0.32402   0.79407   0.00000  Uiso   1.00
C69    C     0.05779   0.25609   0.82417   0.00000  Uiso   1.00
H70    H     0.12756   0.51994   0.77626   0.00000  Uiso   1.00
H71    H     0.17494   0.59589   0.61504   0.00000  Uiso   1.00
H72    H     0.03507   0.60875   0.88817   0.00000  Uiso   1.00
H73    H     0.19230   0.35865   0.82910   0.00000  Uiso   1.00
H74    H     0.19646   0.67469   0.43081   0.00000  Uiso   1.00
H75    H     0.90154   0.70177   0.00675   0.00000  Uiso   1.00
H76    H     0.23309   0.17440   0.88219   0.00000  Uiso   1.00
H77    H     0.88878   0.47810   0.73390   0.00000  Uiso   1.00
H78    H     0.92306   0.55175   0.57035   0.00000  Uiso   1.00
H79    H     0.78319   0.56461   0.84349   0.00000  Uiso   1.00
H80    H     0.94042   0.31452   0.78442   0.00000  Uiso   1.00
H81    H     0.99202   0.63887   0.39454   0.00000  Uiso   1.00
H82    H     0.69711   0.66595   0.97048   0.00000  Uiso   1.00
H83    H     0.02866   0.13858   0.84592   0.00000  Uiso   1.00
O84    O     0.12108   0.70601   0.30585   0.00000  Uiso   1.00
O85    O     0.73417   0.74152   0.06148   0.00000  Uiso   1.00
O86    O     0.16916   0.04963   0.89805   0.00000  Uiso   1.00
N87    N     0.14365   0.65614   0.44471   0.00000  Uiso   1.00
N88    N     0.86792   0.68147   0.98317   0.00000  Uiso   1.00
N89    N     0.17788   0.18842   0.86674   0.00000  Uiso   1.00
N90    N     0.03364   0.63686   0.42519   0.00000  Uiso   1.00
N91    N     0.75792   0.66219   0.96365   0.00000  Uiso   1.00
N92    N     0.06788   0.16914   0.84723   0.00000  Uiso   1.00
C93    C     0.76612   0.07320   0.51235   0.00000  Uiso   1.00
C94    C     0.67522   0.06630   0.54748   0.00000  Uiso   1.00
C95    C     0.60791   0.12211   0.58936   0.00000  Uiso   1.00
C96    C     0.52968   0.10475   0.61663   0.00000  Uiso   1.00
C97    C     0.39013   0.10476   0.67337   0.00000  Uiso   1.00
C98    C     0.82030   0.98963   0.55513   0.00000  Uiso   1.00
C99    C     0.87498   0.98096   0.60343   0.00000  Uiso   1.00
C100   C     0.91888   0.89905   0.63713   0.00000  Uiso   1.00
C101   C     0.00462   0.78002   0.70569   0.00000  Uiso   1.00
C102   C     0.78965   0.07453   0.41662   0.00000  Uiso   1.00
C103   C     0.81859   0.13725   0.34845   0.00000  Uiso   1.00
C104   C     0.83671   0.12681   0.26553   0.00000  Uiso   1.00
C105   C     0.87486   0.13962   0.11901   0.00000  Uiso   1.00
C106   C     0.74686   0.94314   0.48631   0.00000  Uiso   1.00
C107   C     0.66476   0.99566   0.53334   0.00000  Uiso   1.00
C108   C     0.58661   0.97821   0.56055   0.00000  Uiso   1.00
C109   C     0.51920   0.03397   0.60246   0.00000  Uiso   1.00
C110   C     0.80984   0.91898   0.54099   0.00000  Uiso   1.00
C111   C     0.85367   0.83706   0.57462   0.00000  Uiso   1.00
C112   C     0.90840   0.82828   0.62296   0.00000  Uiso   1.00
C113   C     0.77919   0.00389   0.40247   0.00000  Uiso   1.00
C114   C     0.79728   0.99335   0.31964   0.00000  Uiso   1.00
C115   C     0.82623   0.05604   0.25136   0.00000  Uiso   1.00
H116   H     0.77427   0.12820   0.52337   0.00000  Uiso   1.00
H117   H     0.61604   0.17677   0.60030   0.00000  Uiso   1.00
H118   H     0.88307   0.03564   0.61436   0.00000  Uiso   1.00
H119   H     0.82668   0.19191   0.35942   0.00000  Uiso   1.00
H120   H     0.43600   0.19945   0.67939   0.00000  Uiso   1.00
H121   H     0.99907   0.90188   0.70900   0.00000  Uiso   1.00
H122   H     0.88017   0.23139   0.17141   0.00000  Uiso   1.00
H123   H     0.73872   0.88813   0.47530   0.00000  Uiso   1.00
H124   H     0.57853   0.92353   0.54960   0.00000  Uiso   1.00
H125   H     0.84557   0.78241   0.56366   0.00000  Uiso   1.00
H126   H     0.78917   0.93867   0.30872   0.00000  Uiso   1.00
H127   H     0.40556   0.99391   0.63824   0.00000  Uiso   1.00
H128   H     0.96864   0.69634   0.66785   0.00000  Uiso   1.00
H129   H     0.84973   0.02585   0.13026   0.00000  Uiso   1.00
O130   O     0.31605   0.12428   0.70858   0.00000  Uiso   1.00
O131   O     0.05479   0.73389   0.74742   0.00000  Uiso   1.00
O132   O     0.89878   0.16620   0.04211   0.00000  Uiso   1.00
N133   N     0.45082   0.14622   0.65949   0.00000  Uiso   1.00
N134   N     0.97725   0.86802   0.68719   0.00000  Uiso   1.00
N135   N     0.86610   0.17607   0.18459   0.00000  Uiso   1.00
N136   N     0.43444   0.03562   0.63735   0.00000  Uiso   1.00
N137   N     0.96087   0.75742   0.66505   0.00000  Uiso   1.00
N138   N     0.84972   0.06547   0.16244   0.00000  Uiso   1.00
C139   C     0.49042   0.23436   0.92470   0.00000  Uiso   1.00
C140   C     0.45448   0.32582   0.93306   0.00000  Uiso   1.00
C141   C     0.41347   0.39313   0.87642   0.00000  Uiso   1.00
C142   C     0.38522   0.47192   0.89540   0.00000  Uiso   1.00
C143   C     0.32749   0.61225   0.89729   0.00000  Uiso   1.00
C144   C     0.44878   0.18066   0.00907   0.00000  Uiso   1.00
C145   C     0.40298   0.12592   0.01633   0.00000  Uiso   1.00
C146   C     0.36994   0.08251   0.09929   0.00000  Uiso   1.00
C147   C     0.30341   0.99744   0.21919   0.00000  Uiso   1.00
C148   C     0.58360   0.21046   0.92410   0.00000  Uiso   1.00
C149   C     0.65117   0.18075   0.85994   0.00000  Uiso   1.00
C150   C     0.73165   0.16241   0.87139   0.00000  Uiso   1.00
C151   C     0.87446   0.12361   0.85936   0.00000  Uiso   1.00
C152   C     0.51319   0.25459   0.05913   0.00000  Uiso   1.00
C153   C     0.46685   0.33680   0.00608   0.00000  Uiso   1.00
C154   C     0.43866   0.41552   0.02515   0.00000  Uiso   1.00
C155   C     0.39761   0.48293   0.96854   0.00000  Uiso   1.00
C156   C     0.46114   0.19165   0.08208   0.00000  Uiso   1.00
C157   C     0.42817   0.14831   0.16506   0.00000  Uiso   1.00
C158   C     0.38233   0.09352   0.17245   0.00000  Uiso   1.00
C159   C     0.59597   0.22145   0.99712   0.00000  Uiso   1.00
C160   C     0.67636   0.20314   0.00867   0.00000  Uiso   1.00
C161   C     0.74404   0.17342   0.94454   0.00000  Uiso   1.00
H162   H     0.48079   0.22580   0.86786   0.00000  Uiso   1.00
H163   H     0.40390   0.38459   0.81992   0.00000  Uiso   1.00
H164   H     0.39343   0.11742   0.95981   0.00000  Uiso   1.00
H165   H     0.64158   0.17225   0.80345   0.00000  Uiso   1.00
H166   H     0.32408   0.56549   0.79899   0.00000  Uiso   1.00
H167   H     0.30202   0.00212   0.09395   0.00000  Uiso   1.00
H168   H     0.82529   0.11774   0.76423   0.00000  Uiso   1.00
H169   H     0.52282   0.26315   0.11598   0.00000  Uiso   1.00
H170   H     0.44823   0.42400   0.08166   0.00000  Uiso   1.00
H171   H     0.43775   0.15682   0.22155   0.00000  Uiso   1.00
H172   H     0.68591   0.21166   0.06518   0.00000  Uiso   1.00
H173   H     0.36006   0.59748   0.01143   0.00000  Uiso   1.00
H174   H     0.33799   0.03410   0.30639   0.00000  Uiso   1.00
H175   H     0.86127   0.14972   0.97667   0.00000  Uiso   1.00
O176   O     0.29222   0.68662   0.87817   0.00000  Uiso   1.00
O177   O     0.26329   0.94748   0.26515   0.00000  Uiso   1.00
O178   O     0.94981   0.09918   0.83256   0.00000  Uiso   1.00
N179   N     0.34280   0.55095   0.85369   0.00000  Uiso   1.00
N180   N     0.32216   0.02424   0.12946   0.00000  Uiso   1.00
N181   N     0.81138   0.13231   0.82121   0.00000  Uiso   1.00
N182   N     0.36216   0.56816   0.96800   0.00000  Uiso   1.00
N183   N     0.34152   0.04145   0.24377   0.00000  Uiso   1.00
N184   N     0.83074   0.14952   0.93552   0.00000  Uiso   1.00
C185   C     0.92714   0.48964   0.23345   0.00000  Uiso   1.00
C186   C     0.93451   0.45419   0.32692   0.00000  Uiso   1.00
C187   C     0.87943   0.41363   0.39463   0.00000  Uiso   1.00
C188   C     0.89713   0.38578   0.47536   0.00000  Uiso   1.00
C189   C     0.89790   0.32882   0.61859   0.00000  Uiso   1.00
C190   C     0.01050   0.44719   0.17852   0.00000  Uiso   1.00
C191   C     0.01932   0.40077   0.12146   0.00000  Uiso   1.00
C192   C     0.10099   0.36704   0.07726   0.00000  Uiso   1.00
C193   C     0.21974   0.29927   0.99006   0.00000  Uiso   1.00
C194   C     0.92507   0.58308   0.21063   0.00000  Uiso   1.00
C195   C     0.86206   0.65090   0.18053   0.00000  Uiso   1.00
C196   C     0.87182   0.73158   0.16334   0.00000  Uiso   1.00
C197   C     0.85792   0.87479   0.12598   0.00000  Uiso   1.00
C198   C     0.05651   0.51231   0.25640   0.00000  Uiso   1.00
C199   C     0.00478   0.46650   0.33938   0.00000  Uiso   1.00
C200   C     0.02256   0.43871   0.42002   0.00000  Uiso   1.00
C201   C     0.96752   0.39812   0.48785   0.00000  Uiso   1.00
C202   C     0.08077   0.45950   0.19099   0.00000  Uiso   1.00
C203   C     0.16245   0.42585   0.14685   0.00000  Uiso   1.00
C204   C     0.17139   0.37937   0.08975   0.00000  Uiso   1.00
C205   C     0.99534   0.59539   0.22309   0.00000  Uiso   1.00
C206   C     0.00519   0.67598   0.20593   0.00000  Uiso   1.00
C207   C     0.94221   0.74391   0.17583   0.00000  Uiso   1.00
H208   H     0.87244   0.48006   0.22374   0.00000  Uiso   1.00
H209   H     0.82506   0.40411   0.38496   0.00000  Uiso   1.00
H210   H     0.96493   0.39125   0.11183   0.00000  Uiso   1.00
H211   H     0.80770   0.64135   0.17090   0.00000  Uiso   1.00
H212   H     0.80354   0.32531   0.56919   0.00000  Uiso   1.00
H213   H     0.09846   0.29823   0.99325   0.00000  Uiso   1.00
H214   H     0.76691   0.82560   0.11781   0.00000  Uiso   1.00
H215   H     0.11122   0.52190   0.26610   0.00000  Uiso   1.00
H216   H     0.07694   0.44825   0.42965   0.00000  Uiso   1.00
H217   H     0.21681   0.43539   0.15651   0.00000  Uiso   1.00
H218   H     0.05958   0.68548   0.21558   0.00000  Uiso   1.00
H219   H     0.00798   0.36113   0.60547   0.00000  Uiso   1.00
H220   H     0.30289   0.33405   0.02952   0.00000  Uiso   1.00
H221   H     0.97134   0.86142   0.15408   0.00000  Uiso   1.00
O222   O     0.87892   0.29399   0.69415   0.00000  Uiso   1.00
O223   O     0.26583   0.25848   0.93852   0.00000  Uiso   1.00
O224   O     0.83084   0.95037   0.10195   0.00000  Uiso   1.00
N225   N     0.85635   0.34386   0.55529   0.00000  Uiso   1.00
N226   N     0.13208   0.31853   0.01683   0.00000  Uiso   1.00
N227   N     0.82212   0.81158   0.13326   0.00000  Uiso   1.00
N228   N     0.96636   0.36314   0.57481   0.00000  Uiso   1.00
N229   N     0.24208   0.33781   0.03635   0.00000  Uiso   1.00
N230   N     0.93212   0.83086   0.15277   0.00000  Uiso   1.00
C231   C     0.23388   0.92680   0.48765   0.00000  Uiso   1.00
C232   C     0.32478   0.93370   0.45252   0.00000  Uiso   1.00
C233   C     0.39209   0.87789   0.41064   0.00000  Uiso   1.00
C234   C     0.47032   0.89526   0.38337   0.00000  Uiso   1.00
C235   C     0.60987   0.89524   0.32663   0.00000  Uiso   1.00
C236   C     0.17970   0.01037   0.44487   0.00000  Uiso   1.00
C237   C     0.12502   0.01904   0.39657   0.00000  Uiso   1.00
C238   C     0.08112   0.10095   0.36287   0.00000  Uiso   1.00
C239   C     0.99538   0.21998   0.29431   0.00000  Uiso   1.00
C240   C     0.21035   0.92547   0.58338   0.00000  Uiso   1.00
C241   C     0.18141   0.86275   0.65155   0.00000  Uiso   1.00
C242   C     0.16329   0.87319   0.73448   0.00000  Uiso   1.00
C243   C     0.12514   0.86038   0.88099   0.00000  Uiso   1.00
C244   C     0.25314   0.05686   0.51369   0.00000  Uiso   1.00
C245   C     0.33524   0.00434   0.46666   0.00000  Uiso   1.00
C246   C     0.41339   0.02179   0.43945   0.00000  Uiso   1.00
C247   C     0.48080   0.96603   0.39754   0.00000  Uiso   1.00
C248   C     0.19016   0.08102   0.45901   0.00000  Uiso   1.00
C249   C     0.14633   0.16294   0.42538   0.00000  Uiso   1.00
C250   C     0.09160   0.17172   0.37704   0.00000  Uiso   1.00
C251   C     0.22081   0.99611   0.59753   0.00000  Uiso   1.00
C252   C     0.20272   0.00665   0.68036   0.00000  Uiso   1.00
C253   C     0.17377   0.94396   0.74864   0.00000  Uiso   1.00
H254   H     0.22573   0.87180   0.47663   0.00000  Uiso   1.00
H255   H     0.38396   0.82323   0.39970   0.00000  Uiso   1.00
H256   H     0.11693   0.96436   0.38564   0.00000  Uiso   1.00
H257   H     0.17332   0.80809   0.64058   0.00000  Uiso   1.00
H258   H     0.56400   0.80056   0.32061   0.00000  Uiso   1.00
H259   H     0.00093   0.09812   0.29100   0.00000  Uiso   1.00
H260   H     0.11983   0.76861   0.82859   0.00000  Uiso   1.00
H261   H     0.26128   0.11187   0.52470   0.00000  Uiso   1.00
H262   H     0.42147   0.07647   0.45040   0.00000  Uiso   1.00
H263   H     0.15443   0.21759   0.43634   0.00000  Uiso   1.00
H264   H     0.21083   0.06133   0.69129   0.00000  Uiso   1.00
H265   H     0.59444   0.00609   0.36176   0.00000  Uiso   1.00
H266   H     0.03136   0.30366   0.33215   0.00000  Uiso   1.00
H267   H     0.15027   0.97415   0.86975   0.00000  Uiso   1.00
O268   O     0.68395   0.87572   0.29142   0.00000  Uiso   1.00
O269   O     0.94521   0.26611   0.25258   0.00000  Uiso   1.00
O270   O     0.10122   0.83380   0.95789   0.00000  Uiso   1.00
N271   N     0.54918   0.85378   0.34051   0.00000  Uiso   1.00
N272   N     0.02275   0.13198   0.31281   0.00000  Uiso   1.00
N273   N     0.13390   0.82393   0.81542   0.00000  Uiso   1.00
N274   N     0.56557   0.96438   0.36265   0.00000  Uiso   1.00
N275   N     0.03913   0.24258   0.33495   0.00000  Uiso   1.00
N276   N     0.15028   0.93453   0.83756   0.00000  Uiso   1.00
