data_job_05449
_audit_creation_date              2018-12-19
_audit_creation_method            'Materials Studio'
_symmetry_space_group_name_H-M    'P1'
_symmetry_Int_Tables_number       1
_symmetry_cell_setting            triclinic
loop_
_symmetry_equiv_pos_as_xyz
  x,y,z
_cell_length_a                    22.6456
_cell_length_b                    9.7291
_cell_length_c                    23.2318
_cell_angle_alpha                 90.0000
_cell_angle_beta                  90.0000
_cell_angle_gamma                 90.0000
loop_
_atom_site_label
_atom_site_type_symbol
_atom_site_fract_x
_atom_site_fract_y
_atom_site_fract_z
_atom_site_U_iso_or_equiv
_atom_site_adp_type
_atom_site_occupancy
C1     C     0.91826   0.68268   0.44782   0.00000  Uiso   1.00
C2     C     0.86795   0.77376   0.46899   0.00000  Uiso   1.00
C3     C     0.85272   0.79586   0.52611   0.00000  Uiso   1.00
C4     C     0.80528   0.88273   0.53656   0.00000  Uiso   1.00
C5     C     0.73186   0.01461   0.57629   0.00000  Uiso   1.00
C6     C     0.89031   0.57869   0.40696   0.00000  Uiso   1.00
C7     C     0.89390   0.43678   0.41191   0.00000  Uiso   1.00
C8     C     0.86530   0.35945   0.37014   0.00000  Uiso   1.00
C9     C     0.82664   0.18847   0.31353   0.00000  Uiso   1.00
C10    C     0.95733   0.77437   0.41063   0.00000  Uiso   1.00
C11    C     0.01728   0.79697   0.41867   0.00000  Uiso   1.00
C12    C     0.04510   0.88436   0.37997   0.00000  Uiso   1.00
C13    C     0.11050   0.01721   0.32907   0.00000  Uiso   1.00
C14    C     0.86108   0.79767   0.36481   0.00000  Uiso   1.00
C15    C     0.83689   0.83622   0.42390   0.00000  Uiso   1.00
C16    C     0.78946   0.92309   0.43427   0.00000  Uiso   1.00
C17    C     0.77416   0.94531   0.49139   0.00000  Uiso   1.00
C18    C     0.85925   0.64115   0.36187   0.00000  Uiso   1.00
C19    C     0.83064   0.56401   0.32007   0.00000  Uiso   1.00
C20    C     0.83418   0.42202   0.32497   0.00000  Uiso   1.00
C21    C     0.92627   0.83684   0.36554   0.00000  Uiso   1.00
C22    C     0.95401   0.92420   0.32683   0.00000  Uiso   1.00
C23    C     0.01398   0.94693   0.33480   0.00000  Uiso   1.00
H24    H     0.94244   0.63405   0.48292   0.00000  Uiso   1.00
H25    H     0.87677   0.74749   0.56099   0.00000  Uiso   1.00
H26    H     0.91795   0.38848   0.44681   0.00000  Uiso   1.00
H27    H     0.04130   0.74861   0.45356   0.00000  Uiso   1.00
H28    H     0.79024   0.90078   0.62766   0.00000  Uiso   1.00
H29    H     0.87709   0.14377   0.38688   0.00000  Uiso   1.00
H30    H     0.13721   0.90318   0.40113   0.00000  Uiso   1.00
H31    H     0.83689   0.84630   0.32971   0.00000  Uiso   1.00
H32    H     0.76543   0.97141   0.39937   0.00000  Uiso   1.00
H33    H     0.80661   0.61238   0.28518   0.00000  Uiso   1.00
H34    H     0.92996   0.97252   0.29194   0.00000  Uiso   1.00
H35    H     0.69987   0.08251   0.49648   0.00000  Uiso   1.00
H36    H     0.78672   0.32549   0.25571   0.00000  Uiso   1.00
H37    H     0.04684   0.08491   0.26995   0.00000  Uiso   1.00
O38    O     0.69994   0.07007   0.61066   0.00000  Uiso   1.00
O39    O     0.81389   0.07691   0.29477   0.00000  Uiso   1.00
O40    O     0.15515   0.07325   0.31346   0.00000  Uiso   1.00
N41    N     0.77879   0.92640   0.58723   0.00000  Uiso   1.00
N42    N     0.85998   0.21864   0.36212   0.00000  Uiso   1.00
N43    N     0.10317   0.92860   0.37543   0.00000  Uiso   1.00
N44    N     0.73016   0.02419   0.51664   0.00000  Uiso   1.00
N45    N     0.81135   0.31643   0.29154   0.00000  Uiso   1.00
N46    N     0.05454   0.02639   0.30484   0.00000  Uiso   1.00
C47    C     0.58174   0.31732   0.94782   0.00000  Uiso   1.00
C48    C     0.63205   0.22624   0.96899   0.00000  Uiso   1.00
C49    C     0.64728   0.20414   0.02611   0.00000  Uiso   1.00
C50    C     0.69472   0.11727   0.03656   0.00000  Uiso   1.00
C51    C     0.76814   0.98539   0.07629   0.00000  Uiso   1.00
C52    C     0.60969   0.42131   0.90696   0.00000  Uiso   1.00
C53    C     0.60610   0.56322   0.91191   0.00000  Uiso   1.00
C54    C     0.63470   0.64055   0.87014   0.00000  Uiso   1.00
C55    C     0.67336   0.81153   0.81353   0.00000  Uiso   1.00
C56    C     0.54267   0.22563   0.91063   0.00000  Uiso   1.00
C57    C     0.48272   0.20303   0.91867   0.00000  Uiso   1.00
C58    C     0.45490   0.11564   0.87997   0.00000  Uiso   1.00
C59    C     0.38950   0.98279   0.82907   0.00000  Uiso   1.00
C60    C     0.63892   0.20233   0.86481   0.00000  Uiso   1.00
C61    C     0.66311   0.16378   0.92390   0.00000  Uiso   1.00
C62    C     0.71054   0.07691   0.93427   0.00000  Uiso   1.00
C63    C     0.72584   0.05469   0.99139   0.00000  Uiso   1.00
C64    C     0.64075   0.35885   0.86187   0.00000  Uiso   1.00
C65    C     0.66936   0.43599   0.82007   0.00000  Uiso   1.00
C66    C     0.66582   0.57798   0.82497   0.00000  Uiso   1.00
C67    C     0.57373   0.16316   0.86554   0.00000  Uiso   1.00
C68    C     0.54599   0.07580   0.82683   0.00000  Uiso   1.00
C69    C     0.48602   0.05307   0.83480   0.00000  Uiso   1.00
H70    H     0.55756   0.36595   0.98292   0.00000  Uiso   1.00
H71    H     0.62323   0.25251   0.06099   0.00000  Uiso   1.00
H72    H     0.58205   0.61152   0.94681   0.00000  Uiso   1.00
H73    H     0.45870   0.25139   0.95356   0.00000  Uiso   1.00
H74    H     0.70976   0.09922   0.12766   0.00000  Uiso   1.00
H75    H     0.62291   0.85623   0.88688   0.00000  Uiso   1.00
H76    H     0.36279   0.09682   0.90113   0.00000  Uiso   1.00
H77    H     0.66311   0.15370   0.82971   0.00000  Uiso   1.00
H78    H     0.73457   0.02859   0.89937   0.00000  Uiso   1.00
H79    H     0.69339   0.38762   0.78518   0.00000  Uiso   1.00
H80    H     0.57004   0.02748   0.79194   0.00000  Uiso   1.00
H81    H     0.80013   0.91749   0.99648   0.00000  Uiso   1.00
H82    H     0.71328   0.67451   0.75571   0.00000  Uiso   1.00
H83    H     0.45316   0.91509   0.76995   0.00000  Uiso   1.00
O84    O     0.80006   0.92993   0.11066   0.00000  Uiso   1.00
O85    O     0.68611   0.92309   0.79477   0.00000  Uiso   1.00
O86    O     0.34485   0.92675   0.81346   0.00000  Uiso   1.00
N87    N     0.72121   0.07360   0.08723   0.00000  Uiso   1.00
N88    N     0.64002   0.78136   0.86212   0.00000  Uiso   1.00
N89    N     0.39683   0.07140   0.87543   0.00000  Uiso   1.00
N90    N     0.76984   0.97581   0.01664   0.00000  Uiso   1.00
N91    N     0.68865   0.68357   0.79154   0.00000  Uiso   1.00
N92    N     0.44546   0.97361   0.80484   0.00000  Uiso   1.00
C93    C     0.08174   0.18268   0.05218   0.00000  Uiso   1.00
C94    C     0.13205   0.27376   0.03101   0.00000  Uiso   1.00
C95    C     0.14728   0.29586   0.97389   0.00000  Uiso   1.00
C96    C     0.19472   0.38273   0.96344   0.00000  Uiso   1.00
C97    C     0.26814   0.51461   0.92371   0.00000  Uiso   1.00
C98    C     0.10969   0.07869   0.09304   0.00000  Uiso   1.00
C99    C     0.10610   0.93678   0.08809   0.00000  Uiso   1.00
C100   C     0.13470   0.85945   0.12986   0.00000  Uiso   1.00
C101   C     0.17336   0.68847   0.18647   0.00000  Uiso   1.00
C102   C     0.04267   0.27437   0.08937   0.00000  Uiso   1.00
C103   C     0.98272   0.29697   0.08133   0.00000  Uiso   1.00
C104   C     0.95490   0.38436   0.12003   0.00000  Uiso   1.00
C105   C     0.88950   0.51721   0.17093   0.00000  Uiso   1.00
C106   C     0.13892   0.29767   0.13519   0.00000  Uiso   1.00
C107   C     0.16311   0.33622   0.07610   0.00000  Uiso   1.00
C108   C     0.21054   0.42309   0.06573   0.00000  Uiso   1.00
C109   C     0.22584   0.44531   0.00861   0.00000  Uiso   1.00
C110   C     0.14075   0.14115   0.13813   0.00000  Uiso   1.00
C111   C     0.16936   0.06401   0.17993   0.00000  Uiso   1.00
C112   C     0.16582   0.92202   0.17503   0.00000  Uiso   1.00
C113   C     0.07373   0.33684   0.13446   0.00000  Uiso   1.00
C114   C     0.04599   0.42420   0.17317   0.00000  Uiso   1.00
C115   C     0.98602   0.44693   0.16520   0.00000  Uiso   1.00
H116   H     0.05756   0.13405   0.01708   0.00000  Uiso   1.00
H117   H     0.12323   0.24749   0.93901   0.00000  Uiso   1.00
H118   H     0.08205   0.88848   0.05319   0.00000  Uiso   1.00
H119   H     0.95870   0.24861   0.04644   0.00000  Uiso   1.00
H120   H     0.20976   0.40078   0.87234   0.00000  Uiso   1.00
H121   H     0.12291   0.64377   0.11312   0.00000  Uiso   1.00
H122   H     0.86279   0.40318   0.09887   0.00000  Uiso   1.00
H123   H     0.16311   0.34630   0.17029   0.00000  Uiso   1.00
H124   H     0.23457   0.47141   0.10063   0.00000  Uiso   1.00
H125   H     0.19339   0.11238   0.21482   0.00000  Uiso   1.00
H126   H     0.07004   0.47252   0.20806   0.00000  Uiso   1.00
H127   H     0.30013   0.58251   0.00352   0.00000  Uiso   1.00
H128   H     0.21328   0.82549   0.24429   0.00000  Uiso   1.00
H129   H     0.95316   0.58491   0.23005   0.00000  Uiso   1.00
O130   O     0.30006   0.57007   0.88934   0.00000  Uiso   1.00
O131   O     0.18611   0.57691   0.20523   0.00000  Uiso   1.00
O132   O     0.84485   0.57325   0.18654   0.00000  Uiso   1.00
N133   N     0.22121   0.42640   0.91277   0.00000  Uiso   1.00
N134   N     0.14002   0.71864   0.13788   0.00000  Uiso   1.00
N135   N     0.89683   0.42860   0.12457   0.00000  Uiso   1.00
N136   N     0.26984   0.52419   0.98336   0.00000  Uiso   1.00
N137   N     0.18865   0.81643   0.20846   0.00000  Uiso   1.00
N138   N     0.94546   0.52639   0.19516   0.00000  Uiso   1.00
C139   C     0.41826   0.81732   0.55218   0.00000  Uiso   1.00
C140   C     0.36795   0.72624   0.53101   0.00000  Uiso   1.00
C141   C     0.35272   0.70414   0.47389   0.00000  Uiso   1.00
C142   C     0.30528   0.61727   0.46344   0.00000  Uiso   1.00
C143   C     0.23186   0.48539   0.42371   0.00000  Uiso   1.00
C144   C     0.39031   0.92131   0.59304   0.00000  Uiso   1.00
C145   C     0.39390   0.06322   0.58809   0.00000  Uiso   1.00
C146   C     0.36530   0.14055   0.62986   0.00000  Uiso   1.00
C147   C     0.32664   0.31153   0.68647   0.00000  Uiso   1.00
C148   C     0.45733   0.72563   0.58937   0.00000  Uiso   1.00
C149   C     0.51728   0.70303   0.58133   0.00000  Uiso   1.00
C150   C     0.54510   0.61564   0.62003   0.00000  Uiso   1.00
C151   C     0.61050   0.48279   0.67093   0.00000  Uiso   1.00
C152   C     0.36108   0.70233   0.63519   0.00000  Uiso   1.00
C153   C     0.33689   0.66378   0.57610   0.00000  Uiso   1.00
C154   C     0.28946   0.57691   0.56573   0.00000  Uiso   1.00
C155   C     0.27416   0.55469   0.50861   0.00000  Uiso   1.00
C156   C     0.35925   0.85885   0.63813   0.00000  Uiso   1.00
C157   C     0.33064   0.93599   0.67993   0.00000  Uiso   1.00
C158   C     0.33418   0.07798   0.67503   0.00000  Uiso   1.00
C159   C     0.42627   0.66316   0.63446   0.00000  Uiso   1.00
C160   C     0.45401   0.57580   0.67317   0.00000  Uiso   1.00
C161   C     0.51398   0.55307   0.66520   0.00000  Uiso   1.00
H162   H     0.44244   0.86595   0.51708   0.00000  Uiso   1.00
H163   H     0.37677   0.75251   0.43901   0.00000  Uiso   1.00
H164   H     0.41795   0.11152   0.55319   0.00000  Uiso   1.00
H165   H     0.54130   0.75139   0.54644   0.00000  Uiso   1.00
H166   H     0.29024   0.59922   0.37234   0.00000  Uiso   1.00
H167   H     0.37709   0.35623   0.61312   0.00000  Uiso   1.00
H168   H     0.63721   0.59682   0.59887   0.00000  Uiso   1.00
H169   H     0.33689   0.65370   0.67029   0.00000  Uiso   1.00
H170   H     0.26543   0.52859   0.60063   0.00000  Uiso   1.00
H171   H     0.30661   0.88762   0.71482   0.00000  Uiso   1.00
H172   H     0.42996   0.52748   0.70806   0.00000  Uiso   1.00
H173   H     0.19987   0.41749   0.50352   0.00000  Uiso   1.00
H174   H     0.28672   0.17451   0.74429   0.00000  Uiso   1.00
H175   H     0.54684   0.41509   0.73005   0.00000  Uiso   1.00
O176   O     0.19994   0.42993   0.38934   0.00000  Uiso   1.00
O177   O     0.31389   0.42309   0.70523   0.00000  Uiso   1.00
O178   O     0.65515   0.42675   0.68654   0.00000  Uiso   1.00
N179   N     0.27879   0.57360   0.41277   0.00000  Uiso   1.00
N180   N     0.35998   0.28136   0.63788   0.00000  Uiso   1.00
N181   N     0.60317   0.57140   0.62457   0.00000  Uiso   1.00
N182   N     0.23016   0.47581   0.48336   0.00000  Uiso   1.00
N183   N     0.31135   0.18357   0.70846   0.00000  Uiso   1.00
N184   N     0.55454   0.47361   0.69516   0.00000  Uiso   1.00
C185   C     0.08174   0.31732   0.55218   0.00000  Uiso   1.00
C186   C     0.13205   0.22624   0.53101   0.00000  Uiso   1.00
C187   C     0.14728   0.20414   0.47389   0.00000  Uiso   1.00
C188   C     0.19472   0.11727   0.46344   0.00000  Uiso   1.00
C189   C     0.26814   0.98539   0.42371   0.00000  Uiso   1.00
C190   C     0.10969   0.42131   0.59304   0.00000  Uiso   1.00
C191   C     0.10610   0.56322   0.58809   0.00000  Uiso   1.00
C192   C     0.13470   0.64055   0.62986   0.00000  Uiso   1.00
C193   C     0.17336   0.81153   0.68647   0.00000  Uiso   1.00
C194   C     0.04267   0.22563   0.58937   0.00000  Uiso   1.00
C195   C     0.98272   0.20303   0.58133   0.00000  Uiso   1.00
C196   C     0.95490   0.11564   0.62003   0.00000  Uiso   1.00
C197   C     0.88950   0.98279   0.67093   0.00000  Uiso   1.00
C198   C     0.13892   0.20233   0.63519   0.00000  Uiso   1.00
C199   C     0.16311   0.16378   0.57610   0.00000  Uiso   1.00
C200   C     0.21054   0.07691   0.56573   0.00000  Uiso   1.00
C201   C     0.22584   0.05469   0.50861   0.00000  Uiso   1.00
C202   C     0.14075   0.35885   0.63813   0.00000  Uiso   1.00
C203   C     0.16936   0.43599   0.67993   0.00000  Uiso   1.00
C204   C     0.16582   0.57798   0.67503   0.00000  Uiso   1.00
C205   C     0.07373   0.16316   0.63446   0.00000  Uiso   1.00
C206   C     0.04599   0.07580   0.67317   0.00000  Uiso   1.00
C207   C     0.98602   0.05307   0.66520   0.00000  Uiso   1.00
H208   H     0.05756   0.36595   0.51708   0.00000  Uiso   1.00
H209   H     0.12323   0.25251   0.43901   0.00000  Uiso   1.00
H210   H     0.08205   0.61152   0.55319   0.00000  Uiso   1.00
H211   H     0.95870   0.25139   0.54644   0.00000  Uiso   1.00
H212   H     0.20976   0.09922   0.37234   0.00000  Uiso   1.00
H213   H     0.12291   0.85623   0.61312   0.00000  Uiso   1.00
H214   H     0.86279   0.09682   0.59887   0.00000  Uiso   1.00
H215   H     0.16311   0.15370   0.67029   0.00000  Uiso   1.00
H216   H     0.23457   0.02859   0.60063   0.00000  Uiso   1.00
H217   H     0.19339   0.38762   0.71482   0.00000  Uiso   1.00
H218   H     0.07004   0.02748   0.70806   0.00000  Uiso   1.00
H219   H     0.30013   0.91749   0.50352   0.00000  Uiso   1.00
H220   H     0.21328   0.67451   0.74429   0.00000  Uiso   1.00
H221   H     0.95316   0.91509   0.73005   0.00000  Uiso   1.00
O222   O     0.30006   0.92993   0.38934   0.00000  Uiso   1.00
O223   O     0.18611   0.92309   0.70523   0.00000  Uiso   1.00
O224   O     0.84485   0.92675   0.68654   0.00000  Uiso   1.00
N225   N     0.22121   0.07360   0.41277   0.00000  Uiso   1.00
N226   N     0.14002   0.78136   0.63788   0.00000  Uiso   1.00
N227   N     0.89683   0.07140   0.62457   0.00000  Uiso   1.00
N228   N     0.26984   0.97581   0.48336   0.00000  Uiso   1.00
N229   N     0.18865   0.68357   0.70846   0.00000  Uiso   1.00
N230   N     0.94546   0.97361   0.69516   0.00000  Uiso   1.00
C231   C     0.41826   0.68268   0.05218   0.00000  Uiso   1.00
C232   C     0.36795   0.77376   0.03101   0.00000  Uiso   1.00
C233   C     0.35272   0.79586   0.97389   0.00000  Uiso   1.00
C234   C     0.30528   0.88273   0.96344   0.00000  Uiso   1.00
C235   C     0.23186   0.01461   0.92371   0.00000  Uiso   1.00
C236   C     0.39031   0.57869   0.09304   0.00000  Uiso   1.00
C237   C     0.39390   0.43678   0.08809   0.00000  Uiso   1.00
C238   C     0.36530   0.35945   0.12986   0.00000  Uiso   1.00
C239   C     0.32664   0.18847   0.18647   0.00000  Uiso   1.00
C240   C     0.45733   0.77437   0.08937   0.00000  Uiso   1.00
C241   C     0.51728   0.79697   0.08133   0.00000  Uiso   1.00
C242   C     0.54510   0.88436   0.12003   0.00000  Uiso   1.00
C243   C     0.61050   0.01721   0.17093   0.00000  Uiso   1.00
C244   C     0.36108   0.79767   0.13519   0.00000  Uiso   1.00
C245   C     0.33689   0.83622   0.07610   0.00000  Uiso   1.00
C246   C     0.28946   0.92309   0.06573   0.00000  Uiso   1.00
C247   C     0.27416   0.94531   0.00861   0.00000  Uiso   1.00
C248   C     0.35925   0.64115   0.13813   0.00000  Uiso   1.00
C249   C     0.33064   0.56401   0.17993   0.00000  Uiso   1.00
C250   C     0.33418   0.42202   0.17503   0.00000  Uiso   1.00
C251   C     0.42627   0.83684   0.13446   0.00000  Uiso   1.00
C252   C     0.45401   0.92420   0.17317   0.00000  Uiso   1.00
C253   C     0.51398   0.94693   0.16520   0.00000  Uiso   1.00
H254   H     0.44244   0.63405   0.01708   0.00000  Uiso   1.00
H255   H     0.37677   0.74749   0.93901   0.00000  Uiso   1.00
H256   H     0.41795   0.38848   0.05319   0.00000  Uiso   1.00
H257   H     0.54130   0.74861   0.04644   0.00000  Uiso   1.00
H258   H     0.29024   0.90078   0.87234   0.00000  Uiso   1.00
H259   H     0.37709   0.14377   0.11312   0.00000  Uiso   1.00
H260   H     0.63721   0.90318   0.09887   0.00000  Uiso   1.00
H261   H     0.33689   0.84630   0.17029   0.00000  Uiso   1.00
H262   H     0.26543   0.97141   0.10063   0.00000  Uiso   1.00
H263   H     0.30661   0.61238   0.21482   0.00000  Uiso   1.00
H264   H     0.42996   0.97252   0.20806   0.00000  Uiso   1.00
H265   H     0.19987   0.08251   0.00352   0.00000  Uiso   1.00
H266   H     0.28672   0.32549   0.24429   0.00000  Uiso   1.00
H267   H     0.54684   0.08491   0.23005   0.00000  Uiso   1.00
O268   O     0.19994   0.07007   0.88934   0.00000  Uiso   1.00
O269   O     0.31389   0.07691   0.20523   0.00000  Uiso   1.00
O270   O     0.65515   0.07325   0.18654   0.00000  Uiso   1.00
N271   N     0.27879   0.92640   0.91277   0.00000  Uiso   1.00
N272   N     0.35998   0.21864   0.13788   0.00000  Uiso   1.00
N273   N     0.60317   0.92860   0.12457   0.00000  Uiso   1.00
N274   N     0.23016   0.02419   0.98336   0.00000  Uiso   1.00
N275   N     0.31135   0.31643   0.20846   0.00000  Uiso   1.00
N276   N     0.55454   0.02639   0.19516   0.00000  Uiso   1.00
C277   C     0.91826   0.81732   0.94782   0.00000  Uiso   1.00
C278   C     0.86795   0.72624   0.96899   0.00000  Uiso   1.00
C279   C     0.85272   0.70414   0.02611   0.00000  Uiso   1.00
C280   C     0.80528   0.61727   0.03656   0.00000  Uiso   1.00
C281   C     0.73186   0.48539   0.07629   0.00000  Uiso   1.00
C282   C     0.89031   0.92131   0.90696   0.00000  Uiso   1.00
C283   C     0.89390   0.06322   0.91191   0.00000  Uiso   1.00
C284   C     0.86530   0.14055   0.87014   0.00000  Uiso   1.00
C285   C     0.82664   0.31153   0.81353   0.00000  Uiso   1.00
C286   C     0.95733   0.72563   0.91063   0.00000  Uiso   1.00
C287   C     0.01728   0.70303   0.91867   0.00000  Uiso   1.00
C288   C     0.04510   0.61564   0.87997   0.00000  Uiso   1.00
C289   C     0.11050   0.48279   0.82907   0.00000  Uiso   1.00
C290   C     0.86108   0.70233   0.86481   0.00000  Uiso   1.00
C291   C     0.83689   0.66378   0.92390   0.00000  Uiso   1.00
C292   C     0.78946   0.57691   0.93427   0.00000  Uiso   1.00
C293   C     0.77416   0.55469   0.99139   0.00000  Uiso   1.00
C294   C     0.85925   0.85885   0.86187   0.00000  Uiso   1.00
C295   C     0.83064   0.93599   0.82007   0.00000  Uiso   1.00
C296   C     0.83418   0.07798   0.82497   0.00000  Uiso   1.00
C297   C     0.92627   0.66316   0.86554   0.00000  Uiso   1.00
C298   C     0.95401   0.57580   0.82683   0.00000  Uiso   1.00
C299   C     0.01398   0.55307   0.83480   0.00000  Uiso   1.00
H300   H     0.94244   0.86595   0.98292   0.00000  Uiso   1.00
H301   H     0.87677   0.75251   0.06099   0.00000  Uiso   1.00
H302   H     0.91795   0.11152   0.94681   0.00000  Uiso   1.00
H303   H     0.04130   0.75139   0.95356   0.00000  Uiso   1.00
H304   H     0.79024   0.59922   0.12766   0.00000  Uiso   1.00
H305   H     0.87709   0.35623   0.88688   0.00000  Uiso   1.00
H306   H     0.13721   0.59682   0.90113   0.00000  Uiso   1.00
H307   H     0.83689   0.65370   0.82971   0.00000  Uiso   1.00
H308   H     0.76543   0.52859   0.89937   0.00000  Uiso   1.00
H309   H     0.80661   0.88762   0.78518   0.00000  Uiso   1.00
H310   H     0.92996   0.52748   0.79194   0.00000  Uiso   1.00
H311   H     0.69987   0.41749   0.99648   0.00000  Uiso   1.00
H312   H     0.78672   0.17451   0.75571   0.00000  Uiso   1.00
H313   H     0.04684   0.41509   0.76995   0.00000  Uiso   1.00
O314   O     0.69994   0.42993   0.11066   0.00000  Uiso   1.00
O315   O     0.81389   0.42309   0.79477   0.00000  Uiso   1.00
O316   O     0.15515   0.42675   0.81346   0.00000  Uiso   1.00
N317   N     0.77879   0.57360   0.08723   0.00000  Uiso   1.00
N318   N     0.85998   0.28136   0.86212   0.00000  Uiso   1.00
N319   N     0.10317   0.57140   0.87543   0.00000  Uiso   1.00
N320   N     0.73016   0.47581   0.01664   0.00000  Uiso   1.00
N321   N     0.81135   0.18357   0.79154   0.00000  Uiso   1.00
N322   N     0.05454   0.47361   0.80484   0.00000  Uiso   1.00
C323   C     0.58174   0.18268   0.44782   0.00000  Uiso   1.00
C324   C     0.63205   0.27376   0.46899   0.00000  Uiso   1.00
C325   C     0.64728   0.29586   0.52611   0.00000  Uiso   1.00
C326   C     0.69472   0.38273   0.53656   0.00000  Uiso   1.00
C327   C     0.76814   0.51461   0.57629   0.00000  Uiso   1.00
C328   C     0.60969   0.07869   0.40696   0.00000  Uiso   1.00
C329   C     0.60610   0.93678   0.41191   0.00000  Uiso   1.00
C330   C     0.63470   0.85945   0.37014   0.00000  Uiso   1.00
C331   C     0.67336   0.68847   0.31353   0.00000  Uiso   1.00
C332   C     0.54267   0.27437   0.41063   0.00000  Uiso   1.00
C333   C     0.48272   0.29697   0.41867   0.00000  Uiso   1.00
C334   C     0.45490   0.38436   0.37997   0.00000  Uiso   1.00
C335   C     0.38950   0.51721   0.32907   0.00000  Uiso   1.00
C336   C     0.63892   0.29767   0.36481   0.00000  Uiso   1.00
C337   C     0.66311   0.33622   0.42390   0.00000  Uiso   1.00
C338   C     0.71054   0.42309   0.43427   0.00000  Uiso   1.00
C339   C     0.72584   0.44531   0.49139   0.00000  Uiso   1.00
C340   C     0.64075   0.14115   0.36187   0.00000  Uiso   1.00
C341   C     0.66936   0.06401   0.32007   0.00000  Uiso   1.00
C342   C     0.66582   0.92202   0.32497   0.00000  Uiso   1.00
C343   C     0.57373   0.33684   0.36554   0.00000  Uiso   1.00
C344   C     0.54599   0.42420   0.32683   0.00000  Uiso   1.00
C345   C     0.48602   0.44693   0.33480   0.00000  Uiso   1.00
H346   H     0.55756   0.13405   0.48292   0.00000  Uiso   1.00
H347   H     0.62323   0.24749   0.56099   0.00000  Uiso   1.00
H348   H     0.58205   0.88848   0.44681   0.00000  Uiso   1.00
H349   H     0.45870   0.24861   0.45356   0.00000  Uiso   1.00
H350   H     0.70976   0.40078   0.62766   0.00000  Uiso   1.00
H351   H     0.62291   0.64377   0.38688   0.00000  Uiso   1.00
H352   H     0.36279   0.40318   0.40113   0.00000  Uiso   1.00
H353   H     0.66311   0.34630   0.32971   0.00000  Uiso   1.00
H354   H     0.73457   0.47141   0.39937   0.00000  Uiso   1.00
H355   H     0.69339   0.11238   0.28518   0.00000  Uiso   1.00
H356   H     0.57004   0.47252   0.29194   0.00000  Uiso   1.00
H357   H     0.80013   0.58251   0.49648   0.00000  Uiso   1.00
H358   H     0.71328   0.82549   0.25571   0.00000  Uiso   1.00
H359   H     0.45316   0.58491   0.26995   0.00000  Uiso   1.00
O360   O     0.80006   0.57007   0.61066   0.00000  Uiso   1.00
O361   O     0.68611   0.57691   0.29477   0.00000  Uiso   1.00
O362   O     0.34485   0.57325   0.31346   0.00000  Uiso   1.00
N363   N     0.72121   0.42640   0.58723   0.00000  Uiso   1.00
N364   N     0.64002   0.71864   0.36212   0.00000  Uiso   1.00
N365   N     0.39683   0.42860   0.37543   0.00000  Uiso   1.00
N366   N     0.76984   0.52419   0.51664   0.00000  Uiso   1.00
N367   N     0.68865   0.81643   0.29154   0.00000  Uiso   1.00
N368   N     0.44546   0.52639   0.30484   0.00000  Uiso   1.00
