data_job_00541
_audit_creation_date              2018-12-19
_audit_creation_method            'Materials Studio'
_symmetry_space_group_name_H-M    'P1'
_symmetry_Int_Tables_number       1
_symmetry_cell_setting            triclinic
loop_
_symmetry_equiv_pos_as_xyz
  x,y,z
_cell_length_a                    21.5411
_cell_length_b                    14.8998
_cell_length_c                    7.4731
_cell_angle_alpha                 90.0000
_cell_angle_beta                  90.0000
_cell_angle_gamma                 90.0000
loop_
_atom_site_label
_atom_site_type_symbol
_atom_site_fract_x
_atom_site_fract_y
_atom_site_fract_z
_atom_site_U_iso_or_equiv
_atom_site_adp_type
_atom_site_occupancy
C1     C     0.76864   0.87383   0.17811   0.00000  Uiso   1.00
C2     C     0.78684   0.92138   0.00520   0.00000  Uiso   1.00
C3     C     0.81818   0.00254   0.99334   0.00000  Uiso   1.00
C4     C     0.83049   0.03486   0.82274   0.00000  Uiso   1.00
C5     C     0.86152   0.11590   0.57755   0.00000  Uiso   1.00
C6     C     0.69856   0.86015   0.16837   0.00000  Uiso   1.00
C7     C     0.65568   0.88981   0.29372   0.00000  Uiso   1.00
C8     C     0.59368   0.87057   0.26047   0.00000  Uiso   1.00
C9     C     0.48767   0.85647   0.26867   0.00000  Uiso   1.00
C10    C     0.79730   0.78040   0.16759   0.00000  Uiso   1.00
C11    C     0.83742   0.74300   0.29230   0.00000  Uiso   1.00
C12    C     0.85853   0.65661   0.25843   0.00000  Uiso   1.00
C13    C     0.90582   0.51871   0.26541   0.00000  Uiso   1.00
C14    C     0.73478   0.78690   0.89622   0.00000  Uiso   1.00
C15    C     0.76845   0.87416   0.85209   0.00000  Uiso   1.00
C16    C     0.78071   0.90637   0.68146   0.00000  Uiso   1.00
C17    C     0.81206   0.98756   0.66935   0.00000  Uiso   1.00
C18    C     0.68017   0.81293   0.01526   0.00000  Uiso   1.00
C19    C     0.61822   0.79363   0.98183   0.00000  Uiso   1.00
C20    C     0.57525   0.82326   0.10709   0.00000  Uiso   1.00
C21    C     0.77891   0.73318   0.01447   0.00000  Uiso   1.00
C22    C     0.79996   0.64683   0.98041   0.00000  Uiso   1.00
C23    C     0.84010   0.60931   0.10504   0.00000  Uiso   1.00
H24    H     0.78295   0.91059   0.29732   0.00000  Uiso   1.00
H25    H     0.83240   0.03907   0.11187   0.00000  Uiso   1.00
H26    H     0.66993   0.92634   0.41220   0.00000  Uiso   1.00
H27    H     0.85164   0.77956   0.41077   0.00000  Uiso   1.00
H28    H     0.87909   0.16070   0.83874   0.00000  Uiso   1.00
H29    H     0.53651   0.92298   0.47203   0.00000  Uiso   1.00
H30    H     0.91969   0.61347   0.46904   0.00000  Uiso   1.00
H31    H     0.72045   0.75014   0.77701   0.00000  Uiso   1.00
H32    H     0.76647   0.86981   0.56300   0.00000  Uiso   1.00
H33    H     0.60400   0.75709   0.86334   0.00000  Uiso   1.00
H34    H     0.78571   0.61031   0.86191   0.00000  Uiso   1.00
H35    H     0.82558   0.02333   0.39326   0.00000  Uiso   1.00
H36    H     0.48300   0.78561   0.02656   0.00000  Uiso   1.00
H37    H     0.86618   0.47610   0.02355   0.00000  Uiso   1.00
O38    O     0.88371   0.17365   0.48460   0.00000  Uiso   1.00
O39    O     0.43427   0.86176   0.31548   0.00000  Uiso   1.00
O40    O     0.93699   0.45569   0.31154   0.00000  Uiso   1.00
N41    N     0.86019   0.11194   0.76326   0.00000  Uiso   1.00
N42    N     0.53990   0.88970   0.35534   0.00000  Uiso   1.00
N43    N     0.89812   0.60032   0.35256   0.00000  Uiso   1.00
N44    N     0.83140   0.03802   0.52355   0.00000  Uiso   1.00
N45    N     0.51111   0.81578   0.11563   0.00000  Uiso   1.00
N46    N     0.86933   0.52640   0.11285   0.00000  Uiso   1.00
C47    C     0.23136   0.12617   0.17811   0.00000  Uiso   1.00
C48    C     0.21316   0.07862   0.00520   0.00000  Uiso   1.00
C49    C     0.18182   0.99746   0.99334   0.00000  Uiso   1.00
C50    C     0.16951   0.96514   0.82274   0.00000  Uiso   1.00
C51    C     0.13848   0.88410   0.57755   0.00000  Uiso   1.00
C52    C     0.30144   0.13985   0.16837   0.00000  Uiso   1.00
C53    C     0.34432   0.11019   0.29372   0.00000  Uiso   1.00
C54    C     0.40632   0.12943   0.26047   0.00000  Uiso   1.00
C55    C     0.51233   0.14353   0.26867   0.00000  Uiso   1.00
C56    C     0.20270   0.21960   0.16759   0.00000  Uiso   1.00
C57    C     0.16258   0.25700   0.29230   0.00000  Uiso   1.00
C58    C     0.14147   0.34339   0.25843   0.00000  Uiso   1.00
C59    C     0.09418   0.48129   0.26541   0.00000  Uiso   1.00
C60    C     0.26522   0.21310   0.89622   0.00000  Uiso   1.00
C61    C     0.23155   0.12584   0.85209   0.00000  Uiso   1.00
C62    C     0.21929   0.09363   0.68146   0.00000  Uiso   1.00
C63    C     0.18794   0.01244   0.66935   0.00000  Uiso   1.00
C64    C     0.31983   0.18707   0.01526   0.00000  Uiso   1.00
C65    C     0.38178   0.20637   0.98183   0.00000  Uiso   1.00
C66    C     0.42475   0.17674   0.10709   0.00000  Uiso   1.00
C67    C     0.22109   0.26682   0.01447   0.00000  Uiso   1.00
C68    C     0.20004   0.35317   0.98041   0.00000  Uiso   1.00
C69    C     0.15990   0.39069   0.10504   0.00000  Uiso   1.00
H70    H     0.21705   0.08941   0.29732   0.00000  Uiso   1.00
H71    H     0.16760   0.96093   0.11187   0.00000  Uiso   1.00
H72    H     0.33007   0.07366   0.41220   0.00000  Uiso   1.00
H73    H     0.14836   0.22044   0.41077   0.00000  Uiso   1.00
H74    H     0.12091   0.83930   0.83874   0.00000  Uiso   1.00
H75    H     0.46349   0.07702   0.47203   0.00000  Uiso   1.00
H76    H     0.08031   0.38653   0.46904   0.00000  Uiso   1.00
H77    H     0.27955   0.24986   0.77701   0.00000  Uiso   1.00
H78    H     0.23353   0.13019   0.56300   0.00000  Uiso   1.00
H79    H     0.39600   0.24291   0.86334   0.00000  Uiso   1.00
H80    H     0.21429   0.38969   0.86191   0.00000  Uiso   1.00
H81    H     0.17442   0.97667   0.39326   0.00000  Uiso   1.00
H82    H     0.51700   0.21439   0.02656   0.00000  Uiso   1.00
H83    H     0.13382   0.52390   0.02355   0.00000  Uiso   1.00
O84    O     0.11629   0.82635   0.48460   0.00000  Uiso   1.00
O85    O     0.56573   0.13824   0.31548   0.00000  Uiso   1.00
O86    O     0.06301   0.54431   0.31154   0.00000  Uiso   1.00
N87    N     0.13981   0.88806   0.76326   0.00000  Uiso   1.00
N88    N     0.46010   0.11030   0.35534   0.00000  Uiso   1.00
N89    N     0.10188   0.39968   0.35256   0.00000  Uiso   1.00
N90    N     0.16860   0.96198   0.52355   0.00000  Uiso   1.00
N91    N     0.48889   0.18422   0.11563   0.00000  Uiso   1.00
N92    N     0.13067   0.47360   0.11285   0.00000  Uiso   1.00
C93    C     0.73136   0.37383   0.82189   0.00000  Uiso   1.00
C94    C     0.71316   0.42138   0.99480   0.00000  Uiso   1.00
C95    C     0.68182   0.50254   0.00666   0.00000  Uiso   1.00
C96    C     0.66951   0.53486   0.17726   0.00000  Uiso   1.00
C97    C     0.63848   0.61590   0.42245   0.00000  Uiso   1.00
C98    C     0.80144   0.36015   0.83163   0.00000  Uiso   1.00
C99    C     0.84432   0.38981   0.70628   0.00000  Uiso   1.00
C100   C     0.90632   0.37057   0.73953   0.00000  Uiso   1.00
C101   C     0.01233   0.35647   0.73133   0.00000  Uiso   1.00
C102   C     0.70270   0.28040   0.83241   0.00000  Uiso   1.00
C103   C     0.66258   0.24300   0.70770   0.00000  Uiso   1.00
C104   C     0.64147   0.15661   0.74157   0.00000  Uiso   1.00
C105   C     0.59418   0.01871   0.73459   0.00000  Uiso   1.00
C106   C     0.76522   0.28690   0.10378   0.00000  Uiso   1.00
C107   C     0.73155   0.37416   0.14791   0.00000  Uiso   1.00
C108   C     0.71929   0.40637   0.31854   0.00000  Uiso   1.00
C109   C     0.68794   0.48756   0.33065   0.00000  Uiso   1.00
C110   C     0.81983   0.31293   0.98474   0.00000  Uiso   1.00
C111   C     0.88178   0.29363   0.01817   0.00000  Uiso   1.00
C112   C     0.92475   0.32326   0.89291   0.00000  Uiso   1.00
C113   C     0.72109   0.23318   0.98553   0.00000  Uiso   1.00
C114   C     0.70004   0.14683   0.01959   0.00000  Uiso   1.00
C115   C     0.65990   0.10931   0.89496   0.00000  Uiso   1.00
H116   H     0.71705   0.41059   0.70268   0.00000  Uiso   1.00
H117   H     0.66760   0.53907   0.88813   0.00000  Uiso   1.00
H118   H     0.83007   0.42634   0.58780   0.00000  Uiso   1.00
H119   H     0.64836   0.27956   0.58923   0.00000  Uiso   1.00
H120   H     0.62091   0.66070   0.16126   0.00000  Uiso   1.00
H121   H     0.96349   0.42298   0.52797   0.00000  Uiso   1.00
H122   H     0.58031   0.11347   0.53096   0.00000  Uiso   1.00
H123   H     0.77955   0.25014   0.22299   0.00000  Uiso   1.00
H124   H     0.73353   0.36981   0.43700   0.00000  Uiso   1.00
H125   H     0.89600   0.25709   0.13666   0.00000  Uiso   1.00
H126   H     0.71429   0.11031   0.13809   0.00000  Uiso   1.00
H127   H     0.67442   0.52333   0.60674   0.00000  Uiso   1.00
H128   H     0.01700   0.28561   0.97344   0.00000  Uiso   1.00
H129   H     0.63382   0.97610   0.97645   0.00000  Uiso   1.00
O130   O     0.61629   0.67365   0.51540   0.00000  Uiso   1.00
O131   O     0.06573   0.36176   0.68452   0.00000  Uiso   1.00
O132   O     0.56301   0.95569   0.68846   0.00000  Uiso   1.00
N133   N     0.63981   0.61194   0.23674   0.00000  Uiso   1.00
N134   N     0.96010   0.38970   0.64466   0.00000  Uiso   1.00
N135   N     0.60188   0.10032   0.64744   0.00000  Uiso   1.00
N136   N     0.66860   0.53802   0.47645   0.00000  Uiso   1.00
N137   N     0.98889   0.31578   0.88437   0.00000  Uiso   1.00
N138   N     0.63067   0.02640   0.88715   0.00000  Uiso   1.00
C139   C     0.26864   0.62617   0.82189   0.00000  Uiso   1.00
C140   C     0.28684   0.57862   0.99480   0.00000  Uiso   1.00
C141   C     0.31818   0.49746   0.00666   0.00000  Uiso   1.00
C142   C     0.33049   0.46514   0.17726   0.00000  Uiso   1.00
C143   C     0.36152   0.38410   0.42245   0.00000  Uiso   1.00
C144   C     0.19856   0.63985   0.83163   0.00000  Uiso   1.00
C145   C     0.15568   0.61019   0.70628   0.00000  Uiso   1.00
C146   C     0.09368   0.62943   0.73953   0.00000  Uiso   1.00
C147   C     0.98767   0.64353   0.73133   0.00000  Uiso   1.00
C148   C     0.29730   0.71960   0.83241   0.00000  Uiso   1.00
C149   C     0.33742   0.75700   0.70770   0.00000  Uiso   1.00
C150   C     0.35853   0.84339   0.74157   0.00000  Uiso   1.00
C151   C     0.40582   0.98129   0.73459   0.00000  Uiso   1.00
C152   C     0.23478   0.71310   0.10378   0.00000  Uiso   1.00
C153   C     0.26845   0.62584   0.14791   0.00000  Uiso   1.00
C154   C     0.28071   0.59363   0.31854   0.00000  Uiso   1.00
C155   C     0.31206   0.51244   0.33065   0.00000  Uiso   1.00
C156   C     0.18017   0.68707   0.98474   0.00000  Uiso   1.00
C157   C     0.11822   0.70637   0.01817   0.00000  Uiso   1.00
C158   C     0.07525   0.67674   0.89291   0.00000  Uiso   1.00
C159   C     0.27891   0.76682   0.98553   0.00000  Uiso   1.00
C160   C     0.29996   0.85317   0.01959   0.00000  Uiso   1.00
C161   C     0.34010   0.89069   0.89496   0.00000  Uiso   1.00
H162   H     0.28295   0.58941   0.70268   0.00000  Uiso   1.00
H163   H     0.33240   0.46093   0.88813   0.00000  Uiso   1.00
H164   H     0.16993   0.57366   0.58780   0.00000  Uiso   1.00
H165   H     0.35164   0.72044   0.58923   0.00000  Uiso   1.00
H166   H     0.37909   0.33930   0.16126   0.00000  Uiso   1.00
H167   H     0.03651   0.57702   0.52797   0.00000  Uiso   1.00
H168   H     0.41969   0.88653   0.53096   0.00000  Uiso   1.00
H169   H     0.22045   0.74986   0.22299   0.00000  Uiso   1.00
H170   H     0.26647   0.63019   0.43700   0.00000  Uiso   1.00
H171   H     0.10400   0.74291   0.13666   0.00000  Uiso   1.00
H172   H     0.28571   0.88969   0.13809   0.00000  Uiso   1.00
H173   H     0.32558   0.47667   0.60674   0.00000  Uiso   1.00
H174   H     0.98300   0.71439   0.97344   0.00000  Uiso   1.00
H175   H     0.36618   0.02390   0.97645   0.00000  Uiso   1.00
O176   O     0.38371   0.32635   0.51540   0.00000  Uiso   1.00
O177   O     0.93427   0.63824   0.68452   0.00000  Uiso   1.00
O178   O     0.43699   0.04431   0.68846   0.00000  Uiso   1.00
N179   N     0.36019   0.38806   0.23674   0.00000  Uiso   1.00
N180   N     0.03990   0.61030   0.64466   0.00000  Uiso   1.00
N181   N     0.39812   0.89968   0.64744   0.00000  Uiso   1.00
N182   N     0.33140   0.46198   0.47645   0.00000  Uiso   1.00
N183   N     0.01111   0.68422   0.88437   0.00000  Uiso   1.00
N184   N     0.36933   0.97360   0.88715   0.00000  Uiso   1.00
