data_job_04038
_audit_creation_date              2018-12-19
_audit_creation_method            'Materials Studio'
_symmetry_space_group_name_H-M    'P1'
_symmetry_Int_Tables_number       1
_symmetry_cell_setting            triclinic
loop_
_symmetry_equiv_pos_as_xyz
  x,y,z
_cell_length_a                    12.5818
_cell_length_b                    14.9445
_cell_length_c                    14.8977
_cell_angle_alpha                 90.0000
_cell_angle_beta                  90.0000
_cell_angle_gamma                 90.0000
loop_
_atom_site_label
_atom_site_type_symbol
_atom_site_fract_x
_atom_site_fract_y
_atom_site_fract_z
_atom_site_U_iso_or_equiv
_atom_site_adp_type
_atom_site_occupancy
C1     C     0.67415   0.75419   0.88781   0.00000  Uiso   1.00
C2     C     0.75303   0.77316   0.96317   0.00000  Uiso   1.00
C3     C     0.84459   0.82440   0.95573   0.00000  Uiso   1.00
C4     C     0.90627   0.83374   0.03244   0.00000  Uiso   1.00
C5     C     0.03317   0.86931   0.13709   0.00000  Uiso   1.00
C6     C     0.66670   0.65259   0.88071   0.00000  Uiso   1.00
C7     C     0.68566   0.60247   0.80394   0.00000  Uiso   1.00
C8     C     0.67465   0.51031   0.81123   0.00000  Uiso   1.00
C9     C     0.66745   0.35871   0.78784   0.00000  Uiso   1.00
C10    C     0.56623   0.78573   0.92198   0.00000  Uiso   1.00
C11    C     0.50069   0.84754   0.87989   0.00000  Uiso   1.00
C12    C     0.40508   0.86747   0.92192   0.00000  Uiso   1.00
C13    C     0.24188   0.92259   0.96260   0.00000  Uiso   1.00
C14    C     0.62087   0.67965   0.03727   0.00000  Uiso   1.00
C15    C     0.72408   0.73267   0.04434   0.00000  Uiso   1.00
C16    C     0.78564   0.74193   0.12108   0.00000  Uiso   1.00
C17    C     0.87727   0.79318   0.11376   0.00000  Uiso   1.00
C18    C     0.63776   0.61210   0.96188   0.00000  Uiso   1.00
C19    C     0.62671   0.52000   0.96929   0.00000  Uiso   1.00
C20    C     0.64566   0.46975   0.89255   0.00000  Uiso   1.00
C21    C     0.53728   0.74525   0.00315   0.00000  Uiso   1.00
C22    C     0.44175   0.76508   0.04525   0.00000  Uiso   1.00
C23    C     0.37609   0.82691   0.00324   0.00000  Uiso   1.00
H24    H     0.69669   0.78570   0.82461   0.00000  Uiso   1.00
H25    H     0.86697   0.85571   0.89289   0.00000  Uiso   1.00
H26    H     0.70805   0.63382   0.74112   0.00000  Uiso   1.00
H27    H     0.52312   0.87886   0.81707   0.00000  Uiso   1.00
H28    H     0.04301   0.91545   0.00439   0.00000  Uiso   1.00
H29    H     0.70789   0.44757   0.68437   0.00000  Uiso   1.00
H30    H     0.31792   0.96428   0.84452   0.00000  Uiso   1.00
H31    H     0.59833   0.64813   0.10047   0.00000  Uiso   1.00
H32    H     0.76322   0.71059   0.18389   0.00000  Uiso   1.00
H33    H     0.60430   0.48869   0.03212   0.00000  Uiso   1.00
H34    H     0.41937   0.73373   0.10807   0.00000  Uiso   1.00
H35    H     0.95881   0.79766   0.24058   0.00000  Uiso   1.00
H36    H     0.62368   0.32978   0.92055   0.00000  Uiso   1.00
H37    H     0.23372   0.84650   0.08070   0.00000  Uiso   1.00
O38    O     0.11117   0.90010   0.17238   0.00000  Uiso   1.00
O39    O     0.67148   0.28627   0.75251   0.00000  Uiso   1.00
O40    O     0.15987   0.96419   0.96263   0.00000  Uiso   1.00
N41    N     0.00055   0.87917   0.04853   0.00000  Uiso   1.00
N42    N     0.68725   0.44173   0.74933   0.00000  Uiso   1.00
N43    N     0.32266   0.92480   0.89905   0.00000  Uiso   1.00
N44    N     0.95525   0.81579   0.17562   0.00000  Uiso   1.00
N45    N     0.64194   0.37835   0.87642   0.00000  Uiso   1.00
N46    N     0.27735   0.86142   0.02613   0.00000  Uiso   1.00
C47    C     0.32585   0.24581   0.88781   0.00000  Uiso   1.00
C48    C     0.24697   0.22684   0.96317   0.00000  Uiso   1.00
C49    C     0.15541   0.17560   0.95573   0.00000  Uiso   1.00
C50    C     0.09373   0.16626   0.03244   0.00000  Uiso   1.00
C51    C     0.96683   0.13069   0.13709   0.00000  Uiso   1.00
C52    C     0.33330   0.34741   0.88071   0.00000  Uiso   1.00
C53    C     0.31434   0.39753   0.80394   0.00000  Uiso   1.00
C54    C     0.32535   0.48969   0.81123   0.00000  Uiso   1.00
C55    C     0.33255   0.64129   0.78784   0.00000  Uiso   1.00
C56    C     0.43377   0.21427   0.92198   0.00000  Uiso   1.00
C57    C     0.49931   0.15246   0.87989   0.00000  Uiso   1.00
C58    C     0.59492   0.13253   0.92192   0.00000  Uiso   1.00
C59    C     0.75812   0.07741   0.96260   0.00000  Uiso   1.00
C60    C     0.37913   0.32035   0.03727   0.00000  Uiso   1.00
C61    C     0.27592   0.26733   0.04434   0.00000  Uiso   1.00
C62    C     0.21436   0.25807   0.12108   0.00000  Uiso   1.00
C63    C     0.12273   0.20682   0.11376   0.00000  Uiso   1.00
C64    C     0.36224   0.38790   0.96188   0.00000  Uiso   1.00
C65    C     0.37329   0.48000   0.96929   0.00000  Uiso   1.00
C66    C     0.35434   0.53025   0.89255   0.00000  Uiso   1.00
C67    C     0.46272   0.25475   0.00315   0.00000  Uiso   1.00
C68    C     0.55825   0.23492   0.04525   0.00000  Uiso   1.00
C69    C     0.62391   0.17309   0.00324   0.00000  Uiso   1.00
H70    H     0.30331   0.21430   0.82461   0.00000  Uiso   1.00
H71    H     0.13303   0.14429   0.89289   0.00000  Uiso   1.00
H72    H     0.29195   0.36618   0.74112   0.00000  Uiso   1.00
H73    H     0.47688   0.12114   0.81707   0.00000  Uiso   1.00
H74    H     0.95699   0.08455   0.00439   0.00000  Uiso   1.00
H75    H     0.29211   0.55243   0.68437   0.00000  Uiso   1.00
H76    H     0.68208   0.03572   0.84452   0.00000  Uiso   1.00
H77    H     0.40167   0.35187   0.10047   0.00000  Uiso   1.00
H78    H     0.23678   0.28941   0.18389   0.00000  Uiso   1.00
H79    H     0.39570   0.51131   0.03212   0.00000  Uiso   1.00
H80    H     0.58063   0.26627   0.10807   0.00000  Uiso   1.00
H81    H     0.04119   0.20234   0.24058   0.00000  Uiso   1.00
H82    H     0.37632   0.67022   0.92055   0.00000  Uiso   1.00
H83    H     0.76628   0.15350   0.08070   0.00000  Uiso   1.00
O84    O     0.88883   0.09990   0.17238   0.00000  Uiso   1.00
O85    O     0.32852   0.71373   0.75251   0.00000  Uiso   1.00
O86    O     0.84013   0.03581   0.96263   0.00000  Uiso   1.00
N87    N     0.99945   0.12083   0.04853   0.00000  Uiso   1.00
N88    N     0.31275   0.55827   0.74933   0.00000  Uiso   1.00
N89    N     0.67734   0.07520   0.89905   0.00000  Uiso   1.00
N90    N     0.04475   0.18421   0.17562   0.00000  Uiso   1.00
N91    N     0.35806   0.62165   0.87642   0.00000  Uiso   1.00
N92    N     0.72265   0.13858   0.02613   0.00000  Uiso   1.00
C93    C     0.67415   0.74581   0.38781   0.00000  Uiso   1.00
C94    C     0.75303   0.72684   0.46317   0.00000  Uiso   1.00
C95    C     0.84459   0.67560   0.45573   0.00000  Uiso   1.00
C96    C     0.90627   0.66626   0.53244   0.00000  Uiso   1.00
C97    C     0.03317   0.63069   0.63709   0.00000  Uiso   1.00
C98    C     0.66670   0.84741   0.38071   0.00000  Uiso   1.00
C99    C     0.68566   0.89753   0.30394   0.00000  Uiso   1.00
C100   C     0.67465   0.98969   0.31123   0.00000  Uiso   1.00
C101   C     0.66745   0.14129   0.28784   0.00000  Uiso   1.00
C102   C     0.56623   0.71427   0.42198   0.00000  Uiso   1.00
C103   C     0.50069   0.65246   0.37989   0.00000  Uiso   1.00
C104   C     0.40508   0.63253   0.42192   0.00000  Uiso   1.00
C105   C     0.24188   0.57741   0.46260   0.00000  Uiso   1.00
C106   C     0.62087   0.82035   0.53727   0.00000  Uiso   1.00
C107   C     0.72408   0.76733   0.54434   0.00000  Uiso   1.00
C108   C     0.78564   0.75807   0.62108   0.00000  Uiso   1.00
C109   C     0.87727   0.70682   0.61376   0.00000  Uiso   1.00
C110   C     0.63776   0.88790   0.46188   0.00000  Uiso   1.00
C111   C     0.62671   0.98000   0.46929   0.00000  Uiso   1.00
C112   C     0.64566   0.03025   0.39255   0.00000  Uiso   1.00
C113   C     0.53728   0.75475   0.50315   0.00000  Uiso   1.00
C114   C     0.44175   0.73492   0.54525   0.00000  Uiso   1.00
C115   C     0.37609   0.67309   0.50324   0.00000  Uiso   1.00
H116   H     0.69669   0.71430   0.32461   0.00000  Uiso   1.00
H117   H     0.86697   0.64429   0.39289   0.00000  Uiso   1.00
H118   H     0.70805   0.86618   0.24112   0.00000  Uiso   1.00
H119   H     0.52312   0.62114   0.31707   0.00000  Uiso   1.00
H120   H     0.04301   0.58455   0.50439   0.00000  Uiso   1.00
H121   H     0.70789   0.05243   0.18437   0.00000  Uiso   1.00
H122   H     0.31792   0.53572   0.34452   0.00000  Uiso   1.00
H123   H     0.59833   0.85187   0.60047   0.00000  Uiso   1.00
H124   H     0.76322   0.78941   0.68389   0.00000  Uiso   1.00
H125   H     0.60430   0.01131   0.53212   0.00000  Uiso   1.00
H126   H     0.41937   0.76627   0.60807   0.00000  Uiso   1.00
H127   H     0.95881   0.70234   0.74058   0.00000  Uiso   1.00
H128   H     0.62368   0.17022   0.42055   0.00000  Uiso   1.00
H129   H     0.23372   0.65350   0.58070   0.00000  Uiso   1.00
O130   O     0.11117   0.59990   0.67238   0.00000  Uiso   1.00
O131   O     0.67148   0.21373   0.25251   0.00000  Uiso   1.00
O132   O     0.15987   0.53581   0.46263   0.00000  Uiso   1.00
N133   N     0.00055   0.62083   0.54853   0.00000  Uiso   1.00
N134   N     0.68725   0.05827   0.24933   0.00000  Uiso   1.00
N135   N     0.32266   0.57520   0.39905   0.00000  Uiso   1.00
N136   N     0.95525   0.68421   0.67562   0.00000  Uiso   1.00
N137   N     0.64194   0.12165   0.37642   0.00000  Uiso   1.00
N138   N     0.27735   0.63858   0.52613   0.00000  Uiso   1.00
C139   C     0.32585   0.25419   0.38781   0.00000  Uiso   1.00
C140   C     0.24697   0.27316   0.46317   0.00000  Uiso   1.00
C141   C     0.15541   0.32440   0.45573   0.00000  Uiso   1.00
C142   C     0.09373   0.33374   0.53244   0.00000  Uiso   1.00
C143   C     0.96683   0.36931   0.63709   0.00000  Uiso   1.00
C144   C     0.33330   0.15259   0.38071   0.00000  Uiso   1.00
C145   C     0.31434   0.10247   0.30394   0.00000  Uiso   1.00
C146   C     0.32535   0.01031   0.31123   0.00000  Uiso   1.00
C147   C     0.33255   0.85871   0.28784   0.00000  Uiso   1.00
C148   C     0.43377   0.28573   0.42198   0.00000  Uiso   1.00
C149   C     0.49931   0.34754   0.37989   0.00000  Uiso   1.00
C150   C     0.59492   0.36747   0.42192   0.00000  Uiso   1.00
C151   C     0.75812   0.42259   0.46260   0.00000  Uiso   1.00
C152   C     0.37913   0.17965   0.53727   0.00000  Uiso   1.00
C153   C     0.27592   0.23267   0.54434   0.00000  Uiso   1.00
C154   C     0.21436   0.24193   0.62108   0.00000  Uiso   1.00
C155   C     0.12273   0.29318   0.61376   0.00000  Uiso   1.00
C156   C     0.36224   0.11210   0.46188   0.00000  Uiso   1.00
C157   C     0.37329   0.02000   0.46929   0.00000  Uiso   1.00
C158   C     0.35434   0.96975   0.39255   0.00000  Uiso   1.00
C159   C     0.46272   0.24525   0.50315   0.00000  Uiso   1.00
C160   C     0.55825   0.26508   0.54525   0.00000  Uiso   1.00
C161   C     0.62391   0.32691   0.50324   0.00000  Uiso   1.00
H162   H     0.30331   0.28570   0.32461   0.00000  Uiso   1.00
H163   H     0.13303   0.35571   0.39289   0.00000  Uiso   1.00
H164   H     0.29195   0.13382   0.24112   0.00000  Uiso   1.00
H165   H     0.47688   0.37886   0.31707   0.00000  Uiso   1.00
H166   H     0.95699   0.41545   0.50439   0.00000  Uiso   1.00
H167   H     0.29211   0.94757   0.18437   0.00000  Uiso   1.00
H168   H     0.68208   0.46428   0.34452   0.00000  Uiso   1.00
H169   H     0.40167   0.14813   0.60047   0.00000  Uiso   1.00
H170   H     0.23678   0.21059   0.68389   0.00000  Uiso   1.00
H171   H     0.39570   0.98869   0.53212   0.00000  Uiso   1.00
H172   H     0.58063   0.23373   0.60807   0.00000  Uiso   1.00
H173   H     0.04119   0.29766   0.74058   0.00000  Uiso   1.00
H174   H     0.37632   0.82978   0.42055   0.00000  Uiso   1.00
H175   H     0.76628   0.34650   0.58070   0.00000  Uiso   1.00
O176   O     0.88883   0.40010   0.67238   0.00000  Uiso   1.00
O177   O     0.32852   0.78627   0.25251   0.00000  Uiso   1.00
O178   O     0.84013   0.46419   0.46263   0.00000  Uiso   1.00
N179   N     0.99945   0.37917   0.54853   0.00000  Uiso   1.00
N180   N     0.31275   0.94173   0.24933   0.00000  Uiso   1.00
N181   N     0.67734   0.42480   0.39905   0.00000  Uiso   1.00
N182   N     0.04475   0.31579   0.67562   0.00000  Uiso   1.00
N183   N     0.35806   0.87835   0.37642   0.00000  Uiso   1.00
N184   N     0.72265   0.36142   0.52613   0.00000  Uiso   1.00
