data_job_03077
_audit_creation_date              2018-12-19
_audit_creation_method            'Materials Studio'
_symmetry_space_group_name_H-M    'P1'
_symmetry_Int_Tables_number       1
_symmetry_cell_setting            triclinic
loop_
_symmetry_equiv_pos_as_xyz
  x,y,z
_cell_length_a                    23.8200
_cell_length_b                    20.6056
_cell_length_c                    14.4649
_cell_angle_alpha                 90.0000
_cell_angle_beta                  90.0000
_cell_angle_gamma                 90.0000
loop_
_atom_site_label
_atom_site_type_symbol
_atom_site_fract_x
_atom_site_fract_y
_atom_site_fract_z
_atom_site_U_iso_or_equiv
_atom_site_adp_type
_atom_site_occupancy
C1     C     0.47478   0.67707   0.03743   0.00000  Uiso   1.00
C2     C     0.52430   0.63843   0.07530   0.00000  Uiso   1.00
C3     C     0.56386   0.60549   0.02278   0.00000  Uiso   1.00
C4     C     0.60594   0.57304   0.07048   0.00000  Uiso   1.00
C5     C     0.68246   0.51294   0.11457   0.00000  Uiso   1.00
C6     C     0.42245   0.64810   0.08198   0.00000  Uiso   1.00
C7     C     0.37637   0.62330   0.03509   0.00000  Uiso   1.00
C8     C     0.33270   0.59900   0.08842   0.00000  Uiso   1.00
C9     C     0.25107   0.55396   0.14289   0.00000  Uiso   1.00
C10    C     0.48058   0.74532   0.07705   0.00000  Uiso   1.00
C11    C     0.48336   0.80225   0.02600   0.00000  Uiso   1.00
C12    C     0.48863   0.85980   0.07517   0.00000  Uiso   1.00
C13    C     0.49726   0.96570   0.12198   0.00000  Uiso   1.00
C14    C     0.47915   0.67803   0.21552   0.00000  Uiso   1.00
C15    C     0.52667   0.63895   0.17203   0.00000  Uiso   1.00
C16    C     0.56870   0.60655   0.21982   0.00000  Uiso   1.00
C17    C     0.60832   0.57356   0.16739   0.00000  Uiso   1.00
C18    C     0.42482   0.64862   0.17871   0.00000  Uiso   1.00
C19    C     0.38121   0.62436   0.23213   0.00000  Uiso   1.00
C20    C     0.33508   0.59952   0.18532   0.00000  Uiso   1.00
C21    C     0.48296   0.74584   0.17378   0.00000  Uiso   1.00
C22    C     0.48821   0.80331   0.22304   0.00000  Uiso   1.00
C23    C     0.49101   0.86032   0.17208   0.00000  Uiso   1.00
H24    H     0.47292   0.67666   0.96212   0.00000  Uiso   1.00
H25    H     0.56201   0.60509   0.94792   0.00000  Uiso   1.00
H26    H     0.37454   0.62291   0.96023   0.00000  Uiso   1.00
H27    H     0.48152   0.80183   0.95115   0.00000  Uiso   1.00
H28    H     0.66181   0.52595   0.97485   0.00000  Uiso   1.00
H29    H     0.26651   0.56354   0.00079   0.00000  Uiso   1.00
H30    H     0.49211   0.94084   0.98164   0.00000  Uiso   1.00
H31    H     0.48100   0.67843   0.29084   0.00000  Uiso   1.00
H32    H     0.57053   0.60696   0.29468   0.00000  Uiso   1.00
H33    H     0.38306   0.62477   0.30698   0.00000  Uiso   1.00
H34    H     0.49005   0.80370   0.29790   0.00000  Uiso   1.00
H35    H     0.66872   0.52747   0.25629   0.00000  Uiso   1.00
H36    H     0.27343   0.56505   0.28223   0.00000  Uiso   1.00
H37    H     0.49903   0.94235   0.26308   0.00000  Uiso   1.00
O38    O     0.72400   0.47964   0.11217   0.00000  Uiso   1.00
O39    O     0.20539   0.52896   0.14620   0.00000  Uiso   1.00
O40    O     0.50137   0.02397   0.12107   0.00000  Uiso   1.00
N41    N     0.65115   0.53613   0.04056   0.00000  Uiso   1.00
N42    N     0.28158   0.57126   0.06481   0.00000  Uiso   1.00
N43    N     0.49248   0.92400   0.04690   0.00000  Uiso   1.00
N44    N     0.65488   0.53694   0.19200   0.00000  Uiso   1.00
N45    N     0.28531   0.57207   0.21625   0.00000  Uiso   1.00
N46    N     0.49620   0.92482   0.19834   0.00000  Uiso   1.00
C47    C     0.02522   0.32293   0.53743   0.00000  Uiso   1.00
C48    C     0.97570   0.36157   0.57530   0.00000  Uiso   1.00
C49    C     0.93614   0.39451   0.52278   0.00000  Uiso   1.00
C50    C     0.89406   0.42696   0.57048   0.00000  Uiso   1.00
C51    C     0.81754   0.48706   0.61457   0.00000  Uiso   1.00
C52    C     0.07755   0.35190   0.58198   0.00000  Uiso   1.00
C53    C     0.12363   0.37670   0.53509   0.00000  Uiso   1.00
C54    C     0.16730   0.40100   0.58842   0.00000  Uiso   1.00
C55    C     0.24893   0.44604   0.64289   0.00000  Uiso   1.00
C56    C     0.01942   0.25468   0.57705   0.00000  Uiso   1.00
C57    C     0.01664   0.19775   0.52600   0.00000  Uiso   1.00
C58    C     0.01137   0.14020   0.57517   0.00000  Uiso   1.00
C59    C     0.00274   0.03430   0.62198   0.00000  Uiso   1.00
C60    C     0.02085   0.32197   0.71552   0.00000  Uiso   1.00
C61    C     0.97333   0.36105   0.67203   0.00000  Uiso   1.00
C62    C     0.93130   0.39345   0.71982   0.00000  Uiso   1.00
C63    C     0.89168   0.42644   0.66739   0.00000  Uiso   1.00
C64    C     0.07518   0.35138   0.67871   0.00000  Uiso   1.00
C65    C     0.11879   0.37564   0.73213   0.00000  Uiso   1.00
C66    C     0.16492   0.40048   0.68532   0.00000  Uiso   1.00
C67    C     0.01704   0.25416   0.67378   0.00000  Uiso   1.00
C68    C     0.01179   0.19669   0.72304   0.00000  Uiso   1.00
C69    C     0.00899   0.13968   0.67208   0.00000  Uiso   1.00
H70    H     0.02708   0.32334   0.46212   0.00000  Uiso   1.00
H71    H     0.93799   0.39491   0.44792   0.00000  Uiso   1.00
H72    H     0.12546   0.37709   0.46023   0.00000  Uiso   1.00
H73    H     0.01848   0.19817   0.45115   0.00000  Uiso   1.00
H74    H     0.83819   0.47405   0.47485   0.00000  Uiso   1.00
H75    H     0.23349   0.43646   0.50079   0.00000  Uiso   1.00
H76    H     0.00789   0.05916   0.48164   0.00000  Uiso   1.00
H77    H     0.01900   0.32157   0.79084   0.00000  Uiso   1.00
H78    H     0.92947   0.39304   0.79468   0.00000  Uiso   1.00
H79    H     0.11694   0.37523   0.80698   0.00000  Uiso   1.00
H80    H     0.00995   0.19630   0.79790   0.00000  Uiso   1.00
H81    H     0.83128   0.47253   0.75629   0.00000  Uiso   1.00
H82    H     0.22657   0.43495   0.78223   0.00000  Uiso   1.00
H83    H     0.00097   0.05765   0.76308   0.00000  Uiso   1.00
O84    O     0.77600   0.52036   0.61217   0.00000  Uiso   1.00
O85    O     0.29461   0.47104   0.64620   0.00000  Uiso   1.00
O86    O     0.99863   0.97603   0.62107   0.00000  Uiso   1.00
N87    N     0.84885   0.46387   0.54056   0.00000  Uiso   1.00
N88    N     0.21842   0.42874   0.56481   0.00000  Uiso   1.00
N89    N     0.00752   0.07600   0.54690   0.00000  Uiso   1.00
N90    N     0.84512   0.46306   0.69200   0.00000  Uiso   1.00
N91    N     0.21469   0.42793   0.71625   0.00000  Uiso   1.00
N92    N     0.00380   0.07518   0.69834   0.00000  Uiso   1.00
C93    C     0.52522   0.17707   0.46257   0.00000  Uiso   1.00
C94    C     0.47570   0.13843   0.42470   0.00000  Uiso   1.00
C95    C     0.43614   0.10549   0.47722   0.00000  Uiso   1.00
C96    C     0.39406   0.07304   0.42952   0.00000  Uiso   1.00
C97    C     0.31754   0.01294   0.38543   0.00000  Uiso   1.00
C98    C     0.57755   0.14810   0.41802   0.00000  Uiso   1.00
C99    C     0.62363   0.12330   0.46491   0.00000  Uiso   1.00
C100   C     0.66730   0.09900   0.41158   0.00000  Uiso   1.00
C101   C     0.74893   0.05396   0.35711   0.00000  Uiso   1.00
C102   C     0.51942   0.24532   0.42295   0.00000  Uiso   1.00
C103   C     0.51664   0.30225   0.47400   0.00000  Uiso   1.00
C104   C     0.51137   0.35980   0.42483   0.00000  Uiso   1.00
C105   C     0.50274   0.46570   0.37802   0.00000  Uiso   1.00
C106   C     0.52085   0.17803   0.28448   0.00000  Uiso   1.00
C107   C     0.47333   0.13895   0.32797   0.00000  Uiso   1.00
C108   C     0.43130   0.10655   0.28018   0.00000  Uiso   1.00
C109   C     0.39168   0.07356   0.33261   0.00000  Uiso   1.00
C110   C     0.57518   0.14862   0.32129   0.00000  Uiso   1.00
C111   C     0.61879   0.12436   0.26787   0.00000  Uiso   1.00
C112   C     0.66492   0.09952   0.31468   0.00000  Uiso   1.00
C113   C     0.51704   0.24584   0.32622   0.00000  Uiso   1.00
C114   C     0.51179   0.30331   0.27696   0.00000  Uiso   1.00
C115   C     0.50899   0.36032   0.32792   0.00000  Uiso   1.00
H116   H     0.52708   0.17666   0.53788   0.00000  Uiso   1.00
H117   H     0.43799   0.10509   0.55208   0.00000  Uiso   1.00
H118   H     0.62546   0.12291   0.53977   0.00000  Uiso   1.00
H119   H     0.51848   0.30183   0.54885   0.00000  Uiso   1.00
H120   H     0.33819   0.02595   0.52515   0.00000  Uiso   1.00
H121   H     0.73349   0.06354   0.49921   0.00000  Uiso   1.00
H122   H     0.50789   0.44084   0.51836   0.00000  Uiso   1.00
H123   H     0.51900   0.17843   0.20916   0.00000  Uiso   1.00
H124   H     0.42947   0.10696   0.20532   0.00000  Uiso   1.00
H125   H     0.61694   0.12477   0.19302   0.00000  Uiso   1.00
H126   H     0.50995   0.30370   0.20210   0.00000  Uiso   1.00
H127   H     0.33128   0.02747   0.24371   0.00000  Uiso   1.00
H128   H     0.72657   0.06505   0.21777   0.00000  Uiso   1.00
H129   H     0.50097   0.44235   0.23692   0.00000  Uiso   1.00
O130   O     0.27600   0.97964   0.38783   0.00000  Uiso   1.00
O131   O     0.79461   0.02896   0.35380   0.00000  Uiso   1.00
O132   O     0.49863   0.52397   0.37893   0.00000  Uiso   1.00
N133   N     0.34885   0.03613   0.45944   0.00000  Uiso   1.00
N134   N     0.71842   0.07126   0.43519   0.00000  Uiso   1.00
N135   N     0.50752   0.42400   0.45310   0.00000  Uiso   1.00
N136   N     0.34512   0.03694   0.30800   0.00000  Uiso   1.00
N137   N     0.71469   0.07207   0.28375   0.00000  Uiso   1.00
N138   N     0.50380   0.42482   0.30166   0.00000  Uiso   1.00
C139   C     0.97478   0.82293   0.96257   0.00000  Uiso   1.00
C140   C     0.02430   0.86157   0.92470   0.00000  Uiso   1.00
C141   C     0.06386   0.89451   0.97722   0.00000  Uiso   1.00
C142   C     0.10594   0.92696   0.92952   0.00000  Uiso   1.00
C143   C     0.18246   0.98706   0.88543   0.00000  Uiso   1.00
C144   C     0.92245   0.85190   0.91802   0.00000  Uiso   1.00
C145   C     0.87637   0.87670   0.96491   0.00000  Uiso   1.00
C146   C     0.83270   0.90100   0.91158   0.00000  Uiso   1.00
C147   C     0.75107   0.94604   0.85711   0.00000  Uiso   1.00
C148   C     0.98058   0.75468   0.92295   0.00000  Uiso   1.00
C149   C     0.98336   0.69775   0.97400   0.00000  Uiso   1.00
C150   C     0.98863   0.64020   0.92483   0.00000  Uiso   1.00
C151   C     0.99726   0.53430   0.87802   0.00000  Uiso   1.00
C152   C     0.97915   0.82197   0.78448   0.00000  Uiso   1.00
C153   C     0.02667   0.86105   0.82797   0.00000  Uiso   1.00
C154   C     0.06870   0.89345   0.78018   0.00000  Uiso   1.00
C155   C     0.10832   0.92644   0.83261   0.00000  Uiso   1.00
C156   C     0.92482   0.85138   0.82129   0.00000  Uiso   1.00
C157   C     0.88121   0.87564   0.76787   0.00000  Uiso   1.00
C158   C     0.83508   0.90048   0.81468   0.00000  Uiso   1.00
C159   C     0.98296   0.75416   0.82622   0.00000  Uiso   1.00
C160   C     0.98821   0.69669   0.77696   0.00000  Uiso   1.00
C161   C     0.99101   0.63968   0.82792   0.00000  Uiso   1.00
H162   H     0.97292   0.82334   0.03788   0.00000  Uiso   1.00
H163   H     0.06201   0.89491   0.05208   0.00000  Uiso   1.00
H164   H     0.87454   0.87709   0.03977   0.00000  Uiso   1.00
H165   H     0.98152   0.69817   0.04885   0.00000  Uiso   1.00
H166   H     0.16181   0.97405   0.02515   0.00000  Uiso   1.00
H167   H     0.76651   0.93646   0.99921   0.00000  Uiso   1.00
H168   H     0.99211   0.55916   0.01836   0.00000  Uiso   1.00
H169   H     0.98100   0.82157   0.70916   0.00000  Uiso   1.00
H170   H     0.07053   0.89304   0.70532   0.00000  Uiso   1.00
H171   H     0.88306   0.87523   0.69302   0.00000  Uiso   1.00
H172   H     0.99005   0.69630   0.70210   0.00000  Uiso   1.00
H173   H     0.16872   0.97253   0.74371   0.00000  Uiso   1.00
H174   H     0.77343   0.93495   0.71777   0.00000  Uiso   1.00
H175   H     0.99903   0.55765   0.73692   0.00000  Uiso   1.00
O176   O     0.22400   0.02036   0.88783   0.00000  Uiso   1.00
O177   O     0.70539   0.97104   0.85380   0.00000  Uiso   1.00
O178   O     0.00137   0.47603   0.87893   0.00000  Uiso   1.00
N179   N     0.15115   0.96387   0.95944   0.00000  Uiso   1.00
N180   N     0.78158   0.92874   0.93519   0.00000  Uiso   1.00
N181   N     0.99248   0.57600   0.95310   0.00000  Uiso   1.00
N182   N     0.15488   0.96306   0.80800   0.00000  Uiso   1.00
N183   N     0.78531   0.92793   0.78375   0.00000  Uiso   1.00
N184   N     0.99620   0.57518   0.80166   0.00000  Uiso   1.00
C185   C     0.52522   0.32293   0.96257   0.00000  Uiso   1.00
C186   C     0.47570   0.36157   0.92470   0.00000  Uiso   1.00
C187   C     0.43614   0.39451   0.97722   0.00000  Uiso   1.00
C188   C     0.39406   0.42696   0.92952   0.00000  Uiso   1.00
C189   C     0.31754   0.48706   0.88543   0.00000  Uiso   1.00
C190   C     0.57755   0.35190   0.91802   0.00000  Uiso   1.00
C191   C     0.62363   0.37670   0.96491   0.00000  Uiso   1.00
C192   C     0.66730   0.40100   0.91158   0.00000  Uiso   1.00
C193   C     0.74893   0.44604   0.85711   0.00000  Uiso   1.00
C194   C     0.51942   0.25468   0.92295   0.00000  Uiso   1.00
C195   C     0.51664   0.19775   0.97400   0.00000  Uiso   1.00
C196   C     0.51137   0.14020   0.92483   0.00000  Uiso   1.00
C197   C     0.50274   0.03430   0.87802   0.00000  Uiso   1.00
C198   C     0.52085   0.32197   0.78448   0.00000  Uiso   1.00
C199   C     0.47333   0.36105   0.82797   0.00000  Uiso   1.00
C200   C     0.43130   0.39345   0.78018   0.00000  Uiso   1.00
C201   C     0.39168   0.42644   0.83261   0.00000  Uiso   1.00
C202   C     0.57518   0.35138   0.82129   0.00000  Uiso   1.00
C203   C     0.61879   0.37564   0.76787   0.00000  Uiso   1.00
C204   C     0.66492   0.40048   0.81468   0.00000  Uiso   1.00
C205   C     0.51704   0.25416   0.82622   0.00000  Uiso   1.00
C206   C     0.51179   0.19669   0.77696   0.00000  Uiso   1.00
C207   C     0.50899   0.13968   0.82792   0.00000  Uiso   1.00
H208   H     0.52708   0.32334   0.03788   0.00000  Uiso   1.00
H209   H     0.43799   0.39491   0.05208   0.00000  Uiso   1.00
H210   H     0.62546   0.37709   0.03977   0.00000  Uiso   1.00
H211   H     0.51848   0.19817   0.04885   0.00000  Uiso   1.00
H212   H     0.33819   0.47405   0.02515   0.00000  Uiso   1.00
H213   H     0.73349   0.43646   0.99921   0.00000  Uiso   1.00
H214   H     0.50789   0.05916   0.01836   0.00000  Uiso   1.00
H215   H     0.51900   0.32157   0.70916   0.00000  Uiso   1.00
H216   H     0.42947   0.39304   0.70532   0.00000  Uiso   1.00
H217   H     0.61694   0.37523   0.69302   0.00000  Uiso   1.00
H218   H     0.50995   0.19630   0.70210   0.00000  Uiso   1.00
H219   H     0.33128   0.47253   0.74371   0.00000  Uiso   1.00
H220   H     0.72657   0.43495   0.71777   0.00000  Uiso   1.00
H221   H     0.50097   0.05765   0.73692   0.00000  Uiso   1.00
O222   O     0.27600   0.52036   0.88783   0.00000  Uiso   1.00
O223   O     0.79461   0.47104   0.85380   0.00000  Uiso   1.00
O224   O     0.49863   0.97603   0.87893   0.00000  Uiso   1.00
N225   N     0.34885   0.46387   0.95944   0.00000  Uiso   1.00
N226   N     0.71842   0.42874   0.93519   0.00000  Uiso   1.00
N227   N     0.50752   0.07600   0.95310   0.00000  Uiso   1.00
N228   N     0.34512   0.46306   0.80800   0.00000  Uiso   1.00
N229   N     0.71469   0.42793   0.78375   0.00000  Uiso   1.00
N230   N     0.50380   0.07518   0.80166   0.00000  Uiso   1.00
C231   C     0.97478   0.67707   0.46257   0.00000  Uiso   1.00
C232   C     0.02430   0.63843   0.42470   0.00000  Uiso   1.00
C233   C     0.06386   0.60549   0.47722   0.00000  Uiso   1.00
C234   C     0.10594   0.57304   0.42952   0.00000  Uiso   1.00
C235   C     0.18246   0.51294   0.38543   0.00000  Uiso   1.00
C236   C     0.92245   0.64810   0.41802   0.00000  Uiso   1.00
C237   C     0.87637   0.62330   0.46491   0.00000  Uiso   1.00
C238   C     0.83270   0.59900   0.41158   0.00000  Uiso   1.00
C239   C     0.75107   0.55396   0.35711   0.00000  Uiso   1.00
C240   C     0.98058   0.74532   0.42295   0.00000  Uiso   1.00
C241   C     0.98336   0.80225   0.47400   0.00000  Uiso   1.00
C242   C     0.98863   0.85980   0.42483   0.00000  Uiso   1.00
C243   C     0.99726   0.96570   0.37802   0.00000  Uiso   1.00
C244   C     0.97915   0.67803   0.28448   0.00000  Uiso   1.00
C245   C     0.02667   0.63895   0.32797   0.00000  Uiso   1.00
C246   C     0.06870   0.60655   0.28018   0.00000  Uiso   1.00
C247   C     0.10832   0.57356   0.33261   0.00000  Uiso   1.00
C248   C     0.92482   0.64862   0.32129   0.00000  Uiso   1.00
C249   C     0.88121   0.62436   0.26787   0.00000  Uiso   1.00
C250   C     0.83508   0.59952   0.31468   0.00000  Uiso   1.00
C251   C     0.98296   0.74584   0.32622   0.00000  Uiso   1.00
C252   C     0.98821   0.80331   0.27696   0.00000  Uiso   1.00
C253   C     0.99101   0.86032   0.32792   0.00000  Uiso   1.00
H254   H     0.97292   0.67666   0.53788   0.00000  Uiso   1.00
H255   H     0.06201   0.60509   0.55208   0.00000  Uiso   1.00
H256   H     0.87454   0.62291   0.53977   0.00000  Uiso   1.00
H257   H     0.98152   0.80183   0.54885   0.00000  Uiso   1.00
H258   H     0.16181   0.52595   0.52515   0.00000  Uiso   1.00
H259   H     0.76651   0.56354   0.49921   0.00000  Uiso   1.00
H260   H     0.99211   0.94084   0.51836   0.00000  Uiso   1.00
H261   H     0.98100   0.67843   0.20916   0.00000  Uiso   1.00
H262   H     0.07053   0.60696   0.20532   0.00000  Uiso   1.00
H263   H     0.88306   0.62477   0.19302   0.00000  Uiso   1.00
H264   H     0.99005   0.80370   0.20210   0.00000  Uiso   1.00
H265   H     0.16872   0.52747   0.24371   0.00000  Uiso   1.00
H266   H     0.77343   0.56505   0.21777   0.00000  Uiso   1.00
H267   H     0.99903   0.94235   0.23692   0.00000  Uiso   1.00
O268   O     0.22400   0.47964   0.38783   0.00000  Uiso   1.00
O269   O     0.70539   0.52896   0.35380   0.00000  Uiso   1.00
O270   O     0.00137   0.02397   0.37893   0.00000  Uiso   1.00
N271   N     0.15115   0.53613   0.45944   0.00000  Uiso   1.00
N272   N     0.78158   0.57126   0.43519   0.00000  Uiso   1.00
N273   N     0.99248   0.92400   0.45310   0.00000  Uiso   1.00
N274   N     0.15488   0.53694   0.30800   0.00000  Uiso   1.00
N275   N     0.78531   0.57207   0.28375   0.00000  Uiso   1.00
N276   N     0.99620   0.92482   0.30166   0.00000  Uiso   1.00
C277   C     0.47478   0.82293   0.53743   0.00000  Uiso   1.00
C278   C     0.52430   0.86157   0.57530   0.00000  Uiso   1.00
C279   C     0.56386   0.89451   0.52278   0.00000  Uiso   1.00
C280   C     0.60594   0.92696   0.57048   0.00000  Uiso   1.00
C281   C     0.68246   0.98706   0.61457   0.00000  Uiso   1.00
C282   C     0.42245   0.85190   0.58198   0.00000  Uiso   1.00
C283   C     0.37637   0.87670   0.53509   0.00000  Uiso   1.00
C284   C     0.33270   0.90100   0.58842   0.00000  Uiso   1.00
C285   C     0.25107   0.94604   0.64289   0.00000  Uiso   1.00
C286   C     0.48058   0.75468   0.57705   0.00000  Uiso   1.00
C287   C     0.48336   0.69775   0.52600   0.00000  Uiso   1.00
C288   C     0.48863   0.64020   0.57517   0.00000  Uiso   1.00
C289   C     0.49726   0.53430   0.62198   0.00000  Uiso   1.00
C290   C     0.47915   0.82197   0.71552   0.00000  Uiso   1.00
C291   C     0.52667   0.86105   0.67203   0.00000  Uiso   1.00
C292   C     0.56870   0.89345   0.71982   0.00000  Uiso   1.00
C293   C     0.60832   0.92644   0.66739   0.00000  Uiso   1.00
C294   C     0.42482   0.85138   0.67871   0.00000  Uiso   1.00
C295   C     0.38121   0.87564   0.73213   0.00000  Uiso   1.00
C296   C     0.33508   0.90048   0.68532   0.00000  Uiso   1.00
C297   C     0.48296   0.75416   0.67378   0.00000  Uiso   1.00
C298   C     0.48821   0.69669   0.72304   0.00000  Uiso   1.00
C299   C     0.49101   0.63968   0.67208   0.00000  Uiso   1.00
H300   H     0.47292   0.82334   0.46212   0.00000  Uiso   1.00
H301   H     0.56201   0.89491   0.44792   0.00000  Uiso   1.00
H302   H     0.37454   0.87709   0.46023   0.00000  Uiso   1.00
H303   H     0.48152   0.69817   0.45115   0.00000  Uiso   1.00
H304   H     0.66181   0.97405   0.47485   0.00000  Uiso   1.00
H305   H     0.26651   0.93646   0.50079   0.00000  Uiso   1.00
H306   H     0.49211   0.55916   0.48164   0.00000  Uiso   1.00
H307   H     0.48100   0.82157   0.79084   0.00000  Uiso   1.00
H308   H     0.57053   0.89304   0.79468   0.00000  Uiso   1.00
H309   H     0.38306   0.87523   0.80698   0.00000  Uiso   1.00
H310   H     0.49005   0.69630   0.79790   0.00000  Uiso   1.00
H311   H     0.66872   0.97253   0.75629   0.00000  Uiso   1.00
H312   H     0.27343   0.93495   0.78223   0.00000  Uiso   1.00
H313   H     0.49903   0.55765   0.76308   0.00000  Uiso   1.00
O314   O     0.72400   0.02036   0.61217   0.00000  Uiso   1.00
O315   O     0.20539   0.97104   0.64620   0.00000  Uiso   1.00
O316   O     0.50137   0.47603   0.62107   0.00000  Uiso   1.00
N317   N     0.65115   0.96387   0.54056   0.00000  Uiso   1.00
N318   N     0.28158   0.92874   0.56481   0.00000  Uiso   1.00
N319   N     0.49248   0.57600   0.54690   0.00000  Uiso   1.00
N320   N     0.65488   0.96306   0.69200   0.00000  Uiso   1.00
N321   N     0.28531   0.92793   0.71625   0.00000  Uiso   1.00
N322   N     0.49620   0.57518   0.69834   0.00000  Uiso   1.00
C323   C     0.02522   0.17707   0.03743   0.00000  Uiso   1.00
C324   C     0.97570   0.13843   0.07530   0.00000  Uiso   1.00
C325   C     0.93614   0.10549   0.02278   0.00000  Uiso   1.00
C326   C     0.89406   0.07304   0.07048   0.00000  Uiso   1.00
C327   C     0.81754   0.01294   0.11457   0.00000  Uiso   1.00
C328   C     0.07755   0.14810   0.08198   0.00000  Uiso   1.00
C329   C     0.12363   0.12330   0.03509   0.00000  Uiso   1.00
C330   C     0.16730   0.09900   0.08842   0.00000  Uiso   1.00
C331   C     0.24893   0.05396   0.14289   0.00000  Uiso   1.00
C332   C     0.01942   0.24532   0.07705   0.00000  Uiso   1.00
C333   C     0.01664   0.30225   0.02600   0.00000  Uiso   1.00
C334   C     0.01137   0.35980   0.07517   0.00000  Uiso   1.00
C335   C     0.00274   0.46570   0.12198   0.00000  Uiso   1.00
C336   C     0.02085   0.17803   0.21552   0.00000  Uiso   1.00
C337   C     0.97333   0.13895   0.17203   0.00000  Uiso   1.00
C338   C     0.93130   0.10655   0.21982   0.00000  Uiso   1.00
C339   C     0.89168   0.07356   0.16739   0.00000  Uiso   1.00
C340   C     0.07518   0.14862   0.17871   0.00000  Uiso   1.00
C341   C     0.11879   0.12436   0.23213   0.00000  Uiso   1.00
C342   C     0.16492   0.09952   0.18532   0.00000  Uiso   1.00
C343   C     0.01704   0.24584   0.17378   0.00000  Uiso   1.00
C344   C     0.01179   0.30331   0.22304   0.00000  Uiso   1.00
C345   C     0.00899   0.36032   0.17208   0.00000  Uiso   1.00
H346   H     0.02708   0.17666   0.96212   0.00000  Uiso   1.00
H347   H     0.93799   0.10509   0.94792   0.00000  Uiso   1.00
H348   H     0.12546   0.12291   0.96023   0.00000  Uiso   1.00
H349   H     0.01848   0.30183   0.95115   0.00000  Uiso   1.00
H350   H     0.83819   0.02595   0.97485   0.00000  Uiso   1.00
H351   H     0.23349   0.06354   0.00079   0.00000  Uiso   1.00
H352   H     0.00789   0.44084   0.98164   0.00000  Uiso   1.00
H353   H     0.01900   0.17843   0.29084   0.00000  Uiso   1.00
H354   H     0.92947   0.10696   0.29468   0.00000  Uiso   1.00
H355   H     0.11694   0.12477   0.30698   0.00000  Uiso   1.00
H356   H     0.00995   0.30370   0.29790   0.00000  Uiso   1.00
H357   H     0.83128   0.02747   0.25629   0.00000  Uiso   1.00
H358   H     0.22657   0.06505   0.28223   0.00000  Uiso   1.00
H359   H     0.00097   0.44235   0.26308   0.00000  Uiso   1.00
O360   O     0.77600   0.97964   0.11217   0.00000  Uiso   1.00
O361   O     0.29461   0.02896   0.14620   0.00000  Uiso   1.00
O362   O     0.99863   0.52397   0.12107   0.00000  Uiso   1.00
N363   N     0.84885   0.03613   0.04056   0.00000  Uiso   1.00
N364   N     0.21842   0.07126   0.06481   0.00000  Uiso   1.00
N365   N     0.00752   0.42400   0.04690   0.00000  Uiso   1.00
N366   N     0.84512   0.03694   0.19200   0.00000  Uiso   1.00
N367   N     0.21469   0.07207   0.21625   0.00000  Uiso   1.00
N368   N     0.00380   0.42482   0.19834   0.00000  Uiso   1.00
