data_job_06272
_audit_creation_date              2018-12-19
_audit_creation_method            'Materials Studio'
_symmetry_space_group_name_H-M    'P1'
_symmetry_Int_Tables_number       1
_symmetry_cell_setting            triclinic
loop_
_symmetry_equiv_pos_as_xyz
  x,y,z
_cell_length_a                    12.9028
_cell_length_b                    18.0027
_cell_length_c                    18.2534
_cell_angle_alpha                 114.9600
_cell_angle_beta                  75.4413
_cell_angle_gamma                 78.3186
loop_
_atom_site_label
_atom_site_type_symbol
_atom_site_fract_x
_atom_site_fract_y
_atom_site_fract_z
_atom_site_U_iso_or_equiv
_atom_site_adp_type
_atom_site_occupancy
C1     C     0.52935   0.11329   0.63927   0.00000  Uiso   1.00
C2     C     0.48798   0.20403   0.64959   0.00000  Uiso   1.00
C3     C     0.51857   0.22464   0.58396   0.00000  Uiso   1.00
C4     C     0.47150   0.31147   0.60659   0.00000  Uiso   1.00
C5     C     0.41870   0.44266   0.60967   0.00000  Uiso   1.00
C6     C     0.58358   0.12271   0.70644   0.00000  Uiso   1.00
C7     C     0.69455   0.07494   0.68859   0.00000  Uiso   1.00
C8     C     0.72794   0.09332   0.75908   0.00000  Uiso   1.00
C9     C     0.82354   0.09821   0.85042   0.00000  Uiso   1.00
C10    C     0.42194   0.09369   0.66930   0.00000  Uiso   1.00
C11    C     0.39700   0.02150   0.62024   0.00000  Uiso   1.00
C12    C     0.29432   0.01543   0.65947   0.00000  Uiso   1.00
C13    C     0.13894   0.97527   0.69316   0.00000  Uiso   1.00
C14    C     0.39134   0.23084   0.79619   0.00000  Uiso   1.00
C15    C     0.41302   0.26788   0.73483   0.00000  Uiso   1.00
C16    C     0.36588   0.35470   0.75757   0.00000  Uiso   1.00
C17    C     0.39640   0.37544   0.69197   0.00000  Uiso   1.00
C18    C     0.50862   0.18656   0.79167   0.00000  Uiso   1.00
C19    C     0.54185   0.20500   0.86220   0.00000  Uiso   1.00
C20    C     0.65285   0.15728   0.84447   0.00000  Uiso   1.00
C21    C     0.34697   0.15754   0.75454   0.00000  Uiso   1.00
C22    C     0.24431   0.15157   0.79385   0.00000  Uiso   1.00
C23    C     0.21922   0.07940   0.74486   0.00000  Uiso   1.00
H24    H     0.58772   0.06357   0.57291   0.00000  Uiso   1.00
H25    H     0.57660   0.17521   0.51801   0.00000  Uiso   1.00
H26    H     0.75253   0.02553   0.62263   0.00000  Uiso   1.00
H27    H     0.45503   0.97211   0.55429   0.00000  Uiso   1.00
H28    H     0.53124   0.32714   0.49472   0.00000  Uiso   1.00
H29    H     0.90220   0.01151   0.71533   0.00000  Uiso   1.00
H30    H     0.27487   0.89885   0.57122   0.00000  Uiso   1.00
H31    H     0.33298   0.28055   0.86254   0.00000  Uiso   1.00
H32    H     0.30787   0.40410   0.82353   0.00000  Uiso   1.00
H33    H     0.48382   0.25442   0.92815   0.00000  Uiso   1.00
H34    H     0.18632   0.20099   0.85981   0.00000  Uiso   1.00
H35    H     0.31314   0.51292   0.74270   0.00000  Uiso   1.00
H36    H     0.68411   0.19728   0.96331   0.00000  Uiso   1.00
H37    H     0.05677   0.08463   0.81920   0.00000  Uiso   1.00
O38    O     0.41030   0.49739   0.58782   0.00000  Uiso   1.00
O39    O     0.89698   0.08328   0.87725   0.00000  Uiso   1.00
O40    O     0.07394   0.93548   0.68818   0.00000  Uiso   1.00
N41    N     0.48334   0.35390   0.55843   0.00000  Uiso   1.00
N42    N     0.83017   0.05882   0.76469   0.00000  Uiso   1.00
N43    N     0.24368   0.95348   0.62997   0.00000  Uiso   1.00
N44    N     0.36598   0.45387   0.69187   0.00000  Uiso   1.00
N45    N     0.71281   0.15878   0.89812   0.00000  Uiso   1.00
N46    N     0.12633   0.05344   0.76340   0.00000  Uiso   1.00
C47    C     0.17224   0.34889   0.48465   0.00000  Uiso   1.00
C48    C     0.13829   0.33826   0.56496   0.00000  Uiso   1.00
C49    C     0.10277   0.40420   0.65088   0.00000  Uiso   1.00
C50    C     0.07552   0.38121   0.71504   0.00000  Uiso   1.00
C51    C     0.02164   0.37776   0.84295   0.00000  Uiso   1.00
C52    C     0.29309   0.28296   0.42592   0.00000  Uiso   1.00
C53    C     0.38771   0.30241   0.39492   0.00000  Uiso   1.00
C54    C     0.49076   0.23287   0.34204   0.00000  Uiso   1.00
C55    C     0.67718   0.14356   0.25403   0.00000  Uiso   1.00
C56    C     0.09547   0.31712   0.43645   0.00000  Uiso   1.00
C57    C     0.02396   0.36526   0.41428   0.00000  Uiso   1.00
C58    C     0.96065   0.32446   0.37024   0.00000  Uiso   1.00
C59    C     0.84024   0.28818   0.29858   0.00000  Uiso   1.00
C60    C     0.18699   0.19081   0.44581   0.00000  Uiso   1.00
C61    C     0.14631   0.25240   0.54386   0.00000  Uiso   1.00
C62    C     0.11910   0.22931   0.60791   0.00000  Uiso   1.00
C63    C     0.08354   0.29520   0.69391   0.00000  Uiso   1.00
C64    C     0.30110   0.19711   0.40482   0.00000  Uiso   1.00
C65    C     0.40403   0.12752   0.35196   0.00000  Uiso   1.00
C66    C     0.49879   0.14685   0.32090   0.00000  Uiso   1.00
C67    C     0.10348   0.23125   0.41535   0.00000  Uiso   1.00
C68    C     0.04028   0.19037   0.37133   0.00000  Uiso   1.00
C69    C     0.96868   0.23845   0.34911   0.00000  Uiso   1.00
H70    H     0.16601   0.41573   0.50106   0.00000  Uiso   1.00
H71    H     0.09659   0.47064   0.66717   0.00000  Uiso   1.00
H72    H     0.38148   0.36886   0.41125   0.00000  Uiso   1.00
H73    H     0.01778   0.43170   0.43062   0.00000  Uiso   1.00
H74    H     0.02321   0.49363   0.84203   0.00000  Uiso   1.00
H75    H     0.62390   0.27903   0.30239   0.00000  Uiso   1.00
H76    H     0.85697   0.41155   0.34322   0.00000  Uiso   1.00
H77    H     0.19324   0.12396   0.42939   0.00000  Uiso   1.00
H78    H     0.12530   0.16286   0.59157   0.00000  Uiso   1.00
H79    H     0.41020   0.06108   0.33565   0.00000  Uiso   1.00
H80    H     0.04650   0.12393   0.35501   0.00000  Uiso   1.00
H81    H     0.04652   0.24383   0.78067   0.00000  Uiso   1.00
H82    H     0.64721   0.02922   0.24102   0.00000  Uiso   1.00
H83    H     0.88028   0.16174   0.28185   0.00000  Uiso   1.00
O84    O     0.98972   0.39957   0.91933   0.00000  Uiso   1.00
O85    O     0.77780   0.11802   0.21133   0.00000  Uiso   1.00
O86    O     0.77160   0.29188   0.26490   0.00000  Uiso   1.00
N87    N     0.03799   0.42951   0.80534   0.00000  Uiso   1.00
N88    N     0.59961   0.22887   0.30081   0.00000  Uiso   1.00
N89    N     0.88261   0.35275   0.33896   0.00000  Uiso   1.00
N90    N     0.05053   0.29509   0.77232   0.00000  Uiso   1.00
N91    N     0.61215   0.09445   0.26779   0.00000  Uiso   1.00
N92    N     0.89516   0.21834   0.30594   0.00000  Uiso   1.00
C93    C     0.66141   0.50448   0.87310   0.00000  Uiso   1.00
C94    C     0.70788   0.42392   0.78242   0.00000  Uiso   1.00
C95    C     0.75593   0.33804   0.76219   0.00000  Uiso   1.00
C96    C     0.79340   0.27362   0.67535   0.00000  Uiso   1.00
C97    C     0.86717   0.14537   0.54432   0.00000  Uiso   1.00
C98    C     0.72574   0.56472   0.86494   0.00000  Uiso   1.00
C99    C     0.78878   0.59723   0.91411   0.00000  Uiso   1.00
C100   C     0.84125   0.65135   0.89675   0.00000  Uiso   1.00
C101   C     0.94266   0.74174   0.89388   0.00000  Uiso   1.00
C102   C     0.53767   0.55106   0.89088   0.00000  Uiso   1.00
C103   C     0.44257   0.57211   0.96187   0.00000  Uiso   1.00
C104   C     0.33671   0.61473   0.96635   0.00000  Uiso   1.00
C105   C     0.14612   0.68391   0.00375   0.00000  Uiso   1.00
C106   C     0.64249   0.54279   0.75484   0.00000  Uiso   1.00
C107   C     0.69761   0.44473   0.71819   0.00000  Uiso   1.00
C108   C     0.73501   0.38042   0.63135   0.00000  Uiso   1.00
C109   C     0.78310   0.29446   0.61100   0.00000  Uiso   1.00
C110   C     0.71546   0.58552   0.80071   0.00000  Uiso   1.00
C111   C     0.76785   0.63961   0.78328   0.00000  Uiso   1.00
C112   C     0.83096   0.67219   0.83240   0.00000  Uiso   1.00
C113   C     0.52739   0.57186   0.82665   0.00000  Uiso   1.00
C114   C     0.42165   0.61448   0.83103   0.00000  Uiso   1.00
C115   C     0.32641   0.63558   0.90200   0.00000  Uiso   1.00
H116   H     0.66942   0.48829   0.92310   0.00000  Uiso   1.00
H117   H     0.76388   0.32197   0.81192   0.00000  Uiso   1.00
H118   H     0.79670   0.58113   0.96382   0.00000  Uiso   1.00
H119   H     0.45056   0.55599   0.01156   0.00000  Uiso   1.00
H120   H     0.86412   0.14676   0.66032   0.00000  Uiso   1.00
H121   H     0.93330   0.69322   0.98063   0.00000  Uiso   1.00
H122   H     0.20338   0.64023   0.08131   0.00000  Uiso   1.00
H123   H     0.63450   0.55898   0.70483   0.00000  Uiso   1.00
H124   H     0.72704   0.39654   0.58166   0.00000  Uiso   1.00
H125   H     0.75987   0.65570   0.73357   0.00000  Uiso   1.00
H126   H     0.41373   0.63057   0.78131   0.00000  Uiso   1.00
H127   H     0.83423   0.20728   0.47343   0.00000  Uiso   1.00
H128   H     0.90340   0.75375   0.79375   0.00000  Uiso   1.00
H129   H     0.17349   0.70075   0.89442   0.00000  Uiso   1.00
O130   O     0.91072   0.06888   0.48979   0.00000  Uiso   1.00
O131   O     0.00146   0.78584   0.91004   0.00000  Uiso   1.00
O132   O     0.04383   0.71631   0.04212   0.00000  Uiso   1.00
N133   N     0.84436   0.18329   0.63324   0.00000  Uiso   1.00
N134   N     0.90905   0.69419   0.93271   0.00000  Uiso   1.00
N135   N     0.22665   0.64467   0.02684   0.00000  Uiso   1.00
N136   N     0.82828   0.21586   0.53268   0.00000  Uiso   1.00
N137   N     0.89297   0.72676   0.83214   0.00000  Uiso   1.00
N138   N     0.21056   0.67724   0.92628   0.00000  Uiso   1.00
C139   C     0.47065   0.88671   0.36073   0.00000  Uiso   1.00
C140   C     0.51202   0.79597   0.35041   0.00000  Uiso   1.00
C141   C     0.48143   0.77536   0.41604   0.00000  Uiso   1.00
C142   C     0.52850   0.68853   0.39341   0.00000  Uiso   1.00
C143   C     0.58130   0.55734   0.39033   0.00000  Uiso   1.00
C144   C     0.41642   0.87729   0.29356   0.00000  Uiso   1.00
C145   C     0.30545   0.92506   0.31141   0.00000  Uiso   1.00
C146   C     0.27206   0.90668   0.24092   0.00000  Uiso   1.00
C147   C     0.17646   0.90179   0.14958   0.00000  Uiso   1.00
C148   C     0.57806   0.90631   0.33070   0.00000  Uiso   1.00
C149   C     0.60300   0.97850   0.37976   0.00000  Uiso   1.00
C150   C     0.70568   0.98457   0.34053   0.00000  Uiso   1.00
C151   C     0.86106   0.02473   0.30684   0.00000  Uiso   1.00
C152   C     0.60866   0.76916   0.20381   0.00000  Uiso   1.00
C153   C     0.58698   0.73212   0.26517   0.00000  Uiso   1.00
C154   C     0.63412   0.64530   0.24243   0.00000  Uiso   1.00
C155   C     0.60360   0.62456   0.30803   0.00000  Uiso   1.00
C156   C     0.49138   0.81344   0.20833   0.00000  Uiso   1.00
C157   C     0.45815   0.79500   0.13780   0.00000  Uiso   1.00
C158   C     0.34715   0.84272   0.15553   0.00000  Uiso   1.00
C159   C     0.65303   0.84246   0.24546   0.00000  Uiso   1.00
C160   C     0.75569   0.84843   0.20615   0.00000  Uiso   1.00
C161   C     0.78078   0.92060   0.25514   0.00000  Uiso   1.00
H162   H     0.41228   0.93643   0.42708   0.00000  Uiso   1.00
H163   H     0.42340   0.82479   0.48199   0.00000  Uiso   1.00
H164   H     0.24747   0.97447   0.37737   0.00000  Uiso   1.00
H165   H     0.54497   0.02789   0.44571   0.00000  Uiso   1.00
H166   H     0.46876   0.67286   0.50528   0.00000  Uiso   1.00
H167   H     0.09780   0.98849   0.28467   0.00000  Uiso   1.00
H168   H     0.72513   0.10115   0.42878   0.00000  Uiso   1.00
H169   H     0.66702   0.71945   0.13746   0.00000  Uiso   1.00
H170   H     0.69213   0.59590   0.17647   0.00000  Uiso   1.00
H171   H     0.51618   0.74558   0.07185   0.00000  Uiso   1.00
H172   H     0.81368   0.79901   0.14019   0.00000  Uiso   1.00
H173   H     0.68686   0.48708   0.25730   0.00000  Uiso   1.00
H174   H     0.31589   0.80272   0.03669   0.00000  Uiso   1.00
H175   H     0.94323   0.91537   0.18080   0.00000  Uiso   1.00
O176   O     0.58970   0.50261   0.41218   0.00000  Uiso   1.00
O177   O     0.10302   0.91672   0.12275   0.00000  Uiso   1.00
O178   O     0.92606   0.06452   0.31182   0.00000  Uiso   1.00
N179   N     0.51666   0.64610   0.44157   0.00000  Uiso   1.00
N180   N     0.16983   0.94118   0.23531   0.00000  Uiso   1.00
N181   N     0.75632   0.04652   0.37003   0.00000  Uiso   1.00
N182   N     0.63402   0.54613   0.30813   0.00000  Uiso   1.00
N183   N     0.28719   0.84122   0.10188   0.00000  Uiso   1.00
N184   N     0.87367   0.94656   0.23660   0.00000  Uiso   1.00
C185   C     0.82776   0.65111   0.51535   0.00000  Uiso   1.00
C186   C     0.86171   0.66174   0.43504   0.00000  Uiso   1.00
C187   C     0.89723   0.59580   0.34912   0.00000  Uiso   1.00
C188   C     0.92448   0.61879   0.28496   0.00000  Uiso   1.00
C189   C     0.97836   0.62224   0.15705   0.00000  Uiso   1.00
C190   C     0.70692   0.71703   0.57408   0.00000  Uiso   1.00
C191   C     0.61229   0.69759   0.60508   0.00000  Uiso   1.00
C192   C     0.50924   0.76713   0.65796   0.00000  Uiso   1.00
C193   C     0.32282   0.85644   0.74597   0.00000  Uiso   1.00
C194   C     0.90453   0.68288   0.56355   0.00000  Uiso   1.00
C195   C     0.97604   0.63474   0.58572   0.00000  Uiso   1.00
C196   C     0.03935   0.67554   0.62976   0.00000  Uiso   1.00
C197   C     0.15976   0.71182   0.70142   0.00000  Uiso   1.00
C198   C     0.81301   0.80919   0.55419   0.00000  Uiso   1.00
C199   C     0.85369   0.74760   0.45614   0.00000  Uiso   1.00
C200   C     0.88090   0.77069   0.39209   0.00000  Uiso   1.00
C201   C     0.91646   0.70480   0.30609   0.00000  Uiso   1.00
C202   C     0.69890   0.80289   0.59518   0.00000  Uiso   1.00
C203   C     0.59597   0.87248   0.64804   0.00000  Uiso   1.00
C204   C     0.50121   0.85315   0.67910   0.00000  Uiso   1.00
C205   C     0.89652   0.76875   0.58465   0.00000  Uiso   1.00
C206   C     0.95972   0.80963   0.62867   0.00000  Uiso   1.00
C207   C     0.03132   0.76155   0.65089   0.00000  Uiso   1.00
H208   H     0.83399   0.58427   0.49894   0.00000  Uiso   1.00
H209   H     0.90341   0.52936   0.33283   0.00000  Uiso   1.00
H210   H     0.61852   0.63114   0.58875   0.00000  Uiso   1.00
H211   H     0.98222   0.56830   0.56938   0.00000  Uiso   1.00
H212   H     0.97679   0.50637   0.15797   0.00000  Uiso   1.00
H213   H     0.37610   0.72097   0.69761   0.00000  Uiso   1.00
H214   H     0.14303   0.58845   0.65678   0.00000  Uiso   1.00
H215   H     0.80676   0.87604   0.57061   0.00000  Uiso   1.00
H216   H     0.87470   0.83714   0.40843   0.00000  Uiso   1.00
H217   H     0.58980   0.93892   0.66435   0.00000  Uiso   1.00
H218   H     0.95350   0.87607   0.64499   0.00000  Uiso   1.00
H219   H     0.95348   0.75617   0.21933   0.00000  Uiso   1.00
H220   H     0.35279   0.97078   0.75898   0.00000  Uiso   1.00
H221   H     0.11972   0.83826   0.71815   0.00000  Uiso   1.00
O222   O     0.01028   0.60043   0.08067   0.00000  Uiso   1.00
O223   O     0.22220   0.88198   0.78867   0.00000  Uiso   1.00
O224   O     0.22840   0.70812   0.73510   0.00000  Uiso   1.00
N225   N     0.96201   0.57049   0.19466   0.00000  Uiso   1.00
N226   N     0.40039   0.77113   0.69919   0.00000  Uiso   1.00
N227   N     0.11739   0.64725   0.66104   0.00000  Uiso   1.00
N228   N     0.94947   0.70491   0.22768   0.00000  Uiso   1.00
N229   N     0.38785   0.90555   0.73221   0.00000  Uiso   1.00
N230   N     0.10484   0.78166   0.69406   0.00000  Uiso   1.00
C231   C     0.33859   0.49552   0.12690   0.00000  Uiso   1.00
C232   C     0.29211   0.57608   0.21758   0.00000  Uiso   1.00
C233   C     0.24407   0.66196   0.23781   0.00000  Uiso   1.00
C234   C     0.20660   0.72638   0.32465   0.00000  Uiso   1.00
C235   C     0.13283   0.85463   0.45568   0.00000  Uiso   1.00
C236   C     0.27427   0.43528   0.13506   0.00000  Uiso   1.00
C237   C     0.21122   0.40277   0.08588   0.00000  Uiso   1.00
C238   C     0.15875   0.34865   0.10325   0.00000  Uiso   1.00
C239   C     0.05734   0.25826   0.10612   0.00000  Uiso   1.00
C240   C     0.46233   0.44894   0.10912   0.00000  Uiso   1.00
C241   C     0.55743   0.42789   0.03813   0.00000  Uiso   1.00
C242   C     0.66329   0.38527   0.03365   0.00000  Uiso   1.00
C243   C     0.85388   0.31609   0.99625   0.00000  Uiso   1.00
C244   C     0.35751   0.45721   0.24516   0.00000  Uiso   1.00
C245   C     0.30239   0.55527   0.28181   0.00000  Uiso   1.00
C246   C     0.26499   0.61958   0.36865   0.00000  Uiso   1.00
C247   C     0.21690   0.70554   0.38900   0.00000  Uiso   1.00
C248   C     0.28454   0.41447   0.19929   0.00000  Uiso   1.00
C249   C     0.23215   0.36039   0.21672   0.00000  Uiso   1.00
C250   C     0.16904   0.32781   0.16760   0.00000  Uiso   1.00
C251   C     0.47261   0.42814   0.17335   0.00000  Uiso   1.00
C252   C     0.57835   0.38552   0.16897   0.00000  Uiso   1.00
C253   C     0.67359   0.36442   0.09800   0.00000  Uiso   1.00
H254   H     0.33058   0.51171   0.07689   0.00000  Uiso   1.00
H255   H     0.23612   0.67803   0.18808   0.00000  Uiso   1.00
H256   H     0.20330   0.41887   0.03618   0.00000  Uiso   1.00
H257   H     0.54944   0.44401   0.98844   0.00000  Uiso   1.00
H258   H     0.13588   0.85324   0.33968   0.00000  Uiso   1.00
H259   H     0.06670   0.30678   0.01937   0.00000  Uiso   1.00
H260   H     0.79662   0.35977   0.91869   0.00000  Uiso   1.00
H261   H     0.36550   0.44101   0.29517   0.00000  Uiso   1.00
H262   H     0.27296   0.60346   0.41834   0.00000  Uiso   1.00
H263   H     0.24013   0.34430   0.26643   0.00000  Uiso   1.00
H264   H     0.58627   0.36943   0.21869   0.00000  Uiso   1.00
H265   H     0.16577   0.79272   0.52657   0.00000  Uiso   1.00
H266   H     0.09660   0.24625   0.20625   0.00000  Uiso   1.00
H267   H     0.82651   0.29925   0.10558   0.00000  Uiso   1.00
O268   O     0.08928   0.93112   0.51021   0.00000  Uiso   1.00
O269   O     0.99854   0.21416   0.08996   0.00000  Uiso   1.00
O270   O     0.95617   0.28369   0.95788   0.00000  Uiso   1.00
N271   N     0.15564   0.81671   0.36676   0.00000  Uiso   1.00
N272   N     0.09095   0.30581   0.06729   0.00000  Uiso   1.00
N273   N     0.77335   0.35533   0.97316   0.00000  Uiso   1.00
N274   N     0.17172   0.78414   0.46732   0.00000  Uiso   1.00
N275   N     0.10703   0.27324   0.16786   0.00000  Uiso   1.00
N276   N     0.78944   0.32276   0.07372   0.00000  Uiso   1.00
