data_job_02646
_audit_creation_date              2018-12-19
_audit_creation_method            'Materials Studio'
_symmetry_space_group_name_H-M    'P1'
_symmetry_Int_Tables_number       1
_symmetry_cell_setting            triclinic
loop_
_symmetry_equiv_pos_as_xyz
  x,y,z
_cell_length_a                    22.3316
_cell_length_b                    23.6275
_cell_length_c                    10.0924
_cell_angle_alpha                 90.0000
_cell_angle_beta                  90.0000
_cell_angle_gamma                 90.0000
loop_
_atom_site_label
_atom_site_type_symbol
_atom_site_fract_x
_atom_site_fract_y
_atom_site_fract_z
_atom_site_U_iso_or_equiv
_atom_site_adp_type
_atom_site_occupancy
C1     C     0.15665   0.61304   0.16467   0.00000  Uiso   1.00
C2     C     0.10386   0.61249   0.06885   0.00000  Uiso   1.00
C3     C     0.10729   0.62011   0.93272   0.00000  Uiso   1.00
C4     C     0.05388   0.61814   0.86246   0.00000  Uiso   1.00
C5     C     0.98024   0.61872   0.70399   0.00000  Uiso   1.00
C6     C     0.14235   0.65832   0.26761   0.00000  Uiso   1.00
C7     C     0.17816   0.70446   0.29860   0.00000  Uiso   1.00
C8     C     0.15716   0.74106   0.39568   0.00000  Uiso   1.00
C9     C     0.14331   0.81276   0.54586   0.00000  Uiso   1.00
C10    C     0.15455   0.55664   0.23795   0.00000  Uiso   1.00
C11    C     0.20062   0.51730   0.24405   0.00000  Uiso   1.00
C12    C     0.18989   0.46830   0.31619   0.00000  Uiso   1.00
C13    C     0.19498   0.38214   0.42031   0.00000  Uiso   1.00
C14    C     0.05569   0.59598   0.28198   0.00000  Uiso   1.00
C15    C     0.04902   0.60322   0.13257   0.00000  Uiso   1.00
C16    C     0.99559   0.60124   0.06250   0.00000  Uiso   1.00
C17    C     0.99894   0.60886   0.92629   0.00000  Uiso   1.00
C18    C     0.08752   0.64905   0.33133   0.00000  Uiso   1.00
C19    C     0.06646   0.68559   0.42839   0.00000  Uiso   1.00
C20    C     0.10222   0.73178   0.45952   0.00000  Uiso   1.00
C21    C     0.09971   0.54737   0.30167   0.00000  Uiso   1.00
C22    C     0.08891   0.49843   0.37383   0.00000  Uiso   1.00
C23    C     0.13495   0.45902   0.38002   0.00000  Uiso   1.00
H24    H     0.19934   0.62026   0.11507   0.00000  Uiso   1.00
H25    H     0.14974   0.62729   0.88344   0.00000  Uiso   1.00
H26    H     0.22060   0.71162   0.24929   0.00000  Uiso   1.00
H27    H     0.24305   0.52449   0.19473   0.00000  Uiso   1.00
H28    H     0.07055   0.63102   0.65475   0.00000  Uiso   1.00
H29    H     0.21997   0.80882   0.42618   0.00000  Uiso   1.00
H30    H     0.26732   0.41422   0.31113   0.00000  Uiso   1.00
H31    H     0.01299   0.58877   0.33159   0.00000  Uiso   1.00
H32    H     0.95315   0.59407   0.11184   0.00000  Uiso   1.00
H33    H     0.02402   0.67840   0.47768   0.00000  Uiso   1.00
H34    H     0.04647   0.49127   0.42312   0.00000  Uiso   1.00
H35    H     0.91100   0.60405   0.84012   0.00000  Uiso   1.00
H36    H     0.06043   0.78186   0.61156   0.00000  Uiso   1.00
H37    H     0.10777   0.38726   0.49651   0.00000  Uiso   1.00
O38    O     0.95477   0.62161   0.59898   0.00000  Uiso   1.00
O39    O     0.15082   0.85488   0.61108   0.00000  Uiso   1.00
O40    O     0.21294   0.33716   0.46013   0.00000  Uiso   1.00
N41    N     0.04121   0.62393   0.72853   0.00000  Uiso   1.00
N42    N     0.18091   0.79018   0.44976   0.00000  Uiso   1.00
N43    N     0.22518   0.42126   0.34223   0.00000  Uiso   1.00
N44    N     0.95536   0.60942   0.82828   0.00000  Uiso   1.00
N45    N     0.09506   0.77567   0.54950   0.00000  Uiso   1.00
N46    N     0.13933   0.40675   0.44198   0.00000  Uiso   1.00
C47    C     0.15665   0.11304   0.66467   0.00000  Uiso   1.00
C48    C     0.10386   0.11249   0.56885   0.00000  Uiso   1.00
C49    C     0.10729   0.12011   0.43272   0.00000  Uiso   1.00
C50    C     0.05388   0.11814   0.36246   0.00000  Uiso   1.00
C51    C     0.98024   0.11872   0.20399   0.00000  Uiso   1.00
C52    C     0.14235   0.15832   0.76761   0.00000  Uiso   1.00
C53    C     0.17816   0.20446   0.79860   0.00000  Uiso   1.00
C54    C     0.15716   0.24106   0.89568   0.00000  Uiso   1.00
C55    C     0.14331   0.31276   0.04586   0.00000  Uiso   1.00
C56    C     0.15455   0.05664   0.73795   0.00000  Uiso   1.00
C57    C     0.20062   0.01730   0.74405   0.00000  Uiso   1.00
C58    C     0.18989   0.96830   0.81619   0.00000  Uiso   1.00
C59    C     0.19498   0.88214   0.92031   0.00000  Uiso   1.00
C60    C     0.05569   0.09598   0.78198   0.00000  Uiso   1.00
C61    C     0.04902   0.10322   0.63257   0.00000  Uiso   1.00
C62    C     0.99559   0.10124   0.56250   0.00000  Uiso   1.00
C63    C     0.99894   0.10886   0.42629   0.00000  Uiso   1.00
C64    C     0.08752   0.14905   0.83133   0.00000  Uiso   1.00
C65    C     0.06646   0.18559   0.92839   0.00000  Uiso   1.00
C66    C     0.10222   0.23178   0.95952   0.00000  Uiso   1.00
C67    C     0.09971   0.04737   0.80167   0.00000  Uiso   1.00
C68    C     0.08891   0.99843   0.87383   0.00000  Uiso   1.00
C69    C     0.13495   0.95902   0.88002   0.00000  Uiso   1.00
H70    H     0.19934   0.12026   0.61507   0.00000  Uiso   1.00
H71    H     0.14974   0.12729   0.38344   0.00000  Uiso   1.00
H72    H     0.22060   0.21162   0.74929   0.00000  Uiso   1.00
H73    H     0.24305   0.02449   0.69473   0.00000  Uiso   1.00
H74    H     0.07055   0.13102   0.15475   0.00000  Uiso   1.00
H75    H     0.21997   0.30882   0.92618   0.00000  Uiso   1.00
H76    H     0.26732   0.91422   0.81113   0.00000  Uiso   1.00
H77    H     0.01299   0.08877   0.83159   0.00000  Uiso   1.00
H78    H     0.95315   0.09407   0.61184   0.00000  Uiso   1.00
H79    H     0.02402   0.17840   0.97768   0.00000  Uiso   1.00
H80    H     0.04647   0.99127   0.92312   0.00000  Uiso   1.00
H81    H     0.91100   0.10405   0.34012   0.00000  Uiso   1.00
H82    H     0.06043   0.28186   0.11156   0.00000  Uiso   1.00
H83    H     0.10777   0.88726   0.99651   0.00000  Uiso   1.00
O84    O     0.95477   0.12161   0.09898   0.00000  Uiso   1.00
O85    O     0.15082   0.35488   0.11108   0.00000  Uiso   1.00
O86    O     0.21294   0.83716   0.96013   0.00000  Uiso   1.00
N87    N     0.04121   0.12393   0.22853   0.00000  Uiso   1.00
N88    N     0.18091   0.29018   0.94976   0.00000  Uiso   1.00
N89    N     0.22518   0.92126   0.84223   0.00000  Uiso   1.00
N90    N     0.95536   0.10942   0.32828   0.00000  Uiso   1.00
N91    N     0.09506   0.27567   0.04950   0.00000  Uiso   1.00
N92    N     0.13933   0.90675   0.94198   0.00000  Uiso   1.00
C93    C     0.84335   0.38696   0.16467   0.00000  Uiso   1.00
C94    C     0.89614   0.38751   0.06885   0.00000  Uiso   1.00
C95    C     0.89271   0.37989   0.93272   0.00000  Uiso   1.00
C96    C     0.94612   0.38186   0.86246   0.00000  Uiso   1.00
C97    C     0.01976   0.38128   0.70399   0.00000  Uiso   1.00
C98    C     0.85765   0.34168   0.26761   0.00000  Uiso   1.00
C99    C     0.82184   0.29554   0.29860   0.00000  Uiso   1.00
C100   C     0.84284   0.25894   0.39568   0.00000  Uiso   1.00
C101   C     0.85669   0.18724   0.54586   0.00000  Uiso   1.00
C102   C     0.84545   0.44336   0.23795   0.00000  Uiso   1.00
C103   C     0.79938   0.48270   0.24405   0.00000  Uiso   1.00
C104   C     0.81011   0.53170   0.31619   0.00000  Uiso   1.00
C105   C     0.80502   0.61786   0.42031   0.00000  Uiso   1.00
C106   C     0.94431   0.40402   0.28198   0.00000  Uiso   1.00
C107   C     0.95098   0.39678   0.13257   0.00000  Uiso   1.00
C108   C     0.00441   0.39876   0.06250   0.00000  Uiso   1.00
C109   C     0.00106   0.39114   0.92629   0.00000  Uiso   1.00
C110   C     0.91248   0.35095   0.33133   0.00000  Uiso   1.00
C111   C     0.93354   0.31441   0.42839   0.00000  Uiso   1.00
C112   C     0.89778   0.26822   0.45952   0.00000  Uiso   1.00
C113   C     0.90029   0.45263   0.30167   0.00000  Uiso   1.00
C114   C     0.91109   0.50157   0.37383   0.00000  Uiso   1.00
C115   C     0.86505   0.54098   0.38002   0.00000  Uiso   1.00
H116   H     0.80066   0.37974   0.11507   0.00000  Uiso   1.00
H117   H     0.85026   0.37271   0.88344   0.00000  Uiso   1.00
H118   H     0.77940   0.28838   0.24929   0.00000  Uiso   1.00
H119   H     0.75695   0.47551   0.19473   0.00000  Uiso   1.00
H120   H     0.92945   0.36898   0.65475   0.00000  Uiso   1.00
H121   H     0.78003   0.19118   0.42618   0.00000  Uiso   1.00
H122   H     0.73268   0.58578   0.31113   0.00000  Uiso   1.00
H123   H     0.98701   0.41123   0.33159   0.00000  Uiso   1.00
H124   H     0.04685   0.40593   0.11184   0.00000  Uiso   1.00
H125   H     0.97598   0.32160   0.47768   0.00000  Uiso   1.00
H126   H     0.95353   0.50873   0.42312   0.00000  Uiso   1.00
H127   H     0.08900   0.39595   0.84012   0.00000  Uiso   1.00
H128   H     0.93957   0.21814   0.61156   0.00000  Uiso   1.00
H129   H     0.89223   0.61274   0.49651   0.00000  Uiso   1.00
O130   O     0.04523   0.37839   0.59898   0.00000  Uiso   1.00
O131   O     0.84918   0.14512   0.61108   0.00000  Uiso   1.00
O132   O     0.78706   0.66284   0.46013   0.00000  Uiso   1.00
N133   N     0.95879   0.37607   0.72853   0.00000  Uiso   1.00
N134   N     0.81909   0.20982   0.44976   0.00000  Uiso   1.00
N135   N     0.77482   0.57874   0.34223   0.00000  Uiso   1.00
N136   N     0.04464   0.39058   0.82828   0.00000  Uiso   1.00
N137   N     0.90494   0.22433   0.54950   0.00000  Uiso   1.00
N138   N     0.86067   0.59325   0.44198   0.00000  Uiso   1.00
C139   C     0.84335   0.88696   0.66467   0.00000  Uiso   1.00
C140   C     0.89614   0.88751   0.56885   0.00000  Uiso   1.00
C141   C     0.89271   0.87989   0.43272   0.00000  Uiso   1.00
C142   C     0.94612   0.88186   0.36246   0.00000  Uiso   1.00
C143   C     0.01976   0.88128   0.20399   0.00000  Uiso   1.00
C144   C     0.85765   0.84168   0.76761   0.00000  Uiso   1.00
C145   C     0.82184   0.79554   0.79860   0.00000  Uiso   1.00
C146   C     0.84284   0.75894   0.89568   0.00000  Uiso   1.00
C147   C     0.85669   0.68724   0.04586   0.00000  Uiso   1.00
C148   C     0.84545   0.94336   0.73795   0.00000  Uiso   1.00
C149   C     0.79938   0.98270   0.74405   0.00000  Uiso   1.00
C150   C     0.81011   0.03170   0.81619   0.00000  Uiso   1.00
C151   C     0.80502   0.11786   0.92031   0.00000  Uiso   1.00
C152   C     0.94431   0.90402   0.78198   0.00000  Uiso   1.00
C153   C     0.95098   0.89678   0.63257   0.00000  Uiso   1.00
C154   C     0.00441   0.89876   0.56250   0.00000  Uiso   1.00
C155   C     0.00106   0.89114   0.42629   0.00000  Uiso   1.00
C156   C     0.91248   0.85095   0.83133   0.00000  Uiso   1.00
C157   C     0.93354   0.81441   0.92839   0.00000  Uiso   1.00
C158   C     0.89778   0.76822   0.95952   0.00000  Uiso   1.00
C159   C     0.90029   0.95263   0.80167   0.00000  Uiso   1.00
C160   C     0.91109   0.00157   0.87383   0.00000  Uiso   1.00
C161   C     0.86505   0.04098   0.88002   0.00000  Uiso   1.00
H162   H     0.80066   0.87974   0.61507   0.00000  Uiso   1.00
H163   H     0.85026   0.87271   0.38344   0.00000  Uiso   1.00
H164   H     0.77940   0.78838   0.74929   0.00000  Uiso   1.00
H165   H     0.75695   0.97551   0.69473   0.00000  Uiso   1.00
H166   H     0.92945   0.86898   0.15475   0.00000  Uiso   1.00
H167   H     0.78003   0.69118   0.92618   0.00000  Uiso   1.00
H168   H     0.73268   0.08578   0.81113   0.00000  Uiso   1.00
H169   H     0.98701   0.91123   0.83159   0.00000  Uiso   1.00
H170   H     0.04685   0.90593   0.61184   0.00000  Uiso   1.00
H171   H     0.97598   0.82160   0.97768   0.00000  Uiso   1.00
H172   H     0.95353   0.00873   0.92312   0.00000  Uiso   1.00
H173   H     0.08900   0.89595   0.34012   0.00000  Uiso   1.00
H174   H     0.93957   0.71814   0.11156   0.00000  Uiso   1.00
H175   H     0.89223   0.11274   0.99651   0.00000  Uiso   1.00
O176   O     0.04523   0.87839   0.09898   0.00000  Uiso   1.00
O177   O     0.84918   0.64512   0.11108   0.00000  Uiso   1.00
O178   O     0.78706   0.16284   0.96013   0.00000  Uiso   1.00
N179   N     0.95879   0.87607   0.22853   0.00000  Uiso   1.00
N180   N     0.81909   0.70982   0.94976   0.00000  Uiso   1.00
N181   N     0.77482   0.07874   0.84223   0.00000  Uiso   1.00
N182   N     0.04464   0.89058   0.32828   0.00000  Uiso   1.00
N183   N     0.90494   0.72433   0.04950   0.00000  Uiso   1.00
N184   N     0.86067   0.09325   0.94198   0.00000  Uiso   1.00
C185   C     0.65665   0.88696   0.16467   0.00000  Uiso   1.00
C186   C     0.60386   0.88751   0.06885   0.00000  Uiso   1.00
C187   C     0.60729   0.87989   0.93272   0.00000  Uiso   1.00
C188   C     0.55388   0.88186   0.86246   0.00000  Uiso   1.00
C189   C     0.48024   0.88128   0.70399   0.00000  Uiso   1.00
C190   C     0.64235   0.84168   0.26761   0.00000  Uiso   1.00
C191   C     0.67816   0.79554   0.29860   0.00000  Uiso   1.00
C192   C     0.65716   0.75894   0.39568   0.00000  Uiso   1.00
C193   C     0.64331   0.68724   0.54586   0.00000  Uiso   1.00
C194   C     0.65455   0.94336   0.23795   0.00000  Uiso   1.00
C195   C     0.70062   0.98270   0.24405   0.00000  Uiso   1.00
C196   C     0.68989   0.03170   0.31619   0.00000  Uiso   1.00
C197   C     0.69498   0.11786   0.42031   0.00000  Uiso   1.00
C198   C     0.55569   0.90402   0.28198   0.00000  Uiso   1.00
C199   C     0.54902   0.89678   0.13257   0.00000  Uiso   1.00
C200   C     0.49559   0.89876   0.06250   0.00000  Uiso   1.00
C201   C     0.49894   0.89114   0.92629   0.00000  Uiso   1.00
C202   C     0.58752   0.85095   0.33133   0.00000  Uiso   1.00
C203   C     0.56646   0.81441   0.42839   0.00000  Uiso   1.00
C204   C     0.60222   0.76822   0.45952   0.00000  Uiso   1.00
C205   C     0.59971   0.95263   0.30167   0.00000  Uiso   1.00
C206   C     0.58891   0.00157   0.37383   0.00000  Uiso   1.00
C207   C     0.63495   0.04098   0.38002   0.00000  Uiso   1.00
H208   H     0.69934   0.87974   0.11507   0.00000  Uiso   1.00
H209   H     0.64974   0.87271   0.88344   0.00000  Uiso   1.00
H210   H     0.72060   0.78838   0.24929   0.00000  Uiso   1.00
H211   H     0.74305   0.97551   0.19473   0.00000  Uiso   1.00
H212   H     0.57055   0.86898   0.65475   0.00000  Uiso   1.00
H213   H     0.71997   0.69118   0.42618   0.00000  Uiso   1.00
H214   H     0.76732   0.08578   0.31113   0.00000  Uiso   1.00
H215   H     0.51299   0.91123   0.33159   0.00000  Uiso   1.00
H216   H     0.45315   0.90593   0.11184   0.00000  Uiso   1.00
H217   H     0.52402   0.82160   0.47768   0.00000  Uiso   1.00
H218   H     0.54647   0.00873   0.42312   0.00000  Uiso   1.00
H219   H     0.41100   0.89595   0.84012   0.00000  Uiso   1.00
H220   H     0.56043   0.71814   0.61156   0.00000  Uiso   1.00
H221   H     0.60777   0.11274   0.49651   0.00000  Uiso   1.00
O222   O     0.45477   0.87839   0.59898   0.00000  Uiso   1.00
O223   O     0.65082   0.64512   0.61108   0.00000  Uiso   1.00
O224   O     0.71294   0.16284   0.46013   0.00000  Uiso   1.00
N225   N     0.54121   0.87607   0.72853   0.00000  Uiso   1.00
N226   N     0.68091   0.70982   0.44976   0.00000  Uiso   1.00
N227   N     0.72518   0.07874   0.34223   0.00000  Uiso   1.00
N228   N     0.45536   0.89058   0.82828   0.00000  Uiso   1.00
N229   N     0.59506   0.72433   0.54950   0.00000  Uiso   1.00
N230   N     0.63933   0.09325   0.44198   0.00000  Uiso   1.00
C231   C     0.65665   0.38696   0.66467   0.00000  Uiso   1.00
C232   C     0.60386   0.38751   0.56885   0.00000  Uiso   1.00
C233   C     0.60729   0.37989   0.43272   0.00000  Uiso   1.00
C234   C     0.55388   0.38186   0.36246   0.00000  Uiso   1.00
C235   C     0.48024   0.38128   0.20399   0.00000  Uiso   1.00
C236   C     0.64235   0.34168   0.76761   0.00000  Uiso   1.00
C237   C     0.67816   0.29554   0.79860   0.00000  Uiso   1.00
C238   C     0.65716   0.25894   0.89568   0.00000  Uiso   1.00
C239   C     0.64331   0.18724   0.04586   0.00000  Uiso   1.00
C240   C     0.65455   0.44336   0.73795   0.00000  Uiso   1.00
C241   C     0.70062   0.48270   0.74405   0.00000  Uiso   1.00
C242   C     0.68989   0.53170   0.81619   0.00000  Uiso   1.00
C243   C     0.69498   0.61786   0.92031   0.00000  Uiso   1.00
C244   C     0.55569   0.40402   0.78198   0.00000  Uiso   1.00
C245   C     0.54902   0.39678   0.63257   0.00000  Uiso   1.00
C246   C     0.49559   0.39876   0.56250   0.00000  Uiso   1.00
C247   C     0.49894   0.39114   0.42629   0.00000  Uiso   1.00
C248   C     0.58752   0.35095   0.83133   0.00000  Uiso   1.00
C249   C     0.56646   0.31441   0.92839   0.00000  Uiso   1.00
C250   C     0.60222   0.26822   0.95952   0.00000  Uiso   1.00
C251   C     0.59971   0.45263   0.80167   0.00000  Uiso   1.00
C252   C     0.58891   0.50157   0.87383   0.00000  Uiso   1.00
C253   C     0.63495   0.54098   0.88002   0.00000  Uiso   1.00
H254   H     0.69934   0.37974   0.61507   0.00000  Uiso   1.00
H255   H     0.64974   0.37271   0.38344   0.00000  Uiso   1.00
H256   H     0.72060   0.28838   0.74929   0.00000  Uiso   1.00
H257   H     0.74305   0.47551   0.69473   0.00000  Uiso   1.00
H258   H     0.57055   0.36898   0.15475   0.00000  Uiso   1.00
H259   H     0.71997   0.19118   0.92618   0.00000  Uiso   1.00
H260   H     0.76732   0.58578   0.81113   0.00000  Uiso   1.00
H261   H     0.51299   0.41123   0.83159   0.00000  Uiso   1.00
H262   H     0.45315   0.40593   0.61184   0.00000  Uiso   1.00
H263   H     0.52402   0.32160   0.97768   0.00000  Uiso   1.00
H264   H     0.54647   0.50873   0.92312   0.00000  Uiso   1.00
H265   H     0.41100   0.39595   0.34012   0.00000  Uiso   1.00
H266   H     0.56043   0.21814   0.11156   0.00000  Uiso   1.00
H267   H     0.60777   0.61274   0.99651   0.00000  Uiso   1.00
O268   O     0.45477   0.37839   0.09898   0.00000  Uiso   1.00
O269   O     0.65082   0.14512   0.11108   0.00000  Uiso   1.00
O270   O     0.71294   0.66284   0.96013   0.00000  Uiso   1.00
N271   N     0.54121   0.37607   0.22853   0.00000  Uiso   1.00
N272   N     0.68091   0.20982   0.94976   0.00000  Uiso   1.00
N273   N     0.72518   0.57874   0.84223   0.00000  Uiso   1.00
N274   N     0.45536   0.39058   0.32828   0.00000  Uiso   1.00
N275   N     0.59506   0.22433   0.04950   0.00000  Uiso   1.00
N276   N     0.63933   0.59325   0.94198   0.00000  Uiso   1.00
C277   C     0.34335   0.11304   0.16467   0.00000  Uiso   1.00
C278   C     0.39614   0.11249   0.06885   0.00000  Uiso   1.00
C279   C     0.39271   0.12011   0.93272   0.00000  Uiso   1.00
C280   C     0.44612   0.11814   0.86246   0.00000  Uiso   1.00
C281   C     0.51976   0.11872   0.70399   0.00000  Uiso   1.00
C282   C     0.35765   0.15832   0.26761   0.00000  Uiso   1.00
C283   C     0.32184   0.20446   0.29860   0.00000  Uiso   1.00
C284   C     0.34284   0.24106   0.39568   0.00000  Uiso   1.00
C285   C     0.35669   0.31276   0.54586   0.00000  Uiso   1.00
C286   C     0.34545   0.05664   0.23795   0.00000  Uiso   1.00
C287   C     0.29938   0.01730   0.24405   0.00000  Uiso   1.00
C288   C     0.31011   0.96830   0.31619   0.00000  Uiso   1.00
C289   C     0.30502   0.88214   0.42031   0.00000  Uiso   1.00
C290   C     0.44431   0.09598   0.28198   0.00000  Uiso   1.00
C291   C     0.45098   0.10322   0.13257   0.00000  Uiso   1.00
C292   C     0.50441   0.10124   0.06250   0.00000  Uiso   1.00
C293   C     0.50106   0.10886   0.92629   0.00000  Uiso   1.00
C294   C     0.41248   0.14905   0.33133   0.00000  Uiso   1.00
C295   C     0.43354   0.18559   0.42839   0.00000  Uiso   1.00
C296   C     0.39778   0.23178   0.45952   0.00000  Uiso   1.00
C297   C     0.40029   0.04737   0.30167   0.00000  Uiso   1.00
C298   C     0.41109   0.99843   0.37383   0.00000  Uiso   1.00
C299   C     0.36505   0.95902   0.38002   0.00000  Uiso   1.00
H300   H     0.30066   0.12026   0.11507   0.00000  Uiso   1.00
H301   H     0.35026   0.12729   0.88344   0.00000  Uiso   1.00
H302   H     0.27940   0.21162   0.24929   0.00000  Uiso   1.00
H303   H     0.25695   0.02449   0.19473   0.00000  Uiso   1.00
H304   H     0.42945   0.13102   0.65475   0.00000  Uiso   1.00
H305   H     0.28003   0.30882   0.42618   0.00000  Uiso   1.00
H306   H     0.23268   0.91422   0.31113   0.00000  Uiso   1.00
H307   H     0.48701   0.08877   0.33159   0.00000  Uiso   1.00
H308   H     0.54685   0.09407   0.11184   0.00000  Uiso   1.00
H309   H     0.47598   0.17840   0.47768   0.00000  Uiso   1.00
H310   H     0.45353   0.99127   0.42312   0.00000  Uiso   1.00
H311   H     0.58900   0.10405   0.84012   0.00000  Uiso   1.00
H312   H     0.43957   0.28186   0.61156   0.00000  Uiso   1.00
H313   H     0.39223   0.88726   0.49651   0.00000  Uiso   1.00
O314   O     0.54523   0.12161   0.59898   0.00000  Uiso   1.00
O315   O     0.34918   0.35488   0.61108   0.00000  Uiso   1.00
O316   O     0.28706   0.83716   0.46013   0.00000  Uiso   1.00
N317   N     0.45879   0.12393   0.72853   0.00000  Uiso   1.00
N318   N     0.31909   0.29018   0.44976   0.00000  Uiso   1.00
N319   N     0.27482   0.92126   0.34223   0.00000  Uiso   1.00
N320   N     0.54464   0.10942   0.82828   0.00000  Uiso   1.00
N321   N     0.40494   0.27567   0.54950   0.00000  Uiso   1.00
N322   N     0.36067   0.90675   0.44198   0.00000  Uiso   1.00
C323   C     0.34335   0.61304   0.66467   0.00000  Uiso   1.00
C324   C     0.39614   0.61249   0.56885   0.00000  Uiso   1.00
C325   C     0.39271   0.62011   0.43272   0.00000  Uiso   1.00
C326   C     0.44612   0.61814   0.36246   0.00000  Uiso   1.00
C327   C     0.51976   0.61872   0.20399   0.00000  Uiso   1.00
C328   C     0.35765   0.65832   0.76761   0.00000  Uiso   1.00
C329   C     0.32184   0.70446   0.79860   0.00000  Uiso   1.00
C330   C     0.34284   0.74106   0.89568   0.00000  Uiso   1.00
C331   C     0.35669   0.81276   0.04586   0.00000  Uiso   1.00
C332   C     0.34545   0.55664   0.73795   0.00000  Uiso   1.00
C333   C     0.29938   0.51730   0.74405   0.00000  Uiso   1.00
C334   C     0.31011   0.46830   0.81619   0.00000  Uiso   1.00
C335   C     0.30502   0.38214   0.92031   0.00000  Uiso   1.00
C336   C     0.44431   0.59598   0.78198   0.00000  Uiso   1.00
C337   C     0.45098   0.60322   0.63257   0.00000  Uiso   1.00
C338   C     0.50441   0.60124   0.56250   0.00000  Uiso   1.00
C339   C     0.50106   0.60886   0.42629   0.00000  Uiso   1.00
C340   C     0.41248   0.64905   0.83133   0.00000  Uiso   1.00
C341   C     0.43354   0.68559   0.92839   0.00000  Uiso   1.00
C342   C     0.39778   0.73178   0.95952   0.00000  Uiso   1.00
C343   C     0.40029   0.54737   0.80167   0.00000  Uiso   1.00
C344   C     0.41109   0.49843   0.87383   0.00000  Uiso   1.00
C345   C     0.36505   0.45902   0.88002   0.00000  Uiso   1.00
H346   H     0.30066   0.62026   0.61507   0.00000  Uiso   1.00
H347   H     0.35026   0.62729   0.38344   0.00000  Uiso   1.00
H348   H     0.27940   0.71162   0.74929   0.00000  Uiso   1.00
H349   H     0.25695   0.52449   0.69473   0.00000  Uiso   1.00
H350   H     0.42945   0.63102   0.15475   0.00000  Uiso   1.00
H351   H     0.28003   0.80882   0.92618   0.00000  Uiso   1.00
H352   H     0.23268   0.41422   0.81113   0.00000  Uiso   1.00
H353   H     0.48701   0.58877   0.83159   0.00000  Uiso   1.00
H354   H     0.54685   0.59407   0.61184   0.00000  Uiso   1.00
H355   H     0.47598   0.67840   0.97768   0.00000  Uiso   1.00
H356   H     0.45353   0.49127   0.92312   0.00000  Uiso   1.00
H357   H     0.58900   0.60405   0.34012   0.00000  Uiso   1.00
H358   H     0.43957   0.78186   0.11156   0.00000  Uiso   1.00
H359   H     0.39223   0.38726   0.99651   0.00000  Uiso   1.00
O360   O     0.54523   0.62161   0.09898   0.00000  Uiso   1.00
O361   O     0.34918   0.85488   0.11108   0.00000  Uiso   1.00
O362   O     0.28706   0.33716   0.96013   0.00000  Uiso   1.00
N363   N     0.45879   0.62393   0.22853   0.00000  Uiso   1.00
N364   N     0.31909   0.79018   0.94976   0.00000  Uiso   1.00
N365   N     0.27482   0.42126   0.84223   0.00000  Uiso   1.00
N366   N     0.54464   0.60942   0.32828   0.00000  Uiso   1.00
N367   N     0.40494   0.77567   0.04950   0.00000  Uiso   1.00
N368   N     0.36067   0.40675   0.94198   0.00000  Uiso   1.00
