data_job_02638
_audit_creation_date              2018-12-19
_audit_creation_method            'Materials Studio'
_symmetry_space_group_name_H-M    'P1'
_symmetry_Int_Tables_number       1
_symmetry_cell_setting            triclinic
loop_
_symmetry_equiv_pos_as_xyz
  x,y,z
_cell_length_a                    23.0162
_cell_length_b                    12.0479
_cell_length_c                    27.8761
_cell_angle_alpha                 90.0000
_cell_angle_beta                  106.3170
_cell_angle_gamma                 90.0000
loop_
_atom_site_label
_atom_site_type_symbol
_atom_site_fract_x
_atom_site_fract_y
_atom_site_fract_z
_atom_site_U_iso_or_equiv
_atom_site_adp_type
_atom_site_occupancy
C1     C     0.70642   0.09271   0.88053   0.00000  Uiso   1.00
C2     C     0.68559   0.21156   0.86666   0.00000  Uiso   1.00
C3     C     0.65764   0.28028   0.89343   0.00000  Uiso   1.00
C4     C     0.64205   0.38618   0.87455   0.00000  Uiso   1.00
C5     C     0.60787   0.56526   0.85971   0.00000  Uiso   1.00
C6     C     0.67506   0.02162   0.83542   0.00000  Uiso   1.00
C7     C     0.63827   0.93062   0.83594   0.00000  Uiso   1.00
C8     C     0.61382   0.87661   0.79076   0.00000  Uiso   1.00
C9     C     0.56333   0.76074   0.72744   0.00000  Uiso   1.00
C10    C     0.77368   0.09011   0.88388   0.00000  Uiso   1.00
C11    C     0.81981   0.05666   0.92514   0.00000  Uiso   1.00
C12    C     0.87840   0.06030   0.92076   0.00000  Uiso   1.00
C13    C     0.98103   0.05078   0.93267   0.00000  Uiso   1.00
C14    C     0.72843   0.15860   0.79938   0.00000  Uiso   1.00
C15    C     0.69755   0.24734   0.82258   0.00000  Uiso   1.00
C16    C     0.68200   0.35317   0.80365   0.00000  Uiso   1.00
C17    C     0.65403   0.42203   0.83039   0.00000  Uiso   1.00
C18    C     0.68702   0.05740   0.79135   0.00000  Uiso   1.00
C19    C     0.66263   0.00351   0.74616   0.00000  Uiso   1.00
C20    C     0.62580   0.91246   0.74661   0.00000  Uiso   1.00
C21    C     0.78564   0.12589   0.83981   0.00000  Uiso   1.00
C22    C     0.84417   0.12957   0.83536   0.00000  Uiso   1.00
C23    C     0.89038   0.09615   0.87660   0.00000  Uiso   1.00
H24    H     0.69710   0.06485   0.91484   0.00000  Uiso   1.00
H25    H     0.64839   0.25255   0.92754   0.00000  Uiso   1.00
H26    H     0.62903   0.90294   0.87005   0.00000  Uiso   1.00
H27    H     0.81054   0.02898   0.95924   0.00000  Uiso   1.00
H28    H     0.59963   0.47642   0.92217   0.00000  Uiso   1.00
H29    H     0.55882   0.73922   0.80097   0.00000  Uiso   1.00
H30    H     0.94158   0.00499   0.98903   0.00000  Uiso   1.00
H31    H     0.73775   0.18645   0.76507   0.00000  Uiso   1.00
H32    H     0.69126   0.38084   0.76955   0.00000  Uiso   1.00
H33    H     0.67190   0.03122   0.71206   0.00000  Uiso   1.00
H34    H     0.85341   0.15726   0.80125   0.00000  Uiso   1.00
H35    H     0.63443   0.58054   0.79394   0.00000  Uiso   1.00
H36    H     0.59362   0.84334   0.67273   0.00000  Uiso   1.00
H37    H     0.97638   0.10912   0.86080   0.00000  Uiso   1.00
O38    O     0.58570   0.65415   0.86369   0.00000  Uiso   1.00
O39    O     0.53217   0.68695   0.70468   0.00000  Uiso   1.00
O40    O     0.03434   0.03565   0.95142   0.00000  Uiso   1.00
N41    N     0.61421   0.47426   0.89138   0.00000  Uiso   1.00
N42    N     0.57605   0.78503   0.77806   0.00000  Uiso   1.00
N43    N     0.93389   0.03348   0.95388   0.00000  Uiso   1.00
N44    N     0.63293   0.53029   0.82238   0.00000  Uiso   1.00
N45    N     0.59477   0.84106   0.70906   0.00000  Uiso   1.00
N46    N     0.95262   0.08951   0.88488   0.00000  Uiso   1.00
C47    C     0.20642   0.59271   0.88053   0.00000  Uiso   1.00
C48    C     0.18559   0.71156   0.86666   0.00000  Uiso   1.00
C49    C     0.15764   0.78028   0.89343   0.00000  Uiso   1.00
C50    C     0.14205   0.88618   0.87455   0.00000  Uiso   1.00
C51    C     0.10787   0.06526   0.85971   0.00000  Uiso   1.00
C52    C     0.17506   0.52162   0.83542   0.00000  Uiso   1.00
C53    C     0.13827   0.43062   0.83594   0.00000  Uiso   1.00
C54    C     0.11382   0.37661   0.79076   0.00000  Uiso   1.00
C55    C     0.06333   0.26074   0.72744   0.00000  Uiso   1.00
C56    C     0.27368   0.59011   0.88388   0.00000  Uiso   1.00
C57    C     0.31981   0.55666   0.92514   0.00000  Uiso   1.00
C58    C     0.37840   0.56030   0.92076   0.00000  Uiso   1.00
C59    C     0.48103   0.55078   0.93267   0.00000  Uiso   1.00
C60    C     0.22843   0.65860   0.79938   0.00000  Uiso   1.00
C61    C     0.19755   0.74734   0.82258   0.00000  Uiso   1.00
C62    C     0.18200   0.85317   0.80365   0.00000  Uiso   1.00
C63    C     0.15403   0.92203   0.83039   0.00000  Uiso   1.00
C64    C     0.18702   0.55740   0.79135   0.00000  Uiso   1.00
C65    C     0.16263   0.50351   0.74616   0.00000  Uiso   1.00
C66    C     0.12580   0.41246   0.74661   0.00000  Uiso   1.00
C67    C     0.28564   0.62589   0.83981   0.00000  Uiso   1.00
C68    C     0.34417   0.62957   0.83536   0.00000  Uiso   1.00
C69    C     0.39038   0.59615   0.87660   0.00000  Uiso   1.00
H70    H     0.19710   0.56485   0.91484   0.00000  Uiso   1.00
H71    H     0.14839   0.75255   0.92754   0.00000  Uiso   1.00
H72    H     0.12903   0.40294   0.87005   0.00000  Uiso   1.00
H73    H     0.31054   0.52898   0.95924   0.00000  Uiso   1.00
H74    H     0.09963   0.97642   0.92217   0.00000  Uiso   1.00
H75    H     0.05882   0.23922   0.80097   0.00000  Uiso   1.00
H76    H     0.44158   0.50499   0.98903   0.00000  Uiso   1.00
H77    H     0.23775   0.68645   0.76507   0.00000  Uiso   1.00
H78    H     0.19126   0.88084   0.76955   0.00000  Uiso   1.00
H79    H     0.17190   0.53122   0.71206   0.00000  Uiso   1.00
H80    H     0.35341   0.65726   0.80125   0.00000  Uiso   1.00
H81    H     0.13443   0.08054   0.79394   0.00000  Uiso   1.00
H82    H     0.09362   0.34334   0.67273   0.00000  Uiso   1.00
H83    H     0.47638   0.60912   0.86080   0.00000  Uiso   1.00
O84    O     0.08570   0.15415   0.86369   0.00000  Uiso   1.00
O85    O     0.03217   0.18695   0.70468   0.00000  Uiso   1.00
O86    O     0.53434   0.53565   0.95142   0.00000  Uiso   1.00
N87    N     0.11421   0.97426   0.89138   0.00000  Uiso   1.00
N88    N     0.07605   0.28503   0.77806   0.00000  Uiso   1.00
N89    N     0.43389   0.53348   0.95388   0.00000  Uiso   1.00
N90    N     0.13293   0.03029   0.82238   0.00000  Uiso   1.00
N91    N     0.09477   0.34106   0.70906   0.00000  Uiso   1.00
N92    N     0.45262   0.58951   0.88488   0.00000  Uiso   1.00
C93    C     0.29358   0.09271   0.61947   0.00000  Uiso   1.00
C94    C     0.31441   0.21156   0.63334   0.00000  Uiso   1.00
C95    C     0.34236   0.28028   0.60657   0.00000  Uiso   1.00
C96    C     0.35795   0.38618   0.62545   0.00000  Uiso   1.00
C97    C     0.39213   0.56526   0.64029   0.00000  Uiso   1.00
C98    C     0.32494   0.02162   0.66458   0.00000  Uiso   1.00
C99    C     0.36173   0.93062   0.66406   0.00000  Uiso   1.00
C100   C     0.38618   0.87661   0.70924   0.00000  Uiso   1.00
C101   C     0.43667   0.76074   0.77256   0.00000  Uiso   1.00
C102   C     0.22632   0.09011   0.61612   0.00000  Uiso   1.00
C103   C     0.18019   0.05666   0.57486   0.00000  Uiso   1.00
C104   C     0.12160   0.06030   0.57924   0.00000  Uiso   1.00
C105   C     0.01897   0.05078   0.56733   0.00000  Uiso   1.00
C106   C     0.27157   0.15860   0.70062   0.00000  Uiso   1.00
C107   C     0.30245   0.24734   0.67742   0.00000  Uiso   1.00
C108   C     0.31800   0.35317   0.69635   0.00000  Uiso   1.00
C109   C     0.34596   0.42203   0.66961   0.00000  Uiso   1.00
C110   C     0.31298   0.05740   0.70865   0.00000  Uiso   1.00
C111   C     0.33737   0.00351   0.75384   0.00000  Uiso   1.00
C112   C     0.37420   0.91246   0.75339   0.00000  Uiso   1.00
C113   C     0.21436   0.12589   0.66019   0.00000  Uiso   1.00
C114   C     0.15583   0.12957   0.66464   0.00000  Uiso   1.00
C115   C     0.10962   0.09615   0.62340   0.00000  Uiso   1.00
H116   H     0.30290   0.06485   0.58516   0.00000  Uiso   1.00
H117   H     0.35161   0.25255   0.57246   0.00000  Uiso   1.00
H118   H     0.37097   0.90294   0.62995   0.00000  Uiso   1.00
H119   H     0.18946   0.02898   0.54076   0.00000  Uiso   1.00
H120   H     0.40037   0.47642   0.57783   0.00000  Uiso   1.00
H121   H     0.44118   0.73922   0.69903   0.00000  Uiso   1.00
H122   H     0.05842   0.00499   0.51097   0.00000  Uiso   1.00
H123   H     0.26225   0.18645   0.73493   0.00000  Uiso   1.00
H124   H     0.30874   0.38084   0.73045   0.00000  Uiso   1.00
H125   H     0.32810   0.03122   0.78794   0.00000  Uiso   1.00
H126   H     0.14659   0.15726   0.69875   0.00000  Uiso   1.00
H127   H     0.36557   0.58054   0.70606   0.00000  Uiso   1.00
H128   H     0.40638   0.84334   0.82727   0.00000  Uiso   1.00
H129   H     0.02362   0.10912   0.63920   0.00000  Uiso   1.00
O130   O     0.41430   0.65415   0.63631   0.00000  Uiso   1.00
O131   O     0.46783   0.68695   0.79532   0.00000  Uiso   1.00
O132   O     0.96566   0.03565   0.54858   0.00000  Uiso   1.00
N133   N     0.38579   0.47426   0.60862   0.00000  Uiso   1.00
N134   N     0.42395   0.78503   0.72194   0.00000  Uiso   1.00
N135   N     0.06611   0.03348   0.54612   0.00000  Uiso   1.00
N136   N     0.36707   0.53029   0.67762   0.00000  Uiso   1.00
N137   N     0.40523   0.84106   0.79094   0.00000  Uiso   1.00
N138   N     0.04738   0.08951   0.61512   0.00000  Uiso   1.00
C139   C     0.79358   0.59271   0.61947   0.00000  Uiso   1.00
C140   C     0.81441   0.71156   0.63334   0.00000  Uiso   1.00
C141   C     0.84236   0.78028   0.60657   0.00000  Uiso   1.00
C142   C     0.85795   0.88618   0.62545   0.00000  Uiso   1.00
C143   C     0.89213   0.06526   0.64029   0.00000  Uiso   1.00
C144   C     0.82494   0.52162   0.66458   0.00000  Uiso   1.00
C145   C     0.86173   0.43062   0.66406   0.00000  Uiso   1.00
C146   C     0.88618   0.37661   0.70924   0.00000  Uiso   1.00
C147   C     0.93667   0.26074   0.77256   0.00000  Uiso   1.00
C148   C     0.72632   0.59011   0.61612   0.00000  Uiso   1.00
C149   C     0.68019   0.55666   0.57486   0.00000  Uiso   1.00
C150   C     0.62160   0.56030   0.57924   0.00000  Uiso   1.00
C151   C     0.51897   0.55078   0.56733   0.00000  Uiso   1.00
C152   C     0.77157   0.65860   0.70062   0.00000  Uiso   1.00
C153   C     0.80245   0.74734   0.67742   0.00000  Uiso   1.00
C154   C     0.81800   0.85317   0.69635   0.00000  Uiso   1.00
C155   C     0.84596   0.92203   0.66961   0.00000  Uiso   1.00
C156   C     0.81298   0.55740   0.70865   0.00000  Uiso   1.00
C157   C     0.83737   0.50351   0.75384   0.00000  Uiso   1.00
C158   C     0.87420   0.41246   0.75339   0.00000  Uiso   1.00
C159   C     0.71436   0.62589   0.66019   0.00000  Uiso   1.00
C160   C     0.65583   0.62957   0.66464   0.00000  Uiso   1.00
C161   C     0.60962   0.59615   0.62340   0.00000  Uiso   1.00
H162   H     0.80290   0.56485   0.58516   0.00000  Uiso   1.00
H163   H     0.85161   0.75255   0.57246   0.00000  Uiso   1.00
H164   H     0.87097   0.40294   0.62995   0.00000  Uiso   1.00
H165   H     0.68946   0.52898   0.54076   0.00000  Uiso   1.00
H166   H     0.90037   0.97642   0.57783   0.00000  Uiso   1.00
H167   H     0.94118   0.23922   0.69903   0.00000  Uiso   1.00
H168   H     0.55842   0.50499   0.51097   0.00000  Uiso   1.00
H169   H     0.76225   0.68645   0.73493   0.00000  Uiso   1.00
H170   H     0.80874   0.88084   0.73045   0.00000  Uiso   1.00
H171   H     0.82810   0.53122   0.78794   0.00000  Uiso   1.00
H172   H     0.64659   0.65726   0.69875   0.00000  Uiso   1.00
H173   H     0.86557   0.08054   0.70606   0.00000  Uiso   1.00
H174   H     0.90638   0.34334   0.82727   0.00000  Uiso   1.00
H175   H     0.52362   0.60912   0.63920   0.00000  Uiso   1.00
O176   O     0.91430   0.15415   0.63631   0.00000  Uiso   1.00
O177   O     0.96783   0.18695   0.79532   0.00000  Uiso   1.00
O178   O     0.46566   0.53565   0.54858   0.00000  Uiso   1.00
N179   N     0.88579   0.97426   0.60862   0.00000  Uiso   1.00
N180   N     0.92395   0.28503   0.72194   0.00000  Uiso   1.00
N181   N     0.56611   0.53348   0.54612   0.00000  Uiso   1.00
N182   N     0.86707   0.03029   0.67762   0.00000  Uiso   1.00
N183   N     0.90523   0.34106   0.79094   0.00000  Uiso   1.00
N184   N     0.54738   0.58951   0.61512   0.00000  Uiso   1.00
C185   C     0.29358   0.90729   0.11947   0.00000  Uiso   1.00
C186   C     0.31441   0.78844   0.13334   0.00000  Uiso   1.00
C187   C     0.34236   0.71972   0.10657   0.00000  Uiso   1.00
C188   C     0.35795   0.61382   0.12545   0.00000  Uiso   1.00
C189   C     0.39213   0.43474   0.14029   0.00000  Uiso   1.00
C190   C     0.32494   0.97838   0.16458   0.00000  Uiso   1.00
C191   C     0.36173   0.06938   0.16406   0.00000  Uiso   1.00
C192   C     0.38618   0.12339   0.20924   0.00000  Uiso   1.00
C193   C     0.43667   0.23926   0.27256   0.00000  Uiso   1.00
C194   C     0.22632   0.90989   0.11612   0.00000  Uiso   1.00
C195   C     0.18019   0.94334   0.07486   0.00000  Uiso   1.00
C196   C     0.12160   0.93970   0.07924   0.00000  Uiso   1.00
C197   C     0.01897   0.94922   0.06733   0.00000  Uiso   1.00
C198   C     0.27157   0.84140   0.20062   0.00000  Uiso   1.00
C199   C     0.30245   0.75266   0.17742   0.00000  Uiso   1.00
C200   C     0.31800   0.64683   0.19635   0.00000  Uiso   1.00
C201   C     0.34596   0.57797   0.16961   0.00000  Uiso   1.00
C202   C     0.31298   0.94260   0.20865   0.00000  Uiso   1.00
C203   C     0.33737   0.99649   0.25384   0.00000  Uiso   1.00
C204   C     0.37420   0.08754   0.25339   0.00000  Uiso   1.00
C205   C     0.21436   0.87411   0.16019   0.00000  Uiso   1.00
C206   C     0.15583   0.87043   0.16464   0.00000  Uiso   1.00
C207   C     0.10962   0.90385   0.12340   0.00000  Uiso   1.00
H208   H     0.30290   0.93515   0.08516   0.00000  Uiso   1.00
H209   H     0.35161   0.74745   0.07246   0.00000  Uiso   1.00
H210   H     0.37097   0.09706   0.12995   0.00000  Uiso   1.00
H211   H     0.18946   0.97102   0.04076   0.00000  Uiso   1.00
H212   H     0.40037   0.52358   0.07783   0.00000  Uiso   1.00
H213   H     0.44118   0.26078   0.19903   0.00000  Uiso   1.00
H214   H     0.05842   0.99501   0.01097   0.00000  Uiso   1.00
H215   H     0.26225   0.81355   0.23493   0.00000  Uiso   1.00
H216   H     0.30874   0.61916   0.23045   0.00000  Uiso   1.00
H217   H     0.32810   0.96878   0.28794   0.00000  Uiso   1.00
H218   H     0.14659   0.84274   0.19875   0.00000  Uiso   1.00
H219   H     0.36557   0.41946   0.20606   0.00000  Uiso   1.00
H220   H     0.40638   0.15666   0.32727   0.00000  Uiso   1.00
H221   H     0.02362   0.89088   0.13920   0.00000  Uiso   1.00
O222   O     0.41430   0.34585   0.13631   0.00000  Uiso   1.00
O223   O     0.46783   0.31305   0.29532   0.00000  Uiso   1.00
O224   O     0.96566   0.96435   0.04858   0.00000  Uiso   1.00
N225   N     0.38579   0.52574   0.10862   0.00000  Uiso   1.00
N226   N     0.42395   0.21497   0.22194   0.00000  Uiso   1.00
N227   N     0.06611   0.96652   0.04612   0.00000  Uiso   1.00
N228   N     0.36707   0.46971   0.17762   0.00000  Uiso   1.00
N229   N     0.40523   0.15894   0.29094   0.00000  Uiso   1.00
N230   N     0.04738   0.91049   0.11512   0.00000  Uiso   1.00
C231   C     0.79358   0.40729   0.11947   0.00000  Uiso   1.00
C232   C     0.81441   0.28844   0.13334   0.00000  Uiso   1.00
C233   C     0.84236   0.21972   0.10657   0.00000  Uiso   1.00
C234   C     0.85795   0.11382   0.12545   0.00000  Uiso   1.00
C235   C     0.89213   0.93474   0.14029   0.00000  Uiso   1.00
C236   C     0.82494   0.47838   0.16458   0.00000  Uiso   1.00
C237   C     0.86173   0.56938   0.16406   0.00000  Uiso   1.00
C238   C     0.88618   0.62339   0.20924   0.00000  Uiso   1.00
C239   C     0.93667   0.73926   0.27256   0.00000  Uiso   1.00
C240   C     0.72632   0.40989   0.11612   0.00000  Uiso   1.00
C241   C     0.68019   0.44334   0.07486   0.00000  Uiso   1.00
C242   C     0.62160   0.43970   0.07924   0.00000  Uiso   1.00
C243   C     0.51897   0.44922   0.06733   0.00000  Uiso   1.00
C244   C     0.77157   0.34140   0.20062   0.00000  Uiso   1.00
C245   C     0.80245   0.25266   0.17742   0.00000  Uiso   1.00
C246   C     0.81800   0.14683   0.19635   0.00000  Uiso   1.00
C247   C     0.84596   0.07797   0.16961   0.00000  Uiso   1.00
C248   C     0.81298   0.44260   0.20865   0.00000  Uiso   1.00
C249   C     0.83737   0.49649   0.25384   0.00000  Uiso   1.00
C250   C     0.87420   0.58754   0.25339   0.00000  Uiso   1.00
C251   C     0.71436   0.37411   0.16019   0.00000  Uiso   1.00
C252   C     0.65583   0.37043   0.16464   0.00000  Uiso   1.00
C253   C     0.60962   0.40385   0.12340   0.00000  Uiso   1.00
H254   H     0.80290   0.43515   0.08516   0.00000  Uiso   1.00
H255   H     0.85161   0.24745   0.07246   0.00000  Uiso   1.00
H256   H     0.87097   0.59706   0.12995   0.00000  Uiso   1.00
H257   H     0.68946   0.47102   0.04076   0.00000  Uiso   1.00
H258   H     0.90037   0.02358   0.07783   0.00000  Uiso   1.00
H259   H     0.94118   0.76078   0.19903   0.00000  Uiso   1.00
H260   H     0.55842   0.49501   0.01097   0.00000  Uiso   1.00
H261   H     0.76225   0.31355   0.23493   0.00000  Uiso   1.00
H262   H     0.80874   0.11916   0.23045   0.00000  Uiso   1.00
H263   H     0.82810   0.46878   0.28794   0.00000  Uiso   1.00
H264   H     0.64659   0.34274   0.19875   0.00000  Uiso   1.00
H265   H     0.86557   0.91946   0.20606   0.00000  Uiso   1.00
H266   H     0.90638   0.65666   0.32727   0.00000  Uiso   1.00
H267   H     0.52362   0.39088   0.13920   0.00000  Uiso   1.00
O268   O     0.91430   0.84585   0.13631   0.00000  Uiso   1.00
O269   O     0.96783   0.81305   0.29532   0.00000  Uiso   1.00
O270   O     0.46566   0.46435   0.04858   0.00000  Uiso   1.00
N271   N     0.88579   0.02574   0.10862   0.00000  Uiso   1.00
N272   N     0.92395   0.71497   0.22194   0.00000  Uiso   1.00
N273   N     0.56611   0.46652   0.04612   0.00000  Uiso   1.00
N274   N     0.86707   0.96971   0.17762   0.00000  Uiso   1.00
N275   N     0.90523   0.65894   0.29094   0.00000  Uiso   1.00
N276   N     0.54738   0.41049   0.11512   0.00000  Uiso   1.00
C277   C     0.70642   0.90729   0.38053   0.00000  Uiso   1.00
C278   C     0.68559   0.78844   0.36666   0.00000  Uiso   1.00
C279   C     0.65764   0.71972   0.39343   0.00000  Uiso   1.00
C280   C     0.64205   0.61382   0.37455   0.00000  Uiso   1.00
C281   C     0.60787   0.43474   0.35971   0.00000  Uiso   1.00
C282   C     0.67506   0.97838   0.33542   0.00000  Uiso   1.00
C283   C     0.63827   0.06938   0.33594   0.00000  Uiso   1.00
C284   C     0.61382   0.12339   0.29076   0.00000  Uiso   1.00
C285   C     0.56333   0.23926   0.22744   0.00000  Uiso   1.00
C286   C     0.77368   0.90989   0.38388   0.00000  Uiso   1.00
C287   C     0.81981   0.94334   0.42514   0.00000  Uiso   1.00
C288   C     0.87840   0.93970   0.42076   0.00000  Uiso   1.00
C289   C     0.98103   0.94922   0.43267   0.00000  Uiso   1.00
C290   C     0.72843   0.84140   0.29938   0.00000  Uiso   1.00
C291   C     0.69755   0.75266   0.32258   0.00000  Uiso   1.00
C292   C     0.68200   0.64683   0.30365   0.00000  Uiso   1.00
C293   C     0.65403   0.57797   0.33039   0.00000  Uiso   1.00
C294   C     0.68702   0.94260   0.29135   0.00000  Uiso   1.00
C295   C     0.66263   0.99649   0.24616   0.00000  Uiso   1.00
C296   C     0.62580   0.08754   0.24661   0.00000  Uiso   1.00
C297   C     0.78564   0.87411   0.33981   0.00000  Uiso   1.00
C298   C     0.84417   0.87043   0.33536   0.00000  Uiso   1.00
C299   C     0.89038   0.90385   0.37660   0.00000  Uiso   1.00
H300   H     0.69710   0.93515   0.41484   0.00000  Uiso   1.00
H301   H     0.64839   0.74745   0.42754   0.00000  Uiso   1.00
H302   H     0.62903   0.09706   0.37005   0.00000  Uiso   1.00
H303   H     0.81054   0.97102   0.45924   0.00000  Uiso   1.00
H304   H     0.59963   0.52358   0.42217   0.00000  Uiso   1.00
H305   H     0.55882   0.26078   0.30097   0.00000  Uiso   1.00
H306   H     0.94158   0.99501   0.48903   0.00000  Uiso   1.00
H307   H     0.73775   0.81355   0.26507   0.00000  Uiso   1.00
H308   H     0.69126   0.61916   0.26955   0.00000  Uiso   1.00
H309   H     0.67190   0.96878   0.21206   0.00000  Uiso   1.00
H310   H     0.85341   0.84274   0.30125   0.00000  Uiso   1.00
H311   H     0.63443   0.41946   0.29394   0.00000  Uiso   1.00
H312   H     0.59362   0.15666   0.17273   0.00000  Uiso   1.00
H313   H     0.97638   0.89088   0.36080   0.00000  Uiso   1.00
O314   O     0.58570   0.34585   0.36369   0.00000  Uiso   1.00
O315   O     0.53217   0.31305   0.20468   0.00000  Uiso   1.00
O316   O     0.03434   0.96435   0.45142   0.00000  Uiso   1.00
N317   N     0.61421   0.52574   0.39138   0.00000  Uiso   1.00
N318   N     0.57605   0.21497   0.27806   0.00000  Uiso   1.00
N319   N     0.93389   0.96652   0.45388   0.00000  Uiso   1.00
N320   N     0.63293   0.46971   0.32238   0.00000  Uiso   1.00
N321   N     0.59477   0.15894   0.20906   0.00000  Uiso   1.00
N322   N     0.95262   0.91049   0.38488   0.00000  Uiso   1.00
C323   C     0.20642   0.40729   0.38053   0.00000  Uiso   1.00
C324   C     0.18559   0.28844   0.36666   0.00000  Uiso   1.00
C325   C     0.15764   0.21972   0.39343   0.00000  Uiso   1.00
C326   C     0.14205   0.11382   0.37455   0.00000  Uiso   1.00
C327   C     0.10787   0.93474   0.35971   0.00000  Uiso   1.00
C328   C     0.17506   0.47838   0.33542   0.00000  Uiso   1.00
C329   C     0.13827   0.56938   0.33594   0.00000  Uiso   1.00
C330   C     0.11382   0.62339   0.29076   0.00000  Uiso   1.00
C331   C     0.06333   0.73926   0.22744   0.00000  Uiso   1.00
C332   C     0.27368   0.40989   0.38388   0.00000  Uiso   1.00
C333   C     0.31981   0.44334   0.42514   0.00000  Uiso   1.00
C334   C     0.37840   0.43970   0.42076   0.00000  Uiso   1.00
C335   C     0.48103   0.44922   0.43267   0.00000  Uiso   1.00
C336   C     0.22843   0.34140   0.29938   0.00000  Uiso   1.00
C337   C     0.19755   0.25266   0.32258   0.00000  Uiso   1.00
C338   C     0.18200   0.14683   0.30365   0.00000  Uiso   1.00
C339   C     0.15403   0.07797   0.33039   0.00000  Uiso   1.00
C340   C     0.18702   0.44260   0.29135   0.00000  Uiso   1.00
C341   C     0.16263   0.49649   0.24616   0.00000  Uiso   1.00
C342   C     0.12580   0.58754   0.24661   0.00000  Uiso   1.00
C343   C     0.28564   0.37411   0.33981   0.00000  Uiso   1.00
C344   C     0.34417   0.37043   0.33536   0.00000  Uiso   1.00
C345   C     0.39038   0.40385   0.37660   0.00000  Uiso   1.00
H346   H     0.19710   0.43515   0.41484   0.00000  Uiso   1.00
H347   H     0.14839   0.24745   0.42754   0.00000  Uiso   1.00
H348   H     0.12903   0.59706   0.37005   0.00000  Uiso   1.00
H349   H     0.31054   0.47102   0.45924   0.00000  Uiso   1.00
H350   H     0.09963   0.02358   0.42217   0.00000  Uiso   1.00
H351   H     0.05882   0.76078   0.30097   0.00000  Uiso   1.00
H352   H     0.44158   0.49501   0.48903   0.00000  Uiso   1.00
H353   H     0.23775   0.31355   0.26507   0.00000  Uiso   1.00
H354   H     0.19126   0.11916   0.26955   0.00000  Uiso   1.00
H355   H     0.17190   0.46878   0.21206   0.00000  Uiso   1.00
H356   H     0.35341   0.34274   0.30125   0.00000  Uiso   1.00
H357   H     0.13443   0.91946   0.29394   0.00000  Uiso   1.00
H358   H     0.09362   0.65666   0.17273   0.00000  Uiso   1.00
H359   H     0.47638   0.39088   0.36080   0.00000  Uiso   1.00
O360   O     0.08570   0.84585   0.36369   0.00000  Uiso   1.00
O361   O     0.03217   0.81305   0.20468   0.00000  Uiso   1.00
O362   O     0.53434   0.46435   0.45142   0.00000  Uiso   1.00
N363   N     0.11421   0.02574   0.39138   0.00000  Uiso   1.00
N364   N     0.07605   0.71497   0.27806   0.00000  Uiso   1.00
N365   N     0.43389   0.46652   0.45388   0.00000  Uiso   1.00
N366   N     0.13293   0.96971   0.32238   0.00000  Uiso   1.00
N367   N     0.09477   0.65894   0.20906   0.00000  Uiso   1.00
N368   N     0.45262   0.41049   0.38488   0.00000  Uiso   1.00
