data_job_01946
_audit_creation_date              2018-12-19
_audit_creation_method            'Materials Studio'
_symmetry_space_group_name_H-M    'P1'
_symmetry_Int_Tables_number       1
_symmetry_cell_setting            triclinic
loop_
_symmetry_equiv_pos_as_xyz
  x,y,z
_cell_length_a                    25.2973
_cell_length_b                    8.7174
_cell_length_c                    16.5742
_cell_angle_alpha                 90.0000
_cell_angle_beta                  141.5499
_cell_angle_gamma                 90.0000
loop_
_atom_site_label
_atom_site_type_symbol
_atom_site_fract_x
_atom_site_fract_y
_atom_site_fract_z
_atom_site_U_iso_or_equiv
_atom_site_adp_type
_atom_site_occupancy
C1     C     0.23392   0.39739   0.73401   0.00000  Uiso   1.00
C2     C     0.24989   0.45871   0.66828   0.00000  Uiso   1.00
C3     C     0.26636   0.61046   0.66807   0.00000  Uiso   1.00
C4     C     0.27923   0.64331   0.60239   0.00000  Uiso   1.00
C5     C     0.30452   0.75601   0.50989   0.00000  Uiso   1.00
C6     C     0.14783   0.31716   0.62802   0.00000  Uiso   1.00
C7     C     0.07850   0.34990   0.59398   0.00000  Uiso   1.00
C8     C     0.00545   0.26357   0.49443   0.00000  Uiso   1.00
C9     C     0.87232   0.15645   0.33949   0.00000  Uiso   1.00
C10    C     0.29960   0.27134   0.82604   0.00000  Uiso   1.00
C11    C     0.35786   0.26551   0.95848   0.00000  Uiso   1.00
C12    C     0.41259   0.14058   0.02564   0.00000  Uiso   1.00
C13    C     0.51510   0.96232   0.17814   0.00000  Uiso   1.00
C14    C     0.22748   0.18587   0.61775   0.00000  Uiso   1.00
C15    C     0.24639   0.34382   0.60513   0.00000  Uiso   1.00
C16    C     0.25924   0.37644   0.53945   0.00000  Uiso   1.00
C17    C     0.27573   0.52821   0.53914   0.00000  Uiso   1.00
C18    C     0.14433   0.20228   0.56488   0.00000  Uiso   1.00
C19    C     0.07138   0.11588   0.46536   0.00000  Uiso   1.00
C20    C     0.00195   0.14848   0.43117   0.00000  Uiso   1.00
C21    C     0.29611   0.15645   0.76289   0.00000  Uiso   1.00
C22    C     0.35074   0.03150   0.82986   0.00000  Uiso   1.00
C23    C     0.40908   0.02549   0.96238   0.00000  Uiso   1.00
H24    H     0.23663   0.48683   0.78316   0.00000  Uiso   1.00
H25    H     0.26905   0.69934   0.71694   0.00000  Uiso   1.00
H26    H     0.08122   0.43880   0.64287   0.00000  Uiso   1.00
H27    H     0.36055   0.35444   0.00731   0.00000  Uiso   1.00
H28    H     0.30343   0.88429   0.61563   0.00000  Uiso   1.00
H29    H     0.90739   0.33490   0.45948   0.00000  Uiso   1.00
H30    H     0.49640   0.15700   0.22798   0.00000  Uiso   1.00
H31    H     0.22475   0.09642   0.56859   0.00000  Uiso   1.00
H32    H     0.25653   0.28751   0.49059   0.00000  Uiso   1.00
H33    H     0.06870   0.02697   0.41652   0.00000  Uiso   1.00
H34    H     0.34802   0.94261   0.78096   0.00000  Uiso   1.00
H35    H     0.29326   0.55004   0.43191   0.00000  Uiso   1.00
H36    H     0.89721   0.00064   0.27577   0.00000  Uiso   1.00
H37    H     0.48623   0.82274   0.04426   0.00000  Uiso   1.00
O38    O     0.31943   0.84992   0.47629   0.00000  Uiso   1.00
O39    O     0.79985   0.12912   0.27146   0.00000  Uiso   1.00
O40    O     0.57262   0.89573   0.27971   0.00000  Uiso   1.00
N41    N     0.29669   0.77939   0.58311   0.00000  Uiso   1.00
N42    N     0.92641   0.26576   0.43712   0.00000  Uiso   1.00
N43    N     0.47707   0.09942   0.15559   0.00000  Uiso   1.00
N44    N     0.29122   0.59953   0.48426   0.00000  Uiso   1.00
N45    N     0.92094   0.08590   0.33826   0.00000  Uiso   1.00
N46    N     0.47160   0.91956   0.05674   0.00000  Uiso   1.00
C47    C     0.76608   0.89739   0.76599   0.00000  Uiso   1.00
C48    C     0.75011   0.95871   0.83172   0.00000  Uiso   1.00
C49    C     0.73364   0.11046   0.83193   0.00000  Uiso   1.00
C50    C     0.72077   0.14331   0.89761   0.00000  Uiso   1.00
C51    C     0.69548   0.25601   0.99011   0.00000  Uiso   1.00
C52    C     0.85217   0.81716   0.87198   0.00000  Uiso   1.00
C53    C     0.92150   0.84990   0.90602   0.00000  Uiso   1.00
C54    C     0.99455   0.76357   0.00557   0.00000  Uiso   1.00
C55    C     0.12768   0.65645   0.16051   0.00000  Uiso   1.00
C56    C     0.70040   0.77134   0.67396   0.00000  Uiso   1.00
C57    C     0.64214   0.76551   0.54152   0.00000  Uiso   1.00
C58    C     0.58741   0.64058   0.47436   0.00000  Uiso   1.00
C59    C     0.48490   0.46232   0.32186   0.00000  Uiso   1.00
C60    C     0.77252   0.68587   0.88225   0.00000  Uiso   1.00
C61    C     0.75361   0.84382   0.89487   0.00000  Uiso   1.00
C62    C     0.74076   0.87644   0.96055   0.00000  Uiso   1.00
C63    C     0.72427   0.02821   0.96086   0.00000  Uiso   1.00
C64    C     0.85567   0.70228   0.93512   0.00000  Uiso   1.00
C65    C     0.92862   0.61588   0.03464   0.00000  Uiso   1.00
C66    C     0.99805   0.64848   0.06883   0.00000  Uiso   1.00
C67    C     0.70389   0.65645   0.73711   0.00000  Uiso   1.00
C68    C     0.64926   0.53150   0.67014   0.00000  Uiso   1.00
C69    C     0.59092   0.52549   0.53762   0.00000  Uiso   1.00
H70    H     0.76337   0.98683   0.71684   0.00000  Uiso   1.00
H71    H     0.73095   0.19934   0.78306   0.00000  Uiso   1.00
H72    H     0.91878   0.93880   0.85713   0.00000  Uiso   1.00
H73    H     0.63945   0.85444   0.49269   0.00000  Uiso   1.00
H74    H     0.69657   0.38429   0.88437   0.00000  Uiso   1.00
H75    H     0.09261   0.83490   0.04052   0.00000  Uiso   1.00
H76    H     0.50360   0.65700   0.27202   0.00000  Uiso   1.00
H77    H     0.77525   0.59642   0.93141   0.00000  Uiso   1.00
H78    H     0.74347   0.78751   0.00941   0.00000  Uiso   1.00
H79    H     0.93130   0.52697   0.08348   0.00000  Uiso   1.00
H80    H     0.65198   0.44261   0.71904   0.00000  Uiso   1.00
H81    H     0.70674   0.05004   0.06809   0.00000  Uiso   1.00
H82    H     0.10279   0.50064   0.22423   0.00000  Uiso   1.00
H83    H     0.51377   0.32274   0.45574   0.00000  Uiso   1.00
O84    O     0.68057   0.34992   0.02371   0.00000  Uiso   1.00
O85    O     0.20015   0.62912   0.22854   0.00000  Uiso   1.00
O86    O     0.42738   0.39573   0.22029   0.00000  Uiso   1.00
N87    N     0.70331   0.27939   0.91689   0.00000  Uiso   1.00
N88    N     0.07359   0.76576   0.06288   0.00000  Uiso   1.00
N89    N     0.52293   0.59942   0.34441   0.00000  Uiso   1.00
N90    N     0.70878   0.09953   0.01574   0.00000  Uiso   1.00
N91    N     0.07906   0.58590   0.16174   0.00000  Uiso   1.00
N92    N     0.52840   0.41956   0.44326   0.00000  Uiso   1.00
C93    C     0.76608   0.60261   0.26599   0.00000  Uiso   1.00
C94    C     0.75011   0.54129   0.33172   0.00000  Uiso   1.00
C95    C     0.73364   0.38954   0.33193   0.00000  Uiso   1.00
C96    C     0.72077   0.35669   0.39761   0.00000  Uiso   1.00
C97    C     0.69548   0.24399   0.49011   0.00000  Uiso   1.00
C98    C     0.85217   0.68284   0.37198   0.00000  Uiso   1.00
C99    C     0.92150   0.65010   0.40602   0.00000  Uiso   1.00
C100   C     0.99455   0.73643   0.50557   0.00000  Uiso   1.00
C101   C     0.12768   0.84355   0.66051   0.00000  Uiso   1.00
C102   C     0.70040   0.72866   0.17396   0.00000  Uiso   1.00
C103   C     0.64214   0.73449   0.04152   0.00000  Uiso   1.00
C104   C     0.58741   0.85942   0.97436   0.00000  Uiso   1.00
C105   C     0.48490   0.03768   0.82186   0.00000  Uiso   1.00
C106   C     0.77252   0.81413   0.38225   0.00000  Uiso   1.00
C107   C     0.75361   0.65618   0.39487   0.00000  Uiso   1.00
C108   C     0.74076   0.62356   0.46055   0.00000  Uiso   1.00
C109   C     0.72427   0.47179   0.46086   0.00000  Uiso   1.00
C110   C     0.85567   0.79772   0.43512   0.00000  Uiso   1.00
C111   C     0.92862   0.88412   0.53464   0.00000  Uiso   1.00
C112   C     0.99805   0.85152   0.56883   0.00000  Uiso   1.00
C113   C     0.70389   0.84355   0.23711   0.00000  Uiso   1.00
C114   C     0.64926   0.96850   0.17014   0.00000  Uiso   1.00
C115   C     0.59092   0.97451   0.03762   0.00000  Uiso   1.00
H116   H     0.76337   0.51317   0.21684   0.00000  Uiso   1.00
H117   H     0.73095   0.30066   0.28306   0.00000  Uiso   1.00
H118   H     0.91878   0.56120   0.35713   0.00000  Uiso   1.00
H119   H     0.63945   0.64556   0.99269   0.00000  Uiso   1.00
H120   H     0.69657   0.11571   0.38437   0.00000  Uiso   1.00
H121   H     0.09261   0.66510   0.54052   0.00000  Uiso   1.00
H122   H     0.50360   0.84300   0.77202   0.00000  Uiso   1.00
H123   H     0.77525   0.90358   0.43141   0.00000  Uiso   1.00
H124   H     0.74347   0.71249   0.50941   0.00000  Uiso   1.00
H125   H     0.93130   0.97303   0.58348   0.00000  Uiso   1.00
H126   H     0.65198   0.05739   0.21904   0.00000  Uiso   1.00
H127   H     0.70674   0.44996   0.56809   0.00000  Uiso   1.00
H128   H     0.10279   0.99936   0.72423   0.00000  Uiso   1.00
H129   H     0.51377   0.17726   0.95574   0.00000  Uiso   1.00
O130   O     0.68057   0.15008   0.52371   0.00000  Uiso   1.00
O131   O     0.20015   0.87088   0.72854   0.00000  Uiso   1.00
O132   O     0.42738   0.10427   0.72029   0.00000  Uiso   1.00
N133   N     0.70331   0.22061   0.41689   0.00000  Uiso   1.00
N134   N     0.07359   0.73424   0.56288   0.00000  Uiso   1.00
N135   N     0.52293   0.90058   0.84441   0.00000  Uiso   1.00
N136   N     0.70878   0.40047   0.51574   0.00000  Uiso   1.00
N137   N     0.07906   0.91410   0.66174   0.00000  Uiso   1.00
N138   N     0.52840   0.08044   0.94326   0.00000  Uiso   1.00
C139   C     0.23392   0.10261   0.23401   0.00000  Uiso   1.00
C140   C     0.24989   0.04129   0.16828   0.00000  Uiso   1.00
C141   C     0.26636   0.88954   0.16807   0.00000  Uiso   1.00
C142   C     0.27923   0.85669   0.10239   0.00000  Uiso   1.00
C143   C     0.30452   0.74399   0.00989   0.00000  Uiso   1.00
C144   C     0.14783   0.18284   0.12802   0.00000  Uiso   1.00
C145   C     0.07850   0.15010   0.09398   0.00000  Uiso   1.00
C146   C     0.00545   0.23643   0.99443   0.00000  Uiso   1.00
C147   C     0.87232   0.34355   0.83949   0.00000  Uiso   1.00
C148   C     0.29960   0.22866   0.32604   0.00000  Uiso   1.00
C149   C     0.35786   0.23449   0.45848   0.00000  Uiso   1.00
C150   C     0.41259   0.35942   0.52564   0.00000  Uiso   1.00
C151   C     0.51510   0.53768   0.67814   0.00000  Uiso   1.00
C152   C     0.22748   0.31413   0.11775   0.00000  Uiso   1.00
C153   C     0.24639   0.15618   0.10513   0.00000  Uiso   1.00
C154   C     0.25924   0.12356   0.03945   0.00000  Uiso   1.00
C155   C     0.27573   0.97179   0.03914   0.00000  Uiso   1.00
C156   C     0.14433   0.29772   0.06488   0.00000  Uiso   1.00
C157   C     0.07138   0.38412   0.96536   0.00000  Uiso   1.00
C158   C     0.00195   0.35152   0.93117   0.00000  Uiso   1.00
C159   C     0.29611   0.34355   0.26289   0.00000  Uiso   1.00
C160   C     0.35074   0.46850   0.32986   0.00000  Uiso   1.00
C161   C     0.40908   0.47451   0.46238   0.00000  Uiso   1.00
H162   H     0.23663   0.01317   0.28316   0.00000  Uiso   1.00
H163   H     0.26905   0.80066   0.21694   0.00000  Uiso   1.00
H164   H     0.08122   0.06120   0.14287   0.00000  Uiso   1.00
H165   H     0.36055   0.14556   0.50731   0.00000  Uiso   1.00
H166   H     0.30343   0.61571   0.11563   0.00000  Uiso   1.00
H167   H     0.90739   0.16510   0.95948   0.00000  Uiso   1.00
H168   H     0.49640   0.34300   0.72798   0.00000  Uiso   1.00
H169   H     0.22475   0.40358   0.06859   0.00000  Uiso   1.00
H170   H     0.25653   0.21249   0.99059   0.00000  Uiso   1.00
H171   H     0.06870   0.47303   0.91652   0.00000  Uiso   1.00
H172   H     0.34802   0.55739   0.28096   0.00000  Uiso   1.00
H173   H     0.29326   0.94996   0.93191   0.00000  Uiso   1.00
H174   H     0.89721   0.49936   0.77577   0.00000  Uiso   1.00
H175   H     0.48623   0.67726   0.54426   0.00000  Uiso   1.00
O176   O     0.31943   0.65008   0.97629   0.00000  Uiso   1.00
O177   O     0.79985   0.37088   0.77146   0.00000  Uiso   1.00
O178   O     0.57262   0.60427   0.77971   0.00000  Uiso   1.00
N179   N     0.29669   0.72061   0.08311   0.00000  Uiso   1.00
N180   N     0.92641   0.23424   0.93712   0.00000  Uiso   1.00
N181   N     0.47707   0.40058   0.65559   0.00000  Uiso   1.00
N182   N     0.29122   0.90047   0.98426   0.00000  Uiso   1.00
N183   N     0.92094   0.41410   0.83826   0.00000  Uiso   1.00
N184   N     0.47160   0.58044   0.55674   0.00000  Uiso   1.00
