data_job_05622
_audit_creation_date              2018-12-19
_audit_creation_method            'Materials Studio'
_symmetry_space_group_name_H-M    'P1'
_symmetry_Int_Tables_number       1
_symmetry_cell_setting            triclinic
loop_
_symmetry_equiv_pos_as_xyz
  x,y,z
_cell_length_a                    20.6269
_cell_length_b                    20.6269
_cell_length_c                    23.7979
_cell_angle_alpha                 90.0000
_cell_angle_beta                  90.0000
_cell_angle_gamma                 120.0000
loop_
_atom_site_label
_atom_site_type_symbol
_atom_site_fract_x
_atom_site_fract_y
_atom_site_fract_z
_atom_site_U_iso_or_equiv
_atom_site_adp_type
_atom_site_occupancy
C1     C     0.72740   0.99519   0.88870   0.00000  Uiso   1.00
C2     C     0.64392   0.96345   0.89890   0.00000  Uiso   1.00
C3     C     0.59580   0.89495   0.92365   0.00000  Uiso   1.00
C4     C     0.52137   0.87605   0.92920   0.00000  Uiso   1.00
C5     C     0.39559   0.81945   0.94783   0.00000  Uiso   1.00
C6     C     0.73952   0.01144   0.82589   0.00000  Uiso   1.00
C7     C     0.77179   0.98331   0.78926   0.00000  Uiso   1.00
C8     C     0.77785   0.00482   0.73334   0.00000  Uiso   1.00
C9     C     0.80053   0.02277   0.63863   0.00000  Uiso   1.00
C10    C     0.76683   0.07116   0.91790   0.00000  Uiso   1.00
C11    C     0.82208   0.09325   0.95862   0.00000  Uiso   1.00
C12    C     0.85116   0.16506   0.98015   0.00000  Uiso   1.00
C13    C     0.91625   0.27574   0.02830   0.00000  Uiso   1.00
C14    C     0.68080   0.08344   0.85454   0.00000  Uiso   1.00
C15    C     0.61861   0.01138   0.88035   0.00000  Uiso   1.00
C16    C     0.54424   0.99258   0.88586   0.00000  Uiso   1.00
C17    C     0.49602   0.92407   0.91061   0.00000  Uiso   1.00
C18    C     0.71421   0.05937   0.80734   0.00000  Uiso   1.00
C19    C     0.72023   0.08094   0.75146   0.00000  Uiso   1.00
C20    C     0.75249   0.05284   0.71475   0.00000  Uiso   1.00
C21    C     0.74152   0.11909   0.89934   0.00000  Uiso   1.00
C22    C     0.77052   0.19088   0.92082   0.00000  Uiso   1.00
C23    C     0.82580   0.21308   0.96156   0.00000  Uiso   1.00
H24    H     0.74711   0.95788   0.90315   0.00000  Uiso   1.00
H25    H     0.61541   0.85787   0.93800   0.00000  Uiso   1.00
H26    H     0.79138   0.94622   0.80363   0.00000  Uiso   1.00
H27    H     0.84166   0.05615   0.97296   0.00000  Uiso   1.00
H28    H     0.45822   0.76812   0.96845   0.00000  Uiso   1.00
H29    H     0.82928   0.95443   0.68512   0.00000  Uiso   1.00
H30    H     0.93532   0.18623   0.04219   0.00000  Uiso   1.00
H31    H     0.66110   0.12076   0.84009   0.00000  Uiso   1.00
H32    H     0.52467   0.02968   0.87149   0.00000  Uiso   1.00
H33    H     0.70064   0.11803   0.73712   0.00000  Uiso   1.00
H34    H     0.75092   0.22796   0.90645   0.00000  Uiso   1.00
H35    H     0.38457   0.90757   0.91446   0.00000  Uiso   1.00
H36    H     0.75564   0.09388   0.63113   0.00000  Uiso   1.00
H37    H     0.86167   0.32568   0.98820   0.00000  Uiso   1.00
O38    O     0.33320   0.77499   0.96323   0.00000  Uiso   1.00
O39    O     0.82003   0.01943   0.59152   0.00000  Uiso   1.00
O40    O     0.95914   0.32354   0.05999   0.00000  Uiso   1.00
N41    N     0.45961   0.81344   0.95144   0.00000  Uiso   1.00
N42    N     0.80653   0.98762   0.68655   0.00000  Uiso   1.00
N43    N     0.90567   0.20435   0.02037   0.00000  Uiso   1.00
N44    N     0.41998   0.88848   0.92239   0.00000  Uiso   1.00
N45    N     0.76690   0.06266   0.65750   0.00000  Uiso   1.00
N46    N     0.86604   0.27938   0.99132   0.00000  Uiso   1.00
C47    C     0.00481   0.73221   0.88870   0.00000  Uiso   1.00
C48    C     0.03655   0.68047   0.89890   0.00000  Uiso   1.00
C49    C     0.10505   0.70085   0.92365   0.00000  Uiso   1.00
C50    C     0.12395   0.64532   0.92920   0.00000  Uiso   1.00
C51    C     0.18055   0.57614   0.94783   0.00000  Uiso   1.00
C52    C     0.98856   0.72808   0.82589   0.00000  Uiso   1.00
C53    C     0.01669   0.78848   0.78926   0.00000  Uiso   1.00
C54    C     0.99518   0.77303   0.73334   0.00000  Uiso   1.00
C55    C     0.97723   0.77776   0.63863   0.00000  Uiso   1.00
C56    C     0.92884   0.69567   0.91790   0.00000  Uiso   1.00
C57    C     0.90675   0.72883   0.95862   0.00000  Uiso   1.00
C58    C     0.83494   0.68610   0.98015   0.00000  Uiso   1.00
C59    C     0.72426   0.64051   0.02830   0.00000  Uiso   1.00
C60    C     0.91656   0.59736   0.85454   0.00000  Uiso   1.00
C61    C     0.98862   0.60723   0.88035   0.00000  Uiso   1.00
C62    C     0.00742   0.55166   0.88586   0.00000  Uiso   1.00
C63    C     0.07593   0.57194   0.91061   0.00000  Uiso   1.00
C64    C     0.94063   0.65484   0.80734   0.00000  Uiso   1.00
C65    C     0.91906   0.63929   0.75146   0.00000  Uiso   1.00
C66    C     0.94716   0.69965   0.71475   0.00000  Uiso   1.00
C67    C     0.88091   0.62243   0.89934   0.00000  Uiso   1.00
C68    C     0.80912   0.57964   0.92082   0.00000  Uiso   1.00
C69    C     0.78692   0.61272   0.96156   0.00000  Uiso   1.00
H70    H     0.04212   0.78923   0.90315   0.00000  Uiso   1.00
H71    H     0.14213   0.75754   0.93800   0.00000  Uiso   1.00
H72    H     0.05378   0.84515   0.80363   0.00000  Uiso   1.00
H73    H     0.94385   0.78551   0.97296   0.00000  Uiso   1.00
H74    H     0.23188   0.69010   0.96845   0.00000  Uiso   1.00
H75    H     0.04557   0.87486   0.68512   0.00000  Uiso   1.00
H76    H     0.81377   0.74908   0.04219   0.00000  Uiso   1.00
H77    H     0.87924   0.54034   0.84009   0.00000  Uiso   1.00
H78    H     0.97032   0.49498   0.87149   0.00000  Uiso   1.00
H79    H     0.88197   0.58261   0.73712   0.00000  Uiso   1.00
H80    H     0.77204   0.52296   0.90645   0.00000  Uiso   1.00
H81    H     0.09243   0.47700   0.91446   0.00000  Uiso   1.00
H82    H     0.90612   0.66176   0.63113   0.00000  Uiso   1.00
H83    H     0.67432   0.53599   0.98820   0.00000  Uiso   1.00
O84    O     0.22501   0.55821   0.96323   0.00000  Uiso   1.00
O85    O     0.98057   0.80061   0.59152   0.00000  Uiso   1.00
O86    O     0.67646   0.63560   0.05999   0.00000  Uiso   1.00
N87    N     0.18656   0.64617   0.95144   0.00000  Uiso   1.00
N88    N     0.01238   0.81890   0.68655   0.00000  Uiso   1.00
N89    N     0.79565   0.70132   0.02037   0.00000  Uiso   1.00
N90    N     0.11152   0.53150   0.92239   0.00000  Uiso   1.00
N91    N     0.93734   0.70424   0.65750   0.00000  Uiso   1.00
N92    N     0.72062   0.58666   0.99132   0.00000  Uiso   1.00
C93    C     0.26779   0.27260   0.88870   0.00000  Uiso   1.00
C94    C     0.31953   0.35608   0.89890   0.00000  Uiso   1.00
C95    C     0.29915   0.40420   0.92365   0.00000  Uiso   1.00
C96    C     0.35468   0.47863   0.92920   0.00000  Uiso   1.00
C97    C     0.42386   0.60441   0.94783   0.00000  Uiso   1.00
C98    C     0.27192   0.26048   0.82589   0.00000  Uiso   1.00
C99    C     0.21152   0.22821   0.78926   0.00000  Uiso   1.00
C100   C     0.22697   0.22215   0.73334   0.00000  Uiso   1.00
C101   C     0.22224   0.19947   0.63863   0.00000  Uiso   1.00
C102   C     0.30433   0.23317   0.91790   0.00000  Uiso   1.00
C103   C     0.27117   0.17792   0.95862   0.00000  Uiso   1.00
C104   C     0.31390   0.14884   0.98015   0.00000  Uiso   1.00
C105   C     0.35949   0.08375   0.02830   0.00000  Uiso   1.00
C106   C     0.40264   0.31920   0.85454   0.00000  Uiso   1.00
C107   C     0.39277   0.38139   0.88035   0.00000  Uiso   1.00
C108   C     0.44834   0.45576   0.88586   0.00000  Uiso   1.00
C109   C     0.42806   0.50398   0.91061   0.00000  Uiso   1.00
C110   C     0.34516   0.28579   0.80734   0.00000  Uiso   1.00
C111   C     0.36071   0.27977   0.75146   0.00000  Uiso   1.00
C112   C     0.30035   0.24751   0.71475   0.00000  Uiso   1.00
C113   C     0.37757   0.25848   0.89934   0.00000  Uiso   1.00
C114   C     0.42036   0.22948   0.92082   0.00000  Uiso   1.00
C115   C     0.38728   0.17420   0.96156   0.00000  Uiso   1.00
H116   H     0.21077   0.25289   0.90315   0.00000  Uiso   1.00
H117   H     0.24246   0.38459   0.93800   0.00000  Uiso   1.00
H118   H     0.15485   0.20862   0.80363   0.00000  Uiso   1.00
H119   H     0.21449   0.15834   0.97296   0.00000  Uiso   1.00
H120   H     0.30990   0.54178   0.96845   0.00000  Uiso   1.00
H121   H     0.12514   0.17072   0.68512   0.00000  Uiso   1.00
H122   H     0.25092   0.06468   0.04219   0.00000  Uiso   1.00
H123   H     0.45966   0.33890   0.84009   0.00000  Uiso   1.00
H124   H     0.50502   0.47533   0.87149   0.00000  Uiso   1.00
H125   H     0.41739   0.29936   0.73712   0.00000  Uiso   1.00
H126   H     0.47704   0.24908   0.90645   0.00000  Uiso   1.00
H127   H     0.52300   0.61543   0.91446   0.00000  Uiso   1.00
H128   H     0.33824   0.24436   0.63113   0.00000  Uiso   1.00
H129   H     0.46401   0.13833   0.98820   0.00000  Uiso   1.00
O130   O     0.44179   0.66680   0.96323   0.00000  Uiso   1.00
O131   O     0.19939   0.17997   0.59152   0.00000  Uiso   1.00
O132   O     0.36440   0.04086   0.05999   0.00000  Uiso   1.00
N133   N     0.35383   0.54039   0.95144   0.00000  Uiso   1.00
N134   N     0.18110   0.19347   0.68655   0.00000  Uiso   1.00
N135   N     0.29868   0.09433   0.02037   0.00000  Uiso   1.00
N136   N     0.46850   0.58002   0.92239   0.00000  Uiso   1.00
N137   N     0.29576   0.23310   0.65750   0.00000  Uiso   1.00
N138   N     0.41334   0.13396   0.99132   0.00000  Uiso   1.00
C139   C     0.27260   0.00481   0.38870   0.00000  Uiso   1.00
C140   C     0.35608   0.03655   0.39890   0.00000  Uiso   1.00
C141   C     0.40420   0.10505   0.42365   0.00000  Uiso   1.00
C142   C     0.47863   0.12395   0.42920   0.00000  Uiso   1.00
C143   C     0.60441   0.18055   0.44783   0.00000  Uiso   1.00
C144   C     0.26048   0.98856   0.32589   0.00000  Uiso   1.00
C145   C     0.22821   0.01669   0.28926   0.00000  Uiso   1.00
C146   C     0.22215   0.99518   0.23334   0.00000  Uiso   1.00
C147   C     0.19947   0.97723   0.13863   0.00000  Uiso   1.00
C148   C     0.23317   0.92884   0.41790   0.00000  Uiso   1.00
C149   C     0.17792   0.90675   0.45862   0.00000  Uiso   1.00
C150   C     0.14884   0.83494   0.48015   0.00000  Uiso   1.00
C151   C     0.08375   0.72426   0.52830   0.00000  Uiso   1.00
C152   C     0.31920   0.91656   0.35454   0.00000  Uiso   1.00
C153   C     0.38139   0.98862   0.38035   0.00000  Uiso   1.00
C154   C     0.45576   0.00742   0.38586   0.00000  Uiso   1.00
C155   C     0.50398   0.07593   0.41061   0.00000  Uiso   1.00
C156   C     0.28579   0.94063   0.30734   0.00000  Uiso   1.00
C157   C     0.27977   0.91906   0.25146   0.00000  Uiso   1.00
C158   C     0.24751   0.94716   0.21475   0.00000  Uiso   1.00
C159   C     0.25848   0.88091   0.39934   0.00000  Uiso   1.00
C160   C     0.22948   0.80912   0.42082   0.00000  Uiso   1.00
C161   C     0.17420   0.78692   0.46156   0.00000  Uiso   1.00
H162   H     0.25289   0.04212   0.40315   0.00000  Uiso   1.00
H163   H     0.38459   0.14213   0.43800   0.00000  Uiso   1.00
H164   H     0.20862   0.05378   0.30363   0.00000  Uiso   1.00
H165   H     0.15834   0.94385   0.47296   0.00000  Uiso   1.00
H166   H     0.54178   0.23188   0.46845   0.00000  Uiso   1.00
H167   H     0.17072   0.04557   0.18512   0.00000  Uiso   1.00
H168   H     0.06468   0.81377   0.54219   0.00000  Uiso   1.00
H169   H     0.33890   0.87924   0.34009   0.00000  Uiso   1.00
H170   H     0.47533   0.97032   0.37149   0.00000  Uiso   1.00
H171   H     0.29936   0.88197   0.23712   0.00000  Uiso   1.00
H172   H     0.24908   0.77204   0.40645   0.00000  Uiso   1.00
H173   H     0.61543   0.09243   0.41446   0.00000  Uiso   1.00
H174   H     0.24436   0.90612   0.13113   0.00000  Uiso   1.00
H175   H     0.13833   0.67432   0.48820   0.00000  Uiso   1.00
O176   O     0.66680   0.22501   0.46323   0.00000  Uiso   1.00
O177   O     0.17997   0.98057   0.09152   0.00000  Uiso   1.00
O178   O     0.04086   0.67646   0.55999   0.00000  Uiso   1.00
N179   N     0.54039   0.18656   0.45144   0.00000  Uiso   1.00
N180   N     0.19347   0.01238   0.18655   0.00000  Uiso   1.00
N181   N     0.09433   0.79565   0.52037   0.00000  Uiso   1.00
N182   N     0.58002   0.11152   0.42239   0.00000  Uiso   1.00
N183   N     0.23310   0.93734   0.15750   0.00000  Uiso   1.00
N184   N     0.13396   0.72062   0.49132   0.00000  Uiso   1.00
C185   C     0.99519   0.26779   0.38870   0.00000  Uiso   1.00
C186   C     0.96345   0.31953   0.39890   0.00000  Uiso   1.00
C187   C     0.89495   0.29915   0.42365   0.00000  Uiso   1.00
C188   C     0.87605   0.35468   0.42920   0.00000  Uiso   1.00
C189   C     0.81945   0.42386   0.44783   0.00000  Uiso   1.00
C190   C     0.01144   0.27192   0.32589   0.00000  Uiso   1.00
C191   C     0.98331   0.21152   0.28926   0.00000  Uiso   1.00
C192   C     0.00482   0.22697   0.23334   0.00000  Uiso   1.00
C193   C     0.02277   0.22224   0.13863   0.00000  Uiso   1.00
C194   C     0.07116   0.30433   0.41790   0.00000  Uiso   1.00
C195   C     0.09325   0.27117   0.45862   0.00000  Uiso   1.00
C196   C     0.16506   0.31390   0.48015   0.00000  Uiso   1.00
C197   C     0.27574   0.35949   0.52830   0.00000  Uiso   1.00
C198   C     0.08344   0.40264   0.35454   0.00000  Uiso   1.00
C199   C     0.01138   0.39277   0.38035   0.00000  Uiso   1.00
C200   C     0.99258   0.44834   0.38586   0.00000  Uiso   1.00
C201   C     0.92407   0.42806   0.41061   0.00000  Uiso   1.00
C202   C     0.05937   0.34516   0.30734   0.00000  Uiso   1.00
C203   C     0.08094   0.36071   0.25146   0.00000  Uiso   1.00
C204   C     0.05284   0.30035   0.21475   0.00000  Uiso   1.00
C205   C     0.11909   0.37757   0.39934   0.00000  Uiso   1.00
C206   C     0.19088   0.42036   0.42082   0.00000  Uiso   1.00
C207   C     0.21308   0.38728   0.46156   0.00000  Uiso   1.00
H208   H     0.95788   0.21077   0.40315   0.00000  Uiso   1.00
H209   H     0.85787   0.24246   0.43800   0.00000  Uiso   1.00
H210   H     0.94622   0.15485   0.30363   0.00000  Uiso   1.00
H211   H     0.05615   0.21449   0.47296   0.00000  Uiso   1.00
H212   H     0.76812   0.30990   0.46845   0.00000  Uiso   1.00
H213   H     0.95443   0.12514   0.18512   0.00000  Uiso   1.00
H214   H     0.18623   0.25092   0.54219   0.00000  Uiso   1.00
H215   H     0.12076   0.45966   0.34009   0.00000  Uiso   1.00
H216   H     0.02968   0.50502   0.37149   0.00000  Uiso   1.00
H217   H     0.11803   0.41739   0.23712   0.00000  Uiso   1.00
H218   H     0.22796   0.47704   0.40645   0.00000  Uiso   1.00
H219   H     0.90757   0.52300   0.41446   0.00000  Uiso   1.00
H220   H     0.09388   0.33824   0.13113   0.00000  Uiso   1.00
H221   H     0.32568   0.46401   0.48820   0.00000  Uiso   1.00
O222   O     0.77499   0.44179   0.46323   0.00000  Uiso   1.00
O223   O     0.01943   0.19939   0.09152   0.00000  Uiso   1.00
O224   O     0.32354   0.36440   0.55999   0.00000  Uiso   1.00
N225   N     0.81344   0.35383   0.45144   0.00000  Uiso   1.00
N226   N     0.98762   0.18110   0.18655   0.00000  Uiso   1.00
N227   N     0.20435   0.29868   0.52037   0.00000  Uiso   1.00
N228   N     0.88848   0.46850   0.42239   0.00000  Uiso   1.00
N229   N     0.06266   0.29576   0.15750   0.00000  Uiso   1.00
N230   N     0.27938   0.41334   0.49132   0.00000  Uiso   1.00
C231   C     0.73221   0.72740   0.38870   0.00000  Uiso   1.00
C232   C     0.68047   0.64392   0.39890   0.00000  Uiso   1.00
C233   C     0.70085   0.59580   0.42365   0.00000  Uiso   1.00
C234   C     0.64532   0.52137   0.42920   0.00000  Uiso   1.00
C235   C     0.57614   0.39559   0.44783   0.00000  Uiso   1.00
C236   C     0.72808   0.73952   0.32589   0.00000  Uiso   1.00
C237   C     0.78848   0.77179   0.28926   0.00000  Uiso   1.00
C238   C     0.77303   0.77785   0.23334   0.00000  Uiso   1.00
C239   C     0.77776   0.80053   0.13863   0.00000  Uiso   1.00
C240   C     0.69567   0.76683   0.41790   0.00000  Uiso   1.00
C241   C     0.72883   0.82208   0.45862   0.00000  Uiso   1.00
C242   C     0.68610   0.85116   0.48015   0.00000  Uiso   1.00
C243   C     0.64051   0.91625   0.52830   0.00000  Uiso   1.00
C244   C     0.59736   0.68080   0.35454   0.00000  Uiso   1.00
C245   C     0.60723   0.61861   0.38035   0.00000  Uiso   1.00
C246   C     0.55166   0.54424   0.38586   0.00000  Uiso   1.00
C247   C     0.57194   0.49602   0.41061   0.00000  Uiso   1.00
C248   C     0.65484   0.71421   0.30734   0.00000  Uiso   1.00
C249   C     0.63929   0.72023   0.25146   0.00000  Uiso   1.00
C250   C     0.69965   0.75249   0.21475   0.00000  Uiso   1.00
C251   C     0.62243   0.74152   0.39934   0.00000  Uiso   1.00
C252   C     0.57964   0.77052   0.42082   0.00000  Uiso   1.00
C253   C     0.61272   0.82580   0.46156   0.00000  Uiso   1.00
H254   H     0.78923   0.74711   0.40315   0.00000  Uiso   1.00
H255   H     0.75754   0.61541   0.43800   0.00000  Uiso   1.00
H256   H     0.84515   0.79138   0.30363   0.00000  Uiso   1.00
H257   H     0.78551   0.84166   0.47296   0.00000  Uiso   1.00
H258   H     0.69010   0.45822   0.46845   0.00000  Uiso   1.00
H259   H     0.87486   0.82928   0.18512   0.00000  Uiso   1.00
H260   H     0.74908   0.93532   0.54219   0.00000  Uiso   1.00
H261   H     0.54034   0.66110   0.34009   0.00000  Uiso   1.00
H262   H     0.49498   0.52467   0.37149   0.00000  Uiso   1.00
H263   H     0.58261   0.70064   0.23712   0.00000  Uiso   1.00
H264   H     0.52296   0.75092   0.40645   0.00000  Uiso   1.00
H265   H     0.47700   0.38457   0.41446   0.00000  Uiso   1.00
H266   H     0.66176   0.75564   0.13113   0.00000  Uiso   1.00
H267   H     0.53599   0.86167   0.48820   0.00000  Uiso   1.00
O268   O     0.55821   0.33320   0.46323   0.00000  Uiso   1.00
O269   O     0.80061   0.82003   0.09152   0.00000  Uiso   1.00
O270   O     0.63560   0.95914   0.55999   0.00000  Uiso   1.00
N271   N     0.64617   0.45961   0.45144   0.00000  Uiso   1.00
N272   N     0.81890   0.80653   0.18655   0.00000  Uiso   1.00
N273   N     0.70132   0.90567   0.52037   0.00000  Uiso   1.00
N274   N     0.53150   0.41998   0.42239   0.00000  Uiso   1.00
N275   N     0.70424   0.76690   0.15750   0.00000  Uiso   1.00
N276   N     0.58666   0.86604   0.49132   0.00000  Uiso   1.00
C277   C     0.99519   0.72740   0.11130   0.00000  Uiso   1.00
C278   C     0.96345   0.64392   0.10110   0.00000  Uiso   1.00
C279   C     0.89495   0.59580   0.07635   0.00000  Uiso   1.00
C280   C     0.87605   0.52137   0.07080   0.00000  Uiso   1.00
C281   C     0.81945   0.39559   0.05217   0.00000  Uiso   1.00
C282   C     0.01144   0.73952   0.17411   0.00000  Uiso   1.00
C283   C     0.98331   0.77179   0.21074   0.00000  Uiso   1.00
C284   C     0.00482   0.77785   0.26666   0.00000  Uiso   1.00
C285   C     0.02277   0.80053   0.36137   0.00000  Uiso   1.00
C286   C     0.07116   0.76683   0.08210   0.00000  Uiso   1.00
C287   C     0.09325   0.82208   0.04138   0.00000  Uiso   1.00
C288   C     0.16506   0.85116   0.01985   0.00000  Uiso   1.00
C289   C     0.27574   0.91625   0.97170   0.00000  Uiso   1.00
C290   C     0.08344   0.68080   0.14546   0.00000  Uiso   1.00
C291   C     0.01138   0.61861   0.11965   0.00000  Uiso   1.00
C292   C     0.99258   0.54424   0.11414   0.00000  Uiso   1.00
C293   C     0.92407   0.49602   0.08939   0.00000  Uiso   1.00
C294   C     0.05937   0.71421   0.19266   0.00000  Uiso   1.00
C295   C     0.08094   0.72023   0.24854   0.00000  Uiso   1.00
C296   C     0.05284   0.75249   0.28525   0.00000  Uiso   1.00
C297   C     0.11909   0.74152   0.10066   0.00000  Uiso   1.00
C298   C     0.19088   0.77052   0.07918   0.00000  Uiso   1.00
C299   C     0.21308   0.82580   0.03844   0.00000  Uiso   1.00
H300   H     0.95788   0.74711   0.09685   0.00000  Uiso   1.00
H301   H     0.85787   0.61541   0.06200   0.00000  Uiso   1.00
H302   H     0.94622   0.79138   0.19637   0.00000  Uiso   1.00
H303   H     0.05615   0.84166   0.02704   0.00000  Uiso   1.00
H304   H     0.76812   0.45822   0.03155   0.00000  Uiso   1.00
H305   H     0.95443   0.82928   0.31488   0.00000  Uiso   1.00
H306   H     0.18623   0.93532   0.95781   0.00000  Uiso   1.00
H307   H     0.12076   0.66110   0.15991   0.00000  Uiso   1.00
H308   H     0.02968   0.52467   0.12851   0.00000  Uiso   1.00
H309   H     0.11803   0.70064   0.26288   0.00000  Uiso   1.00
H310   H     0.22796   0.75092   0.09355   0.00000  Uiso   1.00
H311   H     0.90757   0.38457   0.08554   0.00000  Uiso   1.00
H312   H     0.09388   0.75564   0.36887   0.00000  Uiso   1.00
H313   H     0.32568   0.86167   0.01180   0.00000  Uiso   1.00
O314   O     0.77499   0.33320   0.03677   0.00000  Uiso   1.00
O315   O     0.01943   0.82003   0.40848   0.00000  Uiso   1.00
O316   O     0.32354   0.95914   0.94001   0.00000  Uiso   1.00
N317   N     0.81344   0.45961   0.04856   0.00000  Uiso   1.00
N318   N     0.98762   0.80653   0.31345   0.00000  Uiso   1.00
N319   N     0.20435   0.90567   0.97963   0.00000  Uiso   1.00
N320   N     0.88848   0.41998   0.07761   0.00000  Uiso   1.00
N321   N     0.06266   0.76690   0.34250   0.00000  Uiso   1.00
N322   N     0.27938   0.86604   0.00868   0.00000  Uiso   1.00
C323   C     0.73221   0.00481   0.11130   0.00000  Uiso   1.00
C324   C     0.68047   0.03655   0.10110   0.00000  Uiso   1.00
C325   C     0.70085   0.10505   0.07635   0.00000  Uiso   1.00
C326   C     0.64532   0.12395   0.07080   0.00000  Uiso   1.00
C327   C     0.57614   0.18055   0.05217   0.00000  Uiso   1.00
C328   C     0.72808   0.98856   0.17411   0.00000  Uiso   1.00
C329   C     0.78848   0.01669   0.21074   0.00000  Uiso   1.00
C330   C     0.77303   0.99518   0.26666   0.00000  Uiso   1.00
C331   C     0.77776   0.97723   0.36137   0.00000  Uiso   1.00
C332   C     0.69567   0.92884   0.08210   0.00000  Uiso   1.00
C333   C     0.72883   0.90675   0.04138   0.00000  Uiso   1.00
C334   C     0.68610   0.83494   0.01985   0.00000  Uiso   1.00
C335   C     0.64051   0.72426   0.97170   0.00000  Uiso   1.00
C336   C     0.59736   0.91656   0.14546   0.00000  Uiso   1.00
C337   C     0.60723   0.98862   0.11965   0.00000  Uiso   1.00
C338   C     0.55166   0.00742   0.11414   0.00000  Uiso   1.00
C339   C     0.57194   0.07593   0.08939   0.00000  Uiso   1.00
C340   C     0.65484   0.94063   0.19266   0.00000  Uiso   1.00
C341   C     0.63929   0.91906   0.24854   0.00000  Uiso   1.00
C342   C     0.69965   0.94716   0.28525   0.00000  Uiso   1.00
C343   C     0.62243   0.88091   0.10066   0.00000  Uiso   1.00
C344   C     0.57964   0.80912   0.07918   0.00000  Uiso   1.00
C345   C     0.61272   0.78692   0.03844   0.00000  Uiso   1.00
H346   H     0.78923   0.04212   0.09685   0.00000  Uiso   1.00
H347   H     0.75754   0.14213   0.06200   0.00000  Uiso   1.00
H348   H     0.84515   0.05378   0.19637   0.00000  Uiso   1.00
H349   H     0.78551   0.94385   0.02704   0.00000  Uiso   1.00
H350   H     0.69010   0.23188   0.03155   0.00000  Uiso   1.00
H351   H     0.87486   0.04557   0.31488   0.00000  Uiso   1.00
H352   H     0.74908   0.81377   0.95781   0.00000  Uiso   1.00
H353   H     0.54034   0.87924   0.15991   0.00000  Uiso   1.00
H354   H     0.49498   0.97032   0.12851   0.00000  Uiso   1.00
H355   H     0.58261   0.88197   0.26288   0.00000  Uiso   1.00
H356   H     0.52296   0.77204   0.09355   0.00000  Uiso   1.00
H357   H     0.47700   0.09243   0.08554   0.00000  Uiso   1.00
H358   H     0.66176   0.90612   0.36887   0.00000  Uiso   1.00
H359   H     0.53599   0.67432   0.01180   0.00000  Uiso   1.00
O360   O     0.55821   0.22501   0.03677   0.00000  Uiso   1.00
O361   O     0.80061   0.98057   0.40848   0.00000  Uiso   1.00
O362   O     0.63560   0.67646   0.94001   0.00000  Uiso   1.00
N363   N     0.64617   0.18656   0.04856   0.00000  Uiso   1.00
N364   N     0.81890   0.01238   0.31345   0.00000  Uiso   1.00
N365   N     0.70132   0.79565   0.97963   0.00000  Uiso   1.00
N366   N     0.53150   0.11152   0.07761   0.00000  Uiso   1.00
N367   N     0.70424   0.93734   0.34250   0.00000  Uiso   1.00
N368   N     0.58666   0.72062   0.00868   0.00000  Uiso   1.00
C369   C     0.27260   0.26779   0.11130   0.00000  Uiso   1.00
C370   C     0.35608   0.31953   0.10110   0.00000  Uiso   1.00
C371   C     0.40420   0.29915   0.07635   0.00000  Uiso   1.00
C372   C     0.47863   0.35468   0.07080   0.00000  Uiso   1.00
C373   C     0.60441   0.42386   0.05217   0.00000  Uiso   1.00
C374   C     0.26048   0.27192   0.17411   0.00000  Uiso   1.00
C375   C     0.22821   0.21152   0.21074   0.00000  Uiso   1.00
C376   C     0.22215   0.22697   0.26666   0.00000  Uiso   1.00
C377   C     0.19947   0.22224   0.36137   0.00000  Uiso   1.00
C378   C     0.23317   0.30433   0.08210   0.00000  Uiso   1.00
C379   C     0.17792   0.27117   0.04138   0.00000  Uiso   1.00
C380   C     0.14884   0.31390   0.01985   0.00000  Uiso   1.00
C381   C     0.08375   0.35949   0.97170   0.00000  Uiso   1.00
C382   C     0.31920   0.40264   0.14546   0.00000  Uiso   1.00
C383   C     0.38139   0.39277   0.11965   0.00000  Uiso   1.00
C384   C     0.45576   0.44834   0.11414   0.00000  Uiso   1.00
C385   C     0.50398   0.42806   0.08939   0.00000  Uiso   1.00
C386   C     0.28579   0.34516   0.19266   0.00000  Uiso   1.00
C387   C     0.27977   0.36071   0.24854   0.00000  Uiso   1.00
C388   C     0.24751   0.30035   0.28525   0.00000  Uiso   1.00
C389   C     0.25848   0.37757   0.10066   0.00000  Uiso   1.00
C390   C     0.22948   0.42036   0.07918   0.00000  Uiso   1.00
C391   C     0.17420   0.38728   0.03844   0.00000  Uiso   1.00
H392   H     0.25289   0.21077   0.09685   0.00000  Uiso   1.00
H393   H     0.38459   0.24246   0.06200   0.00000  Uiso   1.00
H394   H     0.20862   0.15485   0.19637   0.00000  Uiso   1.00
H395   H     0.15834   0.21449   0.02704   0.00000  Uiso   1.00
H396   H     0.54178   0.30990   0.03155   0.00000  Uiso   1.00
H397   H     0.17072   0.12514   0.31488   0.00000  Uiso   1.00
H398   H     0.06468   0.25092   0.95781   0.00000  Uiso   1.00
H399   H     0.33890   0.45966   0.15991   0.00000  Uiso   1.00
H400   H     0.47533   0.50502   0.12851   0.00000  Uiso   1.00
H401   H     0.29936   0.41739   0.26288   0.00000  Uiso   1.00
H402   H     0.24908   0.47704   0.09355   0.00000  Uiso   1.00
H403   H     0.61543   0.52300   0.08554   0.00000  Uiso   1.00
H404   H     0.24436   0.33824   0.36887   0.00000  Uiso   1.00
H405   H     0.13833   0.46401   0.01180   0.00000  Uiso   1.00
O406   O     0.66680   0.44179   0.03677   0.00000  Uiso   1.00
O407   O     0.17997   0.19939   0.40848   0.00000  Uiso   1.00
O408   O     0.04086   0.36440   0.94001   0.00000  Uiso   1.00
N409   N     0.54039   0.35383   0.04856   0.00000  Uiso   1.00
N410   N     0.19347   0.18110   0.31345   0.00000  Uiso   1.00
N411   N     0.09433   0.29868   0.97963   0.00000  Uiso   1.00
N412   N     0.58002   0.46850   0.07761   0.00000  Uiso   1.00
N413   N     0.23310   0.29576   0.34250   0.00000  Uiso   1.00
N414   N     0.13396   0.41334   0.00868   0.00000  Uiso   1.00
C415   C     0.00481   0.27260   0.61130   0.00000  Uiso   1.00
C416   C     0.03655   0.35608   0.60110   0.00000  Uiso   1.00
C417   C     0.10505   0.40420   0.57635   0.00000  Uiso   1.00
C418   C     0.12395   0.47863   0.57080   0.00000  Uiso   1.00
C419   C     0.18055   0.60441   0.55217   0.00000  Uiso   1.00
C420   C     0.98856   0.26048   0.67411   0.00000  Uiso   1.00
C421   C     0.01669   0.22821   0.71074   0.00000  Uiso   1.00
C422   C     0.99518   0.22215   0.76666   0.00000  Uiso   1.00
C423   C     0.97723   0.19947   0.86137   0.00000  Uiso   1.00
C424   C     0.92884   0.23317   0.58210   0.00000  Uiso   1.00
C425   C     0.90675   0.17792   0.54138   0.00000  Uiso   1.00
C426   C     0.83494   0.14884   0.51985   0.00000  Uiso   1.00
C427   C     0.72426   0.08375   0.47170   0.00000  Uiso   1.00
C428   C     0.91656   0.31920   0.64546   0.00000  Uiso   1.00
C429   C     0.98862   0.38139   0.61965   0.00000  Uiso   1.00
C430   C     0.00742   0.45576   0.61414   0.00000  Uiso   1.00
C431   C     0.07593   0.50398   0.58939   0.00000  Uiso   1.00
C432   C     0.94063   0.28579   0.69266   0.00000  Uiso   1.00
C433   C     0.91906   0.27977   0.74854   0.00000  Uiso   1.00
C434   C     0.94716   0.24751   0.78525   0.00000  Uiso   1.00
C435   C     0.88091   0.25848   0.60066   0.00000  Uiso   1.00
C436   C     0.80912   0.22948   0.57918   0.00000  Uiso   1.00
C437   C     0.78692   0.17420   0.53844   0.00000  Uiso   1.00
H438   H     0.04212   0.25289   0.59685   0.00000  Uiso   1.00
H439   H     0.14213   0.38459   0.56200   0.00000  Uiso   1.00
H440   H     0.05378   0.20862   0.69637   0.00000  Uiso   1.00
H441   H     0.94385   0.15834   0.52704   0.00000  Uiso   1.00
H442   H     0.23188   0.54178   0.53155   0.00000  Uiso   1.00
H443   H     0.04557   0.17072   0.81488   0.00000  Uiso   1.00
H444   H     0.81377   0.06468   0.45781   0.00000  Uiso   1.00
H445   H     0.87924   0.33890   0.65991   0.00000  Uiso   1.00
H446   H     0.97032   0.47533   0.62851   0.00000  Uiso   1.00
H447   H     0.88197   0.29936   0.76288   0.00000  Uiso   1.00
H448   H     0.77204   0.24908   0.59355   0.00000  Uiso   1.00
H449   H     0.09243   0.61543   0.58554   0.00000  Uiso   1.00
H450   H     0.90612   0.24436   0.86887   0.00000  Uiso   1.00
H451   H     0.67432   0.13833   0.51180   0.00000  Uiso   1.00
O452   O     0.22501   0.66680   0.53677   0.00000  Uiso   1.00
O453   O     0.98057   0.17997   0.90848   0.00000  Uiso   1.00
O454   O     0.67646   0.04086   0.44001   0.00000  Uiso   1.00
N455   N     0.18656   0.54039   0.54856   0.00000  Uiso   1.00
N456   N     0.01238   0.19347   0.81345   0.00000  Uiso   1.00
N457   N     0.79565   0.09433   0.47963   0.00000  Uiso   1.00
N458   N     0.11152   0.58002   0.57761   0.00000  Uiso   1.00
N459   N     0.93734   0.23310   0.84250   0.00000  Uiso   1.00
N460   N     0.72062   0.13396   0.50868   0.00000  Uiso   1.00
C461   C     0.26779   0.99519   0.61130   0.00000  Uiso   1.00
C462   C     0.31953   0.96345   0.60110   0.00000  Uiso   1.00
C463   C     0.29915   0.89495   0.57635   0.00000  Uiso   1.00
C464   C     0.35468   0.87605   0.57080   0.00000  Uiso   1.00
C465   C     0.42386   0.81945   0.55217   0.00000  Uiso   1.00
C466   C     0.27192   0.01144   0.67411   0.00000  Uiso   1.00
C467   C     0.21152   0.98331   0.71074   0.00000  Uiso   1.00
C468   C     0.22697   0.00482   0.76666   0.00000  Uiso   1.00
C469   C     0.22224   0.02277   0.86137   0.00000  Uiso   1.00
C470   C     0.30433   0.07116   0.58210   0.00000  Uiso   1.00
C471   C     0.27117   0.09325   0.54138   0.00000  Uiso   1.00
C472   C     0.31390   0.16506   0.51985   0.00000  Uiso   1.00
C473   C     0.35949   0.27574   0.47170   0.00000  Uiso   1.00
C474   C     0.40264   0.08344   0.64546   0.00000  Uiso   1.00
C475   C     0.39277   0.01138   0.61965   0.00000  Uiso   1.00
C476   C     0.44834   0.99258   0.61414   0.00000  Uiso   1.00
C477   C     0.42806   0.92407   0.58939   0.00000  Uiso   1.00
C478   C     0.34516   0.05937   0.69266   0.00000  Uiso   1.00
C479   C     0.36071   0.08094   0.74854   0.00000  Uiso   1.00
C480   C     0.30035   0.05284   0.78525   0.00000  Uiso   1.00
C481   C     0.37757   0.11909   0.60066   0.00000  Uiso   1.00
C482   C     0.42036   0.19088   0.57918   0.00000  Uiso   1.00
C483   C     0.38728   0.21308   0.53844   0.00000  Uiso   1.00
H484   H     0.21077   0.95788   0.59685   0.00000  Uiso   1.00
H485   H     0.24246   0.85787   0.56200   0.00000  Uiso   1.00
H486   H     0.15485   0.94622   0.69637   0.00000  Uiso   1.00
H487   H     0.21449   0.05615   0.52704   0.00000  Uiso   1.00
H488   H     0.30990   0.76812   0.53155   0.00000  Uiso   1.00
H489   H     0.12514   0.95443   0.81488   0.00000  Uiso   1.00
H490   H     0.25092   0.18623   0.45781   0.00000  Uiso   1.00
H491   H     0.45966   0.12076   0.65991   0.00000  Uiso   1.00
H492   H     0.50502   0.02968   0.62851   0.00000  Uiso   1.00
H493   H     0.41739   0.11803   0.76288   0.00000  Uiso   1.00
H494   H     0.47704   0.22796   0.59355   0.00000  Uiso   1.00
H495   H     0.52300   0.90757   0.58554   0.00000  Uiso   1.00
H496   H     0.33824   0.09388   0.86887   0.00000  Uiso   1.00
H497   H     0.46401   0.32568   0.51180   0.00000  Uiso   1.00
O498   O     0.44179   0.77499   0.53677   0.00000  Uiso   1.00
O499   O     0.19939   0.01943   0.90848   0.00000  Uiso   1.00
O500   O     0.36440   0.32354   0.44001   0.00000  Uiso   1.00
N501   N     0.35383   0.81344   0.54856   0.00000  Uiso   1.00
N502   N     0.18110   0.98762   0.81345   0.00000  Uiso   1.00
N503   N     0.29868   0.20435   0.47963   0.00000  Uiso   1.00
N504   N     0.46850   0.88848   0.57761   0.00000  Uiso   1.00
N505   N     0.29576   0.06266   0.84250   0.00000  Uiso   1.00
N506   N     0.41334   0.27938   0.50868   0.00000  Uiso   1.00
C507   C     0.72740   0.73221   0.61130   0.00000  Uiso   1.00
C508   C     0.64392   0.68047   0.60110   0.00000  Uiso   1.00
C509   C     0.59580   0.70085   0.57635   0.00000  Uiso   1.00
C510   C     0.52137   0.64532   0.57080   0.00000  Uiso   1.00
C511   C     0.39559   0.57614   0.55217   0.00000  Uiso   1.00
C512   C     0.73952   0.72808   0.67411   0.00000  Uiso   1.00
C513   C     0.77179   0.78848   0.71074   0.00000  Uiso   1.00
C514   C     0.77785   0.77303   0.76666   0.00000  Uiso   1.00
C515   C     0.80053   0.77776   0.86137   0.00000  Uiso   1.00
C516   C     0.76683   0.69567   0.58210   0.00000  Uiso   1.00
C517   C     0.82208   0.72883   0.54138   0.00000  Uiso   1.00
C518   C     0.85116   0.68610   0.51985   0.00000  Uiso   1.00
C519   C     0.91625   0.64051   0.47170   0.00000  Uiso   1.00
C520   C     0.68080   0.59736   0.64546   0.00000  Uiso   1.00
C521   C     0.61861   0.60723   0.61965   0.00000  Uiso   1.00
C522   C     0.54424   0.55166   0.61414   0.00000  Uiso   1.00
C523   C     0.49602   0.57194   0.58939   0.00000  Uiso   1.00
C524   C     0.71421   0.65484   0.69266   0.00000  Uiso   1.00
C525   C     0.72023   0.63929   0.74854   0.00000  Uiso   1.00
C526   C     0.75249   0.69965   0.78525   0.00000  Uiso   1.00
C527   C     0.74152   0.62243   0.60066   0.00000  Uiso   1.00
C528   C     0.77052   0.57964   0.57918   0.00000  Uiso   1.00
C529   C     0.82580   0.61272   0.53844   0.00000  Uiso   1.00
H530   H     0.74711   0.78923   0.59685   0.00000  Uiso   1.00
H531   H     0.61541   0.75754   0.56200   0.00000  Uiso   1.00
H532   H     0.79138   0.84515   0.69637   0.00000  Uiso   1.00
H533   H     0.84166   0.78551   0.52704   0.00000  Uiso   1.00
H534   H     0.45822   0.69010   0.53155   0.00000  Uiso   1.00
H535   H     0.82928   0.87486   0.81488   0.00000  Uiso   1.00
H536   H     0.93532   0.74908   0.45781   0.00000  Uiso   1.00
H537   H     0.66110   0.54034   0.65991   0.00000  Uiso   1.00
H538   H     0.52467   0.49498   0.62851   0.00000  Uiso   1.00
H539   H     0.70064   0.58261   0.76288   0.00000  Uiso   1.00
H540   H     0.75092   0.52296   0.59355   0.00000  Uiso   1.00
H541   H     0.38457   0.47700   0.58554   0.00000  Uiso   1.00
H542   H     0.75564   0.66176   0.86887   0.00000  Uiso   1.00
H543   H     0.86167   0.53599   0.51180   0.00000  Uiso   1.00
O544   O     0.33320   0.55821   0.53677   0.00000  Uiso   1.00
O545   O     0.82003   0.80061   0.90848   0.00000  Uiso   1.00
O546   O     0.95914   0.63560   0.44001   0.00000  Uiso   1.00
N547   N     0.45961   0.64617   0.54856   0.00000  Uiso   1.00
N548   N     0.80653   0.81890   0.81345   0.00000  Uiso   1.00
N549   N     0.90567   0.70132   0.47963   0.00000  Uiso   1.00
N550   N     0.41998   0.53150   0.57761   0.00000  Uiso   1.00
N551   N     0.76690   0.70424   0.84250   0.00000  Uiso   1.00
N552   N     0.86604   0.58666   0.50868   0.00000  Uiso   1.00
