data_job_01561
_audit_creation_date              2018-12-19
_audit_creation_method            'Materials Studio'
_symmetry_space_group_name_H-M    'P1'
_symmetry_Int_Tables_number       1
_symmetry_cell_setting            triclinic
loop_
_symmetry_equiv_pos_as_xyz
  x,y,z
_cell_length_a                    23.5484
_cell_length_b                    9.6902
_cell_length_c                    24.4692
_cell_angle_alpha                 90.0000
_cell_angle_beta                  90.0000
_cell_angle_gamma                 90.0000
loop_
_atom_site_label
_atom_site_type_symbol
_atom_site_fract_x
_atom_site_fract_y
_atom_site_fract_z
_atom_site_U_iso_or_equiv
_atom_site_adp_type
_atom_site_occupancy
C1     C     0.80491   0.93829   0.44352   0.00000  Uiso   1.00
C2     C     0.79686   0.85304   0.39172   0.00000  Uiso   1.00
C3     C     0.74689   0.84178   0.36197   0.00000  Uiso   1.00
C4     C     0.74821   0.75866   0.31577   0.00000  Uiso   1.00
C5     C     0.72816   0.63677   0.23775   0.00000  Uiso   1.00
C6     C     0.82623   0.83816   0.48700   0.00000  Uiso   1.00
C7     C     0.80096   0.81440   0.53737   0.00000  Uiso   1.00
C8     C     0.82701   0.71877   0.57139   0.00000  Uiso   1.00
C9     C     0.85258   0.57385   0.64132   0.00000  Uiso   1.00
C10    C     0.85413   0.03623   0.43188   0.00000  Uiso   1.00
C11    C     0.85233   0.17903   0.43591   0.00000  Uiso   1.00
C12    C     0.90187   0.25016   0.42353   0.00000  Uiso   1.00
C13    C     0.97076   0.41278   0.40787   0.00000  Uiso   1.00
C14    C     0.89609   0.81071   0.41437   0.00000  Uiso   1.00
C15    C     0.84638   0.78374   0.37588   0.00000  Uiso   1.00
C16    C     0.84778   0.70062   0.32972   0.00000  Uiso   1.00
C17    C     0.79782   0.68924   0.29991   0.00000  Uiso   1.00
C18    C     0.87575   0.76886   0.47117   0.00000  Uiso   1.00
C19    C     0.90184   0.67324   0.50512   0.00000  Uiso   1.00
C20    C     0.87662   0.64934   0.55553   0.00000  Uiso   1.00
C21    C     0.90365   0.96694   0.41604   0.00000  Uiso   1.00
C22    C     0.95321   0.03786   0.40366   0.00000  Uiso   1.00
C23    C     0.95148   0.18073   0.40767   0.00000  Uiso   1.00
H24    H     0.76635   0.99224   0.45585   0.00000  Uiso   1.00
H25    H     0.70857   0.89541   0.37424   0.00000  Uiso   1.00
H26    H     0.76264   0.86805   0.54962   0.00000  Uiso   1.00
H27    H     0.81399   0.23262   0.44817   0.00000  Uiso   1.00
H28    H     0.66635   0.75746   0.27678   0.00000  Uiso   1.00
H29    H     0.78036   0.69981   0.64658   0.00000  Uiso   1.00
H30    H     0.88866   0.46856   0.43266   0.00000  Uiso   1.00
H31    H     0.93465   0.75675   0.40205   0.00000  Uiso   1.00
H32    H     0.88611   0.64700   0.31747   0.00000  Uiso   1.00
H33    H     0.94017   0.61964   0.49285   0.00000  Uiso   1.00
H34    H     0.99153   0.98420   0.39141   0.00000  Uiso   1.00
H35    H     0.81044   0.55584   0.23071   0.00000  Uiso   1.00
H36    H     0.92445   0.49818   0.60052   0.00000  Uiso   1.00
H37    H     0.03275   0.26694   0.38659   0.00000  Uiso   1.00
O38    O     0.70342   0.58867   0.19910   0.00000  Uiso   1.00
O39    O     0.85300   0.51305   0.68427   0.00000  Uiso   1.00
O40    O     0.99508   0.52163   0.40360   0.00000  Uiso   1.00
N41    N     0.70693   0.72509   0.27754   0.00000  Uiso   1.00
N42    N     0.81351   0.67117   0.62328   0.00000  Uiso   1.00
N43    N     0.91477   0.38989   0.42329   0.00000  Uiso   1.00
N44    N     0.78446   0.61660   0.25275   0.00000  Uiso   1.00
N45    N     0.89105   0.56268   0.59849   0.00000  Uiso   1.00
N46    N     0.99230   0.28140   0.39850   0.00000  Uiso   1.00
C47    C     0.69509   0.56171   0.94352   0.00000  Uiso   1.00
C48    C     0.70314   0.64696   0.89172   0.00000  Uiso   1.00
C49    C     0.75311   0.65822   0.86197   0.00000  Uiso   1.00
C50    C     0.75179   0.74134   0.81577   0.00000  Uiso   1.00
C51    C     0.77184   0.86323   0.73775   0.00000  Uiso   1.00
C52    C     0.67377   0.66184   0.98700   0.00000  Uiso   1.00
C53    C     0.69904   0.68560   0.03737   0.00000  Uiso   1.00
C54    C     0.67299   0.78123   0.07139   0.00000  Uiso   1.00
C55    C     0.64742   0.92615   0.14132   0.00000  Uiso   1.00
C56    C     0.64587   0.46377   0.93188   0.00000  Uiso   1.00
C57    C     0.64767   0.32097   0.93591   0.00000  Uiso   1.00
C58    C     0.59813   0.24984   0.92353   0.00000  Uiso   1.00
C59    C     0.52924   0.08722   0.90787   0.00000  Uiso   1.00
C60    C     0.60391   0.68929   0.91437   0.00000  Uiso   1.00
C61    C     0.65362   0.71626   0.87588   0.00000  Uiso   1.00
C62    C     0.65222   0.79938   0.82972   0.00000  Uiso   1.00
C63    C     0.70218   0.81076   0.79991   0.00000  Uiso   1.00
C64    C     0.62425   0.73114   0.97117   0.00000  Uiso   1.00
C65    C     0.59816   0.82676   0.00512   0.00000  Uiso   1.00
C66    C     0.62338   0.85066   0.05553   0.00000  Uiso   1.00
C67    C     0.59635   0.53306   0.91604   0.00000  Uiso   1.00
C68    C     0.54679   0.46214   0.90366   0.00000  Uiso   1.00
C69    C     0.54852   0.31927   0.90767   0.00000  Uiso   1.00
H70    H     0.73365   0.50776   0.95585   0.00000  Uiso   1.00
H71    H     0.79143   0.60459   0.87424   0.00000  Uiso   1.00
H72    H     0.73736   0.63195   0.04962   0.00000  Uiso   1.00
H73    H     0.68601   0.26738   0.94817   0.00000  Uiso   1.00
H74    H     0.83365   0.74254   0.77678   0.00000  Uiso   1.00
H75    H     0.71964   0.80019   0.14658   0.00000  Uiso   1.00
H76    H     0.61134   0.03144   0.93266   0.00000  Uiso   1.00
H77    H     0.56535   0.74325   0.90205   0.00000  Uiso   1.00
H78    H     0.61389   0.85300   0.81747   0.00000  Uiso   1.00
H79    H     0.55983   0.88036   0.99285   0.00000  Uiso   1.00
H80    H     0.50847   0.51580   0.89141   0.00000  Uiso   1.00
H81    H     0.68956   0.94416   0.73071   0.00000  Uiso   1.00
H82    H     0.57555   0.00182   0.10052   0.00000  Uiso   1.00
H83    H     0.46725   0.23306   0.88659   0.00000  Uiso   1.00
O84    O     0.79658   0.91133   0.69910   0.00000  Uiso   1.00
O85    O     0.64700   0.98695   0.18427   0.00000  Uiso   1.00
O86    O     0.50492   0.97837   0.90360   0.00000  Uiso   1.00
N87    N     0.79307   0.77491   0.77754   0.00000  Uiso   1.00
N88    N     0.68649   0.82883   0.12328   0.00000  Uiso   1.00
N89    N     0.58523   0.11011   0.92329   0.00000  Uiso   1.00
N90    N     0.71554   0.88340   0.75275   0.00000  Uiso   1.00
N91    N     0.60895   0.93732   0.09849   0.00000  Uiso   1.00
N92    N     0.50770   0.21860   0.89850   0.00000  Uiso   1.00
C93    C     0.19509   0.93829   0.05648   0.00000  Uiso   1.00
C94    C     0.20314   0.85304   0.10828   0.00000  Uiso   1.00
C95    C     0.25311   0.84178   0.13803   0.00000  Uiso   1.00
C96    C     0.25179   0.75866   0.18423   0.00000  Uiso   1.00
C97    C     0.27184   0.63677   0.26225   0.00000  Uiso   1.00
C98    C     0.17377   0.83816   0.01300   0.00000  Uiso   1.00
C99    C     0.19904   0.81440   0.96263   0.00000  Uiso   1.00
C100   C     0.17299   0.71877   0.92861   0.00000  Uiso   1.00
C101   C     0.14742   0.57385   0.85868   0.00000  Uiso   1.00
C102   C     0.14587   0.03623   0.06812   0.00000  Uiso   1.00
C103   C     0.14767   0.17903   0.06409   0.00000  Uiso   1.00
C104   C     0.09813   0.25016   0.07647   0.00000  Uiso   1.00
C105   C     0.02924   0.41278   0.09213   0.00000  Uiso   1.00
C106   C     0.10391   0.81071   0.08563   0.00000  Uiso   1.00
C107   C     0.15362   0.78374   0.12412   0.00000  Uiso   1.00
C108   C     0.15222   0.70062   0.17028   0.00000  Uiso   1.00
C109   C     0.20218   0.68924   0.20009   0.00000  Uiso   1.00
C110   C     0.12425   0.76886   0.02883   0.00000  Uiso   1.00
C111   C     0.09816   0.67324   0.99488   0.00000  Uiso   1.00
C112   C     0.12338   0.64934   0.94447   0.00000  Uiso   1.00
C113   C     0.09635   0.96694   0.08396   0.00000  Uiso   1.00
C114   C     0.04679   0.03786   0.09634   0.00000  Uiso   1.00
C115   C     0.04852   0.18073   0.09233   0.00000  Uiso   1.00
H116   H     0.23365   0.99224   0.04415   0.00000  Uiso   1.00
H117   H     0.29143   0.89541   0.12576   0.00000  Uiso   1.00
H118   H     0.23736   0.86805   0.95038   0.00000  Uiso   1.00
H119   H     0.18601   0.23262   0.05183   0.00000  Uiso   1.00
H120   H     0.33365   0.75746   0.22322   0.00000  Uiso   1.00
H121   H     0.21964   0.69981   0.85342   0.00000  Uiso   1.00
H122   H     0.11134   0.46856   0.06734   0.00000  Uiso   1.00
H123   H     0.06535   0.75675   0.09795   0.00000  Uiso   1.00
H124   H     0.11389   0.64700   0.18253   0.00000  Uiso   1.00
H125   H     0.05983   0.61964   0.00715   0.00000  Uiso   1.00
H126   H     0.00847   0.98420   0.10859   0.00000  Uiso   1.00
H127   H     0.18956   0.55584   0.26929   0.00000  Uiso   1.00
H128   H     0.07555   0.49818   0.89948   0.00000  Uiso   1.00
H129   H     0.96725   0.26694   0.11341   0.00000  Uiso   1.00
O130   O     0.29658   0.58867   0.30090   0.00000  Uiso   1.00
O131   O     0.14700   0.51305   0.81573   0.00000  Uiso   1.00
O132   O     0.00492   0.52163   0.09640   0.00000  Uiso   1.00
N133   N     0.29307   0.72509   0.22246   0.00000  Uiso   1.00
N134   N     0.18649   0.67117   0.87672   0.00000  Uiso   1.00
N135   N     0.08523   0.38989   0.07671   0.00000  Uiso   1.00
N136   N     0.21554   0.61660   0.24725   0.00000  Uiso   1.00
N137   N     0.10895   0.56268   0.90151   0.00000  Uiso   1.00
N138   N     0.00770   0.28140   0.10150   0.00000  Uiso   1.00
C139   C     0.30491   0.56171   0.55648   0.00000  Uiso   1.00
C140   C     0.29686   0.64696   0.60828   0.00000  Uiso   1.00
C141   C     0.24689   0.65822   0.63803   0.00000  Uiso   1.00
C142   C     0.24821   0.74134   0.68423   0.00000  Uiso   1.00
C143   C     0.22816   0.86323   0.76225   0.00000  Uiso   1.00
C144   C     0.32623   0.66184   0.51300   0.00000  Uiso   1.00
C145   C     0.30096   0.68560   0.46263   0.00000  Uiso   1.00
C146   C     0.32701   0.78123   0.42861   0.00000  Uiso   1.00
C147   C     0.35258   0.92615   0.35868   0.00000  Uiso   1.00
C148   C     0.35413   0.46377   0.56812   0.00000  Uiso   1.00
C149   C     0.35233   0.32097   0.56409   0.00000  Uiso   1.00
C150   C     0.40187   0.24984   0.57647   0.00000  Uiso   1.00
C151   C     0.47076   0.08722   0.59213   0.00000  Uiso   1.00
C152   C     0.39609   0.68929   0.58563   0.00000  Uiso   1.00
C153   C     0.34638   0.71626   0.62412   0.00000  Uiso   1.00
C154   C     0.34778   0.79938   0.67028   0.00000  Uiso   1.00
C155   C     0.29782   0.81076   0.70009   0.00000  Uiso   1.00
C156   C     0.37575   0.73114   0.52883   0.00000  Uiso   1.00
C157   C     0.40184   0.82676   0.49488   0.00000  Uiso   1.00
C158   C     0.37662   0.85066   0.44447   0.00000  Uiso   1.00
C159   C     0.40365   0.53306   0.58396   0.00000  Uiso   1.00
C160   C     0.45321   0.46214   0.59634   0.00000  Uiso   1.00
C161   C     0.45148   0.31927   0.59233   0.00000  Uiso   1.00
H162   H     0.26635   0.50776   0.54415   0.00000  Uiso   1.00
H163   H     0.20857   0.60459   0.62576   0.00000  Uiso   1.00
H164   H     0.26264   0.63195   0.45038   0.00000  Uiso   1.00
H165   H     0.31399   0.26738   0.55183   0.00000  Uiso   1.00
H166   H     0.16635   0.74254   0.72322   0.00000  Uiso   1.00
H167   H     0.28036   0.80019   0.35342   0.00000  Uiso   1.00
H168   H     0.38866   0.03144   0.56734   0.00000  Uiso   1.00
H169   H     0.43465   0.74325   0.59795   0.00000  Uiso   1.00
H170   H     0.38611   0.85300   0.68253   0.00000  Uiso   1.00
H171   H     0.44017   0.88036   0.50715   0.00000  Uiso   1.00
H172   H     0.49153   0.51580   0.60859   0.00000  Uiso   1.00
H173   H     0.31044   0.94416   0.76929   0.00000  Uiso   1.00
H174   H     0.42445   0.00182   0.39948   0.00000  Uiso   1.00
H175   H     0.53275   0.23306   0.61341   0.00000  Uiso   1.00
O176   O     0.20342   0.91133   0.80090   0.00000  Uiso   1.00
O177   O     0.35300   0.98695   0.31573   0.00000  Uiso   1.00
O178   O     0.49508   0.97837   0.59640   0.00000  Uiso   1.00
N179   N     0.20693   0.77491   0.72246   0.00000  Uiso   1.00
N180   N     0.31351   0.82883   0.37672   0.00000  Uiso   1.00
N181   N     0.41477   0.11011   0.57671   0.00000  Uiso   1.00
N182   N     0.28446   0.88340   0.74725   0.00000  Uiso   1.00
N183   N     0.39105   0.93732   0.40151   0.00000  Uiso   1.00
N184   N     0.49230   0.21860   0.60150   0.00000  Uiso   1.00
C185   C     0.19509   0.06171   0.55648   0.00000  Uiso   1.00
C186   C     0.20314   0.14696   0.60828   0.00000  Uiso   1.00
C187   C     0.25311   0.15822   0.63803   0.00000  Uiso   1.00
C188   C     0.25179   0.24134   0.68423   0.00000  Uiso   1.00
C189   C     0.27184   0.36323   0.76225   0.00000  Uiso   1.00
C190   C     0.17377   0.16184   0.51300   0.00000  Uiso   1.00
C191   C     0.19904   0.18560   0.46263   0.00000  Uiso   1.00
C192   C     0.17299   0.28123   0.42861   0.00000  Uiso   1.00
C193   C     0.14742   0.42615   0.35868   0.00000  Uiso   1.00
C194   C     0.14587   0.96377   0.56812   0.00000  Uiso   1.00
C195   C     0.14767   0.82097   0.56409   0.00000  Uiso   1.00
C196   C     0.09813   0.74984   0.57647   0.00000  Uiso   1.00
C197   C     0.02924   0.58722   0.59213   0.00000  Uiso   1.00
C198   C     0.10391   0.18929   0.58563   0.00000  Uiso   1.00
C199   C     0.15362   0.21626   0.62412   0.00000  Uiso   1.00
C200   C     0.15222   0.29938   0.67028   0.00000  Uiso   1.00
C201   C     0.20218   0.31076   0.70009   0.00000  Uiso   1.00
C202   C     0.12425   0.23114   0.52883   0.00000  Uiso   1.00
C203   C     0.09816   0.32676   0.49488   0.00000  Uiso   1.00
C204   C     0.12338   0.35066   0.44447   0.00000  Uiso   1.00
C205   C     0.09635   0.03306   0.58396   0.00000  Uiso   1.00
C206   C     0.04679   0.96214   0.59634   0.00000  Uiso   1.00
C207   C     0.04852   0.81927   0.59233   0.00000  Uiso   1.00
H208   H     0.23365   0.00776   0.54415   0.00000  Uiso   1.00
H209   H     0.29143   0.10459   0.62576   0.00000  Uiso   1.00
H210   H     0.23736   0.13195   0.45038   0.00000  Uiso   1.00
H211   H     0.18601   0.76738   0.55183   0.00000  Uiso   1.00
H212   H     0.33365   0.24254   0.72322   0.00000  Uiso   1.00
H213   H     0.21964   0.30019   0.35342   0.00000  Uiso   1.00
H214   H     0.11134   0.53144   0.56734   0.00000  Uiso   1.00
H215   H     0.06535   0.24325   0.59795   0.00000  Uiso   1.00
H216   H     0.11389   0.35300   0.68253   0.00000  Uiso   1.00
H217   H     0.05983   0.38036   0.50715   0.00000  Uiso   1.00
H218   H     0.00847   0.01580   0.60859   0.00000  Uiso   1.00
H219   H     0.18956   0.44416   0.76929   0.00000  Uiso   1.00
H220   H     0.07555   0.50182   0.39948   0.00000  Uiso   1.00
H221   H     0.96725   0.73306   0.61341   0.00000  Uiso   1.00
O222   O     0.29658   0.41133   0.80090   0.00000  Uiso   1.00
O223   O     0.14700   0.48695   0.31573   0.00000  Uiso   1.00
O224   O     0.00492   0.47837   0.59640   0.00000  Uiso   1.00
N225   N     0.29307   0.27491   0.72246   0.00000  Uiso   1.00
N226   N     0.18649   0.32883   0.37672   0.00000  Uiso   1.00
N227   N     0.08523   0.61011   0.57671   0.00000  Uiso   1.00
N228   N     0.21554   0.38340   0.74725   0.00000  Uiso   1.00
N229   N     0.10895   0.43732   0.40151   0.00000  Uiso   1.00
N230   N     0.00770   0.71860   0.60150   0.00000  Uiso   1.00
C231   C     0.30491   0.43829   0.05648   0.00000  Uiso   1.00
C232   C     0.29686   0.35304   0.10828   0.00000  Uiso   1.00
C233   C     0.24689   0.34178   0.13803   0.00000  Uiso   1.00
C234   C     0.24821   0.25866   0.18423   0.00000  Uiso   1.00
C235   C     0.22816   0.13677   0.26225   0.00000  Uiso   1.00
C236   C     0.32623   0.33816   0.01300   0.00000  Uiso   1.00
C237   C     0.30096   0.31440   0.96263   0.00000  Uiso   1.00
C238   C     0.32701   0.21877   0.92861   0.00000  Uiso   1.00
C239   C     0.35258   0.07385   0.85868   0.00000  Uiso   1.00
C240   C     0.35413   0.53623   0.06812   0.00000  Uiso   1.00
C241   C     0.35233   0.67903   0.06409   0.00000  Uiso   1.00
C242   C     0.40187   0.75016   0.07647   0.00000  Uiso   1.00
C243   C     0.47076   0.91278   0.09213   0.00000  Uiso   1.00
C244   C     0.39609   0.31071   0.08563   0.00000  Uiso   1.00
C245   C     0.34638   0.28374   0.12412   0.00000  Uiso   1.00
C246   C     0.34778   0.20062   0.17028   0.00000  Uiso   1.00
C247   C     0.29782   0.18924   0.20009   0.00000  Uiso   1.00
C248   C     0.37575   0.26886   0.02883   0.00000  Uiso   1.00
C249   C     0.40184   0.17324   0.99488   0.00000  Uiso   1.00
C250   C     0.37662   0.14934   0.94447   0.00000  Uiso   1.00
C251   C     0.40365   0.46694   0.08396   0.00000  Uiso   1.00
C252   C     0.45321   0.53786   0.09634   0.00000  Uiso   1.00
C253   C     0.45148   0.68073   0.09233   0.00000  Uiso   1.00
H254   H     0.26635   0.49224   0.04415   0.00000  Uiso   1.00
H255   H     0.20857   0.39541   0.12576   0.00000  Uiso   1.00
H256   H     0.26264   0.36805   0.95038   0.00000  Uiso   1.00
H257   H     0.31399   0.73262   0.05183   0.00000  Uiso   1.00
H258   H     0.16635   0.25746   0.22322   0.00000  Uiso   1.00
H259   H     0.28036   0.19981   0.85342   0.00000  Uiso   1.00
H260   H     0.38866   0.96856   0.06734   0.00000  Uiso   1.00
H261   H     0.43465   0.25675   0.09795   0.00000  Uiso   1.00
H262   H     0.38611   0.14700   0.18253   0.00000  Uiso   1.00
H263   H     0.44017   0.11964   0.00715   0.00000  Uiso   1.00
H264   H     0.49153   0.48420   0.10859   0.00000  Uiso   1.00
H265   H     0.31044   0.05584   0.26929   0.00000  Uiso   1.00
H266   H     0.42445   0.99818   0.89948   0.00000  Uiso   1.00
H267   H     0.53275   0.76694   0.11341   0.00000  Uiso   1.00
O268   O     0.20342   0.08867   0.30090   0.00000  Uiso   1.00
O269   O     0.35300   0.01305   0.81573   0.00000  Uiso   1.00
O270   O     0.49508   0.02163   0.09640   0.00000  Uiso   1.00
N271   N     0.20693   0.22509   0.22246   0.00000  Uiso   1.00
N272   N     0.31351   0.17117   0.87672   0.00000  Uiso   1.00
N273   N     0.41477   0.88989   0.07671   0.00000  Uiso   1.00
N274   N     0.28446   0.11660   0.24725   0.00000  Uiso   1.00
N275   N     0.39105   0.06268   0.90151   0.00000  Uiso   1.00
N276   N     0.49230   0.78140   0.10150   0.00000  Uiso   1.00
C277   C     0.80491   0.06171   0.94352   0.00000  Uiso   1.00
C278   C     0.79686   0.14696   0.89172   0.00000  Uiso   1.00
C279   C     0.74689   0.15822   0.86197   0.00000  Uiso   1.00
C280   C     0.74821   0.24134   0.81577   0.00000  Uiso   1.00
C281   C     0.72816   0.36323   0.73775   0.00000  Uiso   1.00
C282   C     0.82623   0.16184   0.98700   0.00000  Uiso   1.00
C283   C     0.80096   0.18560   0.03737   0.00000  Uiso   1.00
C284   C     0.82701   0.28123   0.07139   0.00000  Uiso   1.00
C285   C     0.85258   0.42615   0.14132   0.00000  Uiso   1.00
C286   C     0.85413   0.96377   0.93188   0.00000  Uiso   1.00
C287   C     0.85233   0.82097   0.93591   0.00000  Uiso   1.00
C288   C     0.90187   0.74984   0.92353   0.00000  Uiso   1.00
C289   C     0.97076   0.58722   0.90787   0.00000  Uiso   1.00
C290   C     0.89609   0.18929   0.91437   0.00000  Uiso   1.00
C291   C     0.84638   0.21626   0.87588   0.00000  Uiso   1.00
C292   C     0.84778   0.29938   0.82972   0.00000  Uiso   1.00
C293   C     0.79782   0.31076   0.79991   0.00000  Uiso   1.00
C294   C     0.87575   0.23114   0.97117   0.00000  Uiso   1.00
C295   C     0.90184   0.32676   0.00512   0.00000  Uiso   1.00
C296   C     0.87662   0.35066   0.05553   0.00000  Uiso   1.00
C297   C     0.90365   0.03306   0.91604   0.00000  Uiso   1.00
C298   C     0.95321   0.96214   0.90366   0.00000  Uiso   1.00
C299   C     0.95148   0.81927   0.90767   0.00000  Uiso   1.00
H300   H     0.76635   0.00776   0.95585   0.00000  Uiso   1.00
H301   H     0.70857   0.10459   0.87424   0.00000  Uiso   1.00
H302   H     0.76264   0.13195   0.04962   0.00000  Uiso   1.00
H303   H     0.81399   0.76738   0.94817   0.00000  Uiso   1.00
H304   H     0.66635   0.24254   0.77678   0.00000  Uiso   1.00
H305   H     0.78036   0.30019   0.14658   0.00000  Uiso   1.00
H306   H     0.88866   0.53144   0.93266   0.00000  Uiso   1.00
H307   H     0.93465   0.24325   0.90205   0.00000  Uiso   1.00
H308   H     0.88611   0.35300   0.81747   0.00000  Uiso   1.00
H309   H     0.94017   0.38036   0.99285   0.00000  Uiso   1.00
H310   H     0.99153   0.01580   0.89141   0.00000  Uiso   1.00
H311   H     0.81044   0.44416   0.73071   0.00000  Uiso   1.00
H312   H     0.92445   0.50182   0.10052   0.00000  Uiso   1.00
H313   H     0.03275   0.73306   0.88659   0.00000  Uiso   1.00
O314   O     0.70342   0.41133   0.69910   0.00000  Uiso   1.00
O315   O     0.85300   0.48695   0.18427   0.00000  Uiso   1.00
O316   O     0.99508   0.47837   0.90360   0.00000  Uiso   1.00
N317   N     0.70693   0.27491   0.77754   0.00000  Uiso   1.00
N318   N     0.81351   0.32883   0.12328   0.00000  Uiso   1.00
N319   N     0.91477   0.61011   0.92329   0.00000  Uiso   1.00
N320   N     0.78446   0.38340   0.75275   0.00000  Uiso   1.00
N321   N     0.89105   0.43732   0.09849   0.00000  Uiso   1.00
N322   N     0.99230   0.71860   0.89850   0.00000  Uiso   1.00
C323   C     0.69509   0.43829   0.44352   0.00000  Uiso   1.00
C324   C     0.70314   0.35304   0.39172   0.00000  Uiso   1.00
C325   C     0.75311   0.34178   0.36197   0.00000  Uiso   1.00
C326   C     0.75179   0.25866   0.31577   0.00000  Uiso   1.00
C327   C     0.77184   0.13677   0.23775   0.00000  Uiso   1.00
C328   C     0.67377   0.33816   0.48700   0.00000  Uiso   1.00
C329   C     0.69904   0.31440   0.53737   0.00000  Uiso   1.00
C330   C     0.67299   0.21877   0.57139   0.00000  Uiso   1.00
C331   C     0.64742   0.07385   0.64132   0.00000  Uiso   1.00
C332   C     0.64587   0.53623   0.43188   0.00000  Uiso   1.00
C333   C     0.64767   0.67903   0.43591   0.00000  Uiso   1.00
C334   C     0.59813   0.75016   0.42353   0.00000  Uiso   1.00
C335   C     0.52924   0.91278   0.40787   0.00000  Uiso   1.00
C336   C     0.60391   0.31071   0.41437   0.00000  Uiso   1.00
C337   C     0.65362   0.28374   0.37588   0.00000  Uiso   1.00
C338   C     0.65222   0.20062   0.32972   0.00000  Uiso   1.00
C339   C     0.70218   0.18924   0.29991   0.00000  Uiso   1.00
C340   C     0.62425   0.26886   0.47117   0.00000  Uiso   1.00
C341   C     0.59816   0.17324   0.50512   0.00000  Uiso   1.00
C342   C     0.62338   0.14934   0.55553   0.00000  Uiso   1.00
C343   C     0.59635   0.46694   0.41604   0.00000  Uiso   1.00
C344   C     0.54679   0.53786   0.40366   0.00000  Uiso   1.00
C345   C     0.54852   0.68073   0.40767   0.00000  Uiso   1.00
H346   H     0.73365   0.49224   0.45585   0.00000  Uiso   1.00
H347   H     0.79143   0.39541   0.37424   0.00000  Uiso   1.00
H348   H     0.73736   0.36805   0.54962   0.00000  Uiso   1.00
H349   H     0.68601   0.73262   0.44817   0.00000  Uiso   1.00
H350   H     0.83365   0.25746   0.27678   0.00000  Uiso   1.00
H351   H     0.71964   0.19981   0.64658   0.00000  Uiso   1.00
H352   H     0.61134   0.96856   0.43266   0.00000  Uiso   1.00
H353   H     0.56535   0.25675   0.40205   0.00000  Uiso   1.00
H354   H     0.61389   0.14700   0.31747   0.00000  Uiso   1.00
H355   H     0.55983   0.11964   0.49285   0.00000  Uiso   1.00
H356   H     0.50847   0.48420   0.39141   0.00000  Uiso   1.00
H357   H     0.68956   0.05584   0.23071   0.00000  Uiso   1.00
H358   H     0.57555   0.99818   0.60052   0.00000  Uiso   1.00
H359   H     0.46725   0.76694   0.38659   0.00000  Uiso   1.00
O360   O     0.79658   0.08867   0.19910   0.00000  Uiso   1.00
O361   O     0.64700   0.01305   0.68427   0.00000  Uiso   1.00
O362   O     0.50492   0.02163   0.40360   0.00000  Uiso   1.00
N363   N     0.79307   0.22509   0.27754   0.00000  Uiso   1.00
N364   N     0.68649   0.17117   0.62328   0.00000  Uiso   1.00
N365   N     0.58523   0.88989   0.42329   0.00000  Uiso   1.00
N366   N     0.71554   0.11660   0.25275   0.00000  Uiso   1.00
N367   N     0.60895   0.06268   0.59849   0.00000  Uiso   1.00
N368   N     0.50770   0.78140   0.39850   0.00000  Uiso   1.00
