data_job_03496
_audit_creation_date              2018-12-19
_audit_creation_method            'Materials Studio'
_symmetry_space_group_name_H-M    'P1'
_symmetry_Int_Tables_number       1
_symmetry_cell_setting            triclinic
loop_
_symmetry_equiv_pos_as_xyz
  x,y,z
_cell_length_a                    25.1668
_cell_length_b                    17.2414
_cell_length_c                    19.5802
_cell_angle_alpha                 90.0000
_cell_angle_beta                  141.8722
_cell_angle_gamma                 90.0000
loop_
_atom_site_label
_atom_site_type_symbol
_atom_site_fract_x
_atom_site_fract_y
_atom_site_fract_z
_atom_site_U_iso_or_equiv
_atom_site_adp_type
_atom_site_occupancy
C1     C     0.87653   0.27052   0.42079   0.00000  Uiso   1.00
C2     C     0.86134   0.24019   0.33328   0.00000  Uiso   1.00
C3     C     0.91823   0.19506   0.35328   0.00000  Uiso   1.00
C4     C     0.89239   0.17322   0.26207   0.00000  Uiso   1.00
C5     C     0.88098   0.12273   0.14251   0.00000  Uiso   1.00
C6     C     0.86640   0.35837   0.40648   0.00000  Uiso   1.00
C7     C     0.92752   0.41260   0.48803   0.00000  Uiso   1.00
C8     C     0.90593   0.49025   0.45843   0.00000  Uiso   1.00
C9     C     0.90234   0.62324   0.45254   0.00000  Uiso   1.00
C10    C     0.80109   0.24141   0.38723   0.00000  Uiso   1.00
C11    C     0.80731   0.19732   0.45261   0.00000  Uiso   1.00
C12    C     0.73074   0.17651   0.40682   0.00000  Uiso   1.00
C13    C     0.62575   0.12790   0.37104   0.00000  Uiso   1.00
C14    C     0.72950   0.31197   0.22322   0.00000  Uiso   1.00
C15    C     0.78148   0.26271   0.22597   0.00000  Uiso   1.00
C16    C     0.75555   0.24092   0.13469   0.00000  Uiso   1.00
C17    C     0.81239   0.19577   0.15456   0.00000  Uiso   1.00
C18    C     0.78654   0.38088   0.29917   0.00000  Uiso   1.00
C19    C     0.76485   0.45847   0.26944   0.00000  Uiso   1.00
C20    C     0.82593   0.51281   0.35093   0.00000  Uiso   1.00
C21    C     0.72123   0.26392   0.27992   0.00000  Uiso   1.00
C22    C     0.64463   0.24318   0.23402   0.00000  Uiso   1.00
C23    C     0.65073   0.19907   0.29931   0.00000  Uiso   1.00
H24    H     0.93871   0.25299   0.50434   0.00000  Uiso   1.00
H25    H     0.98003   0.17765   0.43635   0.00000  Uiso   1.00
H26    H     0.98932   0.39516   0.57107   0.00000  Uiso   1.00
H27    H     0.86912   0.17991   0.53565   0.00000  Uiso   1.00
H28    H     0.99063   0.10408   0.31364   0.00000  Uiso   1.00
H29    H     0.01021   0.56271   0.59773   0.00000  Uiso   1.00
H30    H     0.75675   0.10881   0.52304   0.00000  Uiso   1.00
H31    H     0.66732   0.32950   0.13967   0.00000  Uiso   1.00
H32    H     0.69375   0.25836   0.05166   0.00000  Uiso   1.00
H33    H     0.70304   0.47587   0.18639   0.00000  Uiso   1.00
H34    H     0.58284   0.26062   0.15097   0.00000  Uiso   1.00
H35    H     0.75828   0.16958   0.00141   0.00000  Uiso   1.00
H36    H     0.77786   0.62822   0.28551   0.00000  Uiso   1.00
H37    H     0.52440   0.17431   0.21082   0.00000  Uiso   1.00
O38    O     0.89675   0.08867   0.10621   0.00000  Uiso   1.00
O39    O     0.92243   0.69038   0.47893   0.00000  Uiso   1.00
O40    O     0.58990   0.09487   0.38095   0.00000  Uiso   1.00
N41    N     0.93232   0.12925   0.25223   0.00000  Uiso   1.00
N42    N     0.95063   0.55804   0.51783   0.00000  Uiso   1.00
N43    N     0.71366   0.13370   0.44802   0.00000  Uiso   1.00
N44    N     0.80729   0.16449   0.08423   0.00000  Uiso   1.00
N45    N     0.82560   0.59329   0.34983   0.00000  Uiso   1.00
N46    N     0.58864   0.16894   0.28002   0.00000  Uiso   1.00
C47    C     0.37653   0.77052   0.42079   0.00000  Uiso   1.00
C48    C     0.36134   0.74019   0.33328   0.00000  Uiso   1.00
C49    C     0.41823   0.69506   0.35328   0.00000  Uiso   1.00
C50    C     0.39239   0.67322   0.26207   0.00000  Uiso   1.00
C51    C     0.38098   0.62273   0.14251   0.00000  Uiso   1.00
C52    C     0.36640   0.85837   0.40648   0.00000  Uiso   1.00
C53    C     0.42752   0.91260   0.48803   0.00000  Uiso   1.00
C54    C     0.40593   0.99025   0.45843   0.00000  Uiso   1.00
C55    C     0.40234   0.12324   0.45254   0.00000  Uiso   1.00
C56    C     0.30109   0.74141   0.38723   0.00000  Uiso   1.00
C57    C     0.30731   0.69732   0.45261   0.00000  Uiso   1.00
C58    C     0.23074   0.67651   0.40682   0.00000  Uiso   1.00
C59    C     0.12575   0.62790   0.37104   0.00000  Uiso   1.00
C60    C     0.22950   0.81197   0.22322   0.00000  Uiso   1.00
C61    C     0.28148   0.76271   0.22597   0.00000  Uiso   1.00
C62    C     0.25555   0.74092   0.13469   0.00000  Uiso   1.00
C63    C     0.31239   0.69577   0.15456   0.00000  Uiso   1.00
C64    C     0.28654   0.88088   0.29917   0.00000  Uiso   1.00
C65    C     0.26485   0.95847   0.26944   0.00000  Uiso   1.00
C66    C     0.32593   0.01281   0.35093   0.00000  Uiso   1.00
C67    C     0.22123   0.76392   0.27992   0.00000  Uiso   1.00
C68    C     0.14463   0.74318   0.23402   0.00000  Uiso   1.00
C69    C     0.15073   0.69907   0.29931   0.00000  Uiso   1.00
H70    H     0.43871   0.75299   0.50434   0.00000  Uiso   1.00
H71    H     0.48003   0.67765   0.43635   0.00000  Uiso   1.00
H72    H     0.48932   0.89516   0.57107   0.00000  Uiso   1.00
H73    H     0.36912   0.67991   0.53565   0.00000  Uiso   1.00
H74    H     0.49063   0.60408   0.31364   0.00000  Uiso   1.00
H75    H     0.51021   0.06271   0.59773   0.00000  Uiso   1.00
H76    H     0.25675   0.60881   0.52304   0.00000  Uiso   1.00
H77    H     0.16732   0.82950   0.13967   0.00000  Uiso   1.00
H78    H     0.19375   0.75836   0.05166   0.00000  Uiso   1.00
H79    H     0.20304   0.97587   0.18639   0.00000  Uiso   1.00
H80    H     0.08284   0.76062   0.15097   0.00000  Uiso   1.00
H81    H     0.25828   0.66958   0.00141   0.00000  Uiso   1.00
H82    H     0.27786   0.12822   0.28551   0.00000  Uiso   1.00
H83    H     0.02440   0.67431   0.21082   0.00000  Uiso   1.00
O84    O     0.39675   0.58867   0.10621   0.00000  Uiso   1.00
O85    O     0.42243   0.19038   0.47893   0.00000  Uiso   1.00
O86    O     0.08990   0.59487   0.38095   0.00000  Uiso   1.00
N87    N     0.43232   0.62925   0.25223   0.00000  Uiso   1.00
N88    N     0.45063   0.05804   0.51783   0.00000  Uiso   1.00
N89    N     0.21366   0.63370   0.44802   0.00000  Uiso   1.00
N90    N     0.30729   0.66449   0.08423   0.00000  Uiso   1.00
N91    N     0.32560   0.09329   0.34983   0.00000  Uiso   1.00
N92    N     0.08864   0.66894   0.28002   0.00000  Uiso   1.00
C93    C     0.12347   0.27052   0.07921   0.00000  Uiso   1.00
C94    C     0.13866   0.24019   0.16672   0.00000  Uiso   1.00
C95    C     0.08177   0.19506   0.14672   0.00000  Uiso   1.00
C96    C     0.10761   0.17322   0.23793   0.00000  Uiso   1.00
C97    C     0.11902   0.12273   0.35749   0.00000  Uiso   1.00
C98    C     0.13360   0.35837   0.09352   0.00000  Uiso   1.00
C99    C     0.07248   0.41260   0.01197   0.00000  Uiso   1.00
C100   C     0.09407   0.49025   0.04157   0.00000  Uiso   1.00
C101   C     0.09766   0.62324   0.04746   0.00000  Uiso   1.00
C102   C     0.19891   0.24141   0.11277   0.00000  Uiso   1.00
C103   C     0.19269   0.19732   0.04739   0.00000  Uiso   1.00
C104   C     0.26926   0.17651   0.09318   0.00000  Uiso   1.00
C105   C     0.37425   0.12790   0.12896   0.00000  Uiso   1.00
C106   C     0.27050   0.31197   0.27678   0.00000  Uiso   1.00
C107   C     0.21852   0.26271   0.27403   0.00000  Uiso   1.00
C108   C     0.24445   0.24092   0.36531   0.00000  Uiso   1.00
C109   C     0.18761   0.19577   0.34544   0.00000  Uiso   1.00
C110   C     0.21346   0.38088   0.20083   0.00000  Uiso   1.00
C111   C     0.23515   0.45847   0.23056   0.00000  Uiso   1.00
C112   C     0.17407   0.51281   0.14907   0.00000  Uiso   1.00
C113   C     0.27877   0.26392   0.22008   0.00000  Uiso   1.00
C114   C     0.35537   0.24318   0.26598   0.00000  Uiso   1.00
C115   C     0.34927   0.19907   0.20069   0.00000  Uiso   1.00
H116   H     0.06129   0.25299   0.99566   0.00000  Uiso   1.00
H117   H     0.01997   0.17765   0.06365   0.00000  Uiso   1.00
H118   H     0.01068   0.39516   0.92893   0.00000  Uiso   1.00
H119   H     0.13088   0.17991   0.96435   0.00000  Uiso   1.00
H120   H     0.00937   0.10408   0.18636   0.00000  Uiso   1.00
H121   H     0.98979   0.56271   0.90227   0.00000  Uiso   1.00
H122   H     0.24325   0.10881   0.97696   0.00000  Uiso   1.00
H123   H     0.33268   0.32950   0.36033   0.00000  Uiso   1.00
H124   H     0.30625   0.25836   0.44834   0.00000  Uiso   1.00
H125   H     0.29696   0.47587   0.31361   0.00000  Uiso   1.00
H126   H     0.41716   0.26062   0.34903   0.00000  Uiso   1.00
H127   H     0.24172   0.16958   0.49859   0.00000  Uiso   1.00
H128   H     0.22214   0.62822   0.21449   0.00000  Uiso   1.00
H129   H     0.47560   0.17431   0.28918   0.00000  Uiso   1.00
O130   O     0.10325   0.08867   0.39379   0.00000  Uiso   1.00
O131   O     0.07757   0.69038   0.02107   0.00000  Uiso   1.00
O132   O     0.41010   0.09487   0.11905   0.00000  Uiso   1.00
N133   N     0.06768   0.12925   0.24777   0.00000  Uiso   1.00
N134   N     0.04937   0.55804   0.98217   0.00000  Uiso   1.00
N135   N     0.28634   0.13370   0.05198   0.00000  Uiso   1.00
N136   N     0.19271   0.16449   0.41577   0.00000  Uiso   1.00
N137   N     0.17440   0.59329   0.15017   0.00000  Uiso   1.00
N138   N     0.41136   0.16894   0.21998   0.00000  Uiso   1.00
C139   C     0.62347   0.77052   0.07921   0.00000  Uiso   1.00
C140   C     0.63866   0.74019   0.16672   0.00000  Uiso   1.00
C141   C     0.58177   0.69506   0.14672   0.00000  Uiso   1.00
C142   C     0.60761   0.67322   0.23793   0.00000  Uiso   1.00
C143   C     0.61902   0.62273   0.35749   0.00000  Uiso   1.00
C144   C     0.63360   0.85837   0.09352   0.00000  Uiso   1.00
C145   C     0.57248   0.91260   0.01197   0.00000  Uiso   1.00
C146   C     0.59407   0.99025   0.04157   0.00000  Uiso   1.00
C147   C     0.59766   0.12324   0.04746   0.00000  Uiso   1.00
C148   C     0.69891   0.74141   0.11277   0.00000  Uiso   1.00
C149   C     0.69269   0.69732   0.04739   0.00000  Uiso   1.00
C150   C     0.76926   0.67651   0.09318   0.00000  Uiso   1.00
C151   C     0.87425   0.62790   0.12896   0.00000  Uiso   1.00
C152   C     0.77050   0.81197   0.27678   0.00000  Uiso   1.00
C153   C     0.71852   0.76271   0.27403   0.00000  Uiso   1.00
C154   C     0.74445   0.74092   0.36531   0.00000  Uiso   1.00
C155   C     0.68761   0.69577   0.34544   0.00000  Uiso   1.00
C156   C     0.71346   0.88088   0.20083   0.00000  Uiso   1.00
C157   C     0.73515   0.95847   0.23056   0.00000  Uiso   1.00
C158   C     0.67407   0.01281   0.14907   0.00000  Uiso   1.00
C159   C     0.77877   0.76392   0.22008   0.00000  Uiso   1.00
C160   C     0.85537   0.74318   0.26598   0.00000  Uiso   1.00
C161   C     0.84927   0.69907   0.20069   0.00000  Uiso   1.00
H162   H     0.56129   0.75299   0.99566   0.00000  Uiso   1.00
H163   H     0.51997   0.67765   0.06365   0.00000  Uiso   1.00
H164   H     0.51068   0.89516   0.92893   0.00000  Uiso   1.00
H165   H     0.63088   0.67991   0.96435   0.00000  Uiso   1.00
H166   H     0.50937   0.60408   0.18636   0.00000  Uiso   1.00
H167   H     0.48979   0.06271   0.90227   0.00000  Uiso   1.00
H168   H     0.74325   0.60881   0.97696   0.00000  Uiso   1.00
H169   H     0.83268   0.82950   0.36033   0.00000  Uiso   1.00
H170   H     0.80625   0.75836   0.44834   0.00000  Uiso   1.00
H171   H     0.79696   0.97587   0.31361   0.00000  Uiso   1.00
H172   H     0.91716   0.76062   0.34903   0.00000  Uiso   1.00
H173   H     0.74172   0.66958   0.49859   0.00000  Uiso   1.00
H174   H     0.72214   0.12822   0.21449   0.00000  Uiso   1.00
H175   H     0.97560   0.67431   0.28918   0.00000  Uiso   1.00
O176   O     0.60325   0.58867   0.39379   0.00000  Uiso   1.00
O177   O     0.57757   0.19038   0.02107   0.00000  Uiso   1.00
O178   O     0.91010   0.59487   0.11905   0.00000  Uiso   1.00
N179   N     0.56768   0.62925   0.24777   0.00000  Uiso   1.00
N180   N     0.54937   0.05804   0.98217   0.00000  Uiso   1.00
N181   N     0.78634   0.63370   0.05198   0.00000  Uiso   1.00
N182   N     0.69271   0.66449   0.41577   0.00000  Uiso   1.00
N183   N     0.67440   0.09329   0.15017   0.00000  Uiso   1.00
N184   N     0.91136   0.66894   0.21998   0.00000  Uiso   1.00
C185   C     0.12347   0.72948   0.57921   0.00000  Uiso   1.00
C186   C     0.13866   0.75981   0.66672   0.00000  Uiso   1.00
C187   C     0.08177   0.80494   0.64672   0.00000  Uiso   1.00
C188   C     0.10761   0.82678   0.73793   0.00000  Uiso   1.00
C189   C     0.11902   0.87727   0.85749   0.00000  Uiso   1.00
C190   C     0.13360   0.64163   0.59352   0.00000  Uiso   1.00
C191   C     0.07248   0.58740   0.51197   0.00000  Uiso   1.00
C192   C     0.09407   0.50975   0.54157   0.00000  Uiso   1.00
C193   C     0.09766   0.37676   0.54746   0.00000  Uiso   1.00
C194   C     0.19891   0.75859   0.61277   0.00000  Uiso   1.00
C195   C     0.19269   0.80268   0.54739   0.00000  Uiso   1.00
C196   C     0.26926   0.82349   0.59318   0.00000  Uiso   1.00
C197   C     0.37425   0.87210   0.62896   0.00000  Uiso   1.00
C198   C     0.27050   0.68803   0.77678   0.00000  Uiso   1.00
C199   C     0.21852   0.73729   0.77403   0.00000  Uiso   1.00
C200   C     0.24445   0.75908   0.86531   0.00000  Uiso   1.00
C201   C     0.18761   0.80423   0.84544   0.00000  Uiso   1.00
C202   C     0.21346   0.61912   0.70083   0.00000  Uiso   1.00
C203   C     0.23515   0.54153   0.73056   0.00000  Uiso   1.00
C204   C     0.17407   0.48719   0.64907   0.00000  Uiso   1.00
C205   C     0.27877   0.73608   0.72008   0.00000  Uiso   1.00
C206   C     0.35537   0.75682   0.76598   0.00000  Uiso   1.00
C207   C     0.34927   0.80093   0.70069   0.00000  Uiso   1.00
H208   H     0.06129   0.74701   0.49566   0.00000  Uiso   1.00
H209   H     0.01997   0.82235   0.56365   0.00000  Uiso   1.00
H210   H     0.01068   0.60484   0.42893   0.00000  Uiso   1.00
H211   H     0.13088   0.82009   0.46435   0.00000  Uiso   1.00
H212   H     0.00937   0.89592   0.68636   0.00000  Uiso   1.00
H213   H     0.98979   0.43729   0.40227   0.00000  Uiso   1.00
H214   H     0.24325   0.89119   0.47696   0.00000  Uiso   1.00
H215   H     0.33268   0.67050   0.86033   0.00000  Uiso   1.00
H216   H     0.30625   0.74164   0.94834   0.00000  Uiso   1.00
H217   H     0.29696   0.52413   0.81361   0.00000  Uiso   1.00
H218   H     0.41716   0.73938   0.84903   0.00000  Uiso   1.00
H219   H     0.24172   0.83042   0.99859   0.00000  Uiso   1.00
H220   H     0.22214   0.37178   0.71449   0.00000  Uiso   1.00
H221   H     0.47560   0.82569   0.78918   0.00000  Uiso   1.00
O222   O     0.10325   0.91133   0.89379   0.00000  Uiso   1.00
O223   O     0.07757   0.30962   0.52107   0.00000  Uiso   1.00
O224   O     0.41010   0.90513   0.61905   0.00000  Uiso   1.00
N225   N     0.06768   0.87075   0.74777   0.00000  Uiso   1.00
N226   N     0.04937   0.44196   0.48217   0.00000  Uiso   1.00
N227   N     0.28634   0.86630   0.55198   0.00000  Uiso   1.00
N228   N     0.19271   0.83551   0.91577   0.00000  Uiso   1.00
N229   N     0.17440   0.40671   0.65017   0.00000  Uiso   1.00
N230   N     0.41136   0.83106   0.71998   0.00000  Uiso   1.00
C231   C     0.62347   0.22948   0.57921   0.00000  Uiso   1.00
C232   C     0.63866   0.25981   0.66672   0.00000  Uiso   1.00
C233   C     0.58177   0.30494   0.64672   0.00000  Uiso   1.00
C234   C     0.60761   0.32678   0.73793   0.00000  Uiso   1.00
C235   C     0.61902   0.37727   0.85749   0.00000  Uiso   1.00
C236   C     0.63360   0.14163   0.59352   0.00000  Uiso   1.00
C237   C     0.57248   0.08740   0.51197   0.00000  Uiso   1.00
C238   C     0.59407   0.00975   0.54157   0.00000  Uiso   1.00
C239   C     0.59766   0.87676   0.54746   0.00000  Uiso   1.00
C240   C     0.69891   0.25859   0.61277   0.00000  Uiso   1.00
C241   C     0.69269   0.30268   0.54739   0.00000  Uiso   1.00
C242   C     0.76926   0.32349   0.59318   0.00000  Uiso   1.00
C243   C     0.87425   0.37210   0.62896   0.00000  Uiso   1.00
C244   C     0.77050   0.18803   0.77678   0.00000  Uiso   1.00
C245   C     0.71852   0.23729   0.77403   0.00000  Uiso   1.00
C246   C     0.74445   0.25908   0.86531   0.00000  Uiso   1.00
C247   C     0.68761   0.30423   0.84544   0.00000  Uiso   1.00
C248   C     0.71346   0.11912   0.70083   0.00000  Uiso   1.00
C249   C     0.73515   0.04153   0.73056   0.00000  Uiso   1.00
C250   C     0.67407   0.98719   0.64907   0.00000  Uiso   1.00
C251   C     0.77877   0.23608   0.72008   0.00000  Uiso   1.00
C252   C     0.85537   0.25682   0.76598   0.00000  Uiso   1.00
C253   C     0.84927   0.30093   0.70069   0.00000  Uiso   1.00
H254   H     0.56129   0.24701   0.49566   0.00000  Uiso   1.00
H255   H     0.51997   0.32235   0.56365   0.00000  Uiso   1.00
H256   H     0.51068   0.10484   0.42893   0.00000  Uiso   1.00
H257   H     0.63088   0.32009   0.46435   0.00000  Uiso   1.00
H258   H     0.50937   0.39592   0.68636   0.00000  Uiso   1.00
H259   H     0.48979   0.93729   0.40227   0.00000  Uiso   1.00
H260   H     0.74325   0.39119   0.47696   0.00000  Uiso   1.00
H261   H     0.83268   0.17050   0.86033   0.00000  Uiso   1.00
H262   H     0.80625   0.24164   0.94834   0.00000  Uiso   1.00
H263   H     0.79696   0.02413   0.81361   0.00000  Uiso   1.00
H264   H     0.91716   0.23938   0.84903   0.00000  Uiso   1.00
H265   H     0.74172   0.33042   0.99859   0.00000  Uiso   1.00
H266   H     0.72214   0.87178   0.71449   0.00000  Uiso   1.00
H267   H     0.97560   0.32569   0.78918   0.00000  Uiso   1.00
O268   O     0.60325   0.41133   0.89379   0.00000  Uiso   1.00
O269   O     0.57757   0.80962   0.52107   0.00000  Uiso   1.00
O270   O     0.91010   0.40513   0.61905   0.00000  Uiso   1.00
N271   N     0.56768   0.37075   0.74777   0.00000  Uiso   1.00
N272   N     0.54937   0.94196   0.48217   0.00000  Uiso   1.00
N273   N     0.78634   0.36630   0.55198   0.00000  Uiso   1.00
N274   N     0.69271   0.33551   0.91577   0.00000  Uiso   1.00
N275   N     0.67440   0.90671   0.65017   0.00000  Uiso   1.00
N276   N     0.91136   0.33106   0.71998   0.00000  Uiso   1.00
C277   C     0.87653   0.72948   0.92079   0.00000  Uiso   1.00
C278   C     0.86134   0.75981   0.83328   0.00000  Uiso   1.00
C279   C     0.91823   0.80494   0.85328   0.00000  Uiso   1.00
C280   C     0.89239   0.82678   0.76207   0.00000  Uiso   1.00
C281   C     0.88098   0.87727   0.64251   0.00000  Uiso   1.00
C282   C     0.86640   0.64163   0.90648   0.00000  Uiso   1.00
C283   C     0.92752   0.58740   0.98803   0.00000  Uiso   1.00
C284   C     0.90593   0.50975   0.95843   0.00000  Uiso   1.00
C285   C     0.90234   0.37676   0.95254   0.00000  Uiso   1.00
C286   C     0.80109   0.75859   0.88723   0.00000  Uiso   1.00
C287   C     0.80731   0.80268   0.95261   0.00000  Uiso   1.00
C288   C     0.73074   0.82349   0.90682   0.00000  Uiso   1.00
C289   C     0.62575   0.87210   0.87104   0.00000  Uiso   1.00
C290   C     0.72950   0.68803   0.72322   0.00000  Uiso   1.00
C291   C     0.78148   0.73729   0.72597   0.00000  Uiso   1.00
C292   C     0.75555   0.75908   0.63469   0.00000  Uiso   1.00
C293   C     0.81239   0.80423   0.65456   0.00000  Uiso   1.00
C294   C     0.78654   0.61912   0.79917   0.00000  Uiso   1.00
C295   C     0.76485   0.54153   0.76944   0.00000  Uiso   1.00
C296   C     0.82593   0.48719   0.85093   0.00000  Uiso   1.00
C297   C     0.72123   0.73608   0.77992   0.00000  Uiso   1.00
C298   C     0.64463   0.75682   0.73402   0.00000  Uiso   1.00
C299   C     0.65073   0.80093   0.79931   0.00000  Uiso   1.00
H300   H     0.93871   0.74701   0.00434   0.00000  Uiso   1.00
H301   H     0.98003   0.82235   0.93635   0.00000  Uiso   1.00
H302   H     0.98932   0.60484   0.07107   0.00000  Uiso   1.00
H303   H     0.86912   0.82009   0.03565   0.00000  Uiso   1.00
H304   H     0.99063   0.89592   0.81364   0.00000  Uiso   1.00
H305   H     0.01021   0.43729   0.09773   0.00000  Uiso   1.00
H306   H     0.75675   0.89119   0.02304   0.00000  Uiso   1.00
H307   H     0.66732   0.67050   0.63967   0.00000  Uiso   1.00
H308   H     0.69375   0.74164   0.55166   0.00000  Uiso   1.00
H309   H     0.70304   0.52413   0.68639   0.00000  Uiso   1.00
H310   H     0.58284   0.73938   0.65097   0.00000  Uiso   1.00
H311   H     0.75828   0.83042   0.50141   0.00000  Uiso   1.00
H312   H     0.77786   0.37178   0.78551   0.00000  Uiso   1.00
H313   H     0.52440   0.82569   0.71082   0.00000  Uiso   1.00
O314   O     0.89675   0.91133   0.60621   0.00000  Uiso   1.00
O315   O     0.92243   0.30962   0.97893   0.00000  Uiso   1.00
O316   O     0.58990   0.90513   0.88095   0.00000  Uiso   1.00
N317   N     0.93232   0.87075   0.75223   0.00000  Uiso   1.00
N318   N     0.95063   0.44196   0.01783   0.00000  Uiso   1.00
N319   N     0.71366   0.86630   0.94802   0.00000  Uiso   1.00
N320   N     0.80729   0.83551   0.58423   0.00000  Uiso   1.00
N321   N     0.82560   0.40671   0.84983   0.00000  Uiso   1.00
N322   N     0.58864   0.83106   0.78002   0.00000  Uiso   1.00
C323   C     0.37653   0.22948   0.92079   0.00000  Uiso   1.00
C324   C     0.36134   0.25981   0.83328   0.00000  Uiso   1.00
C325   C     0.41823   0.30494   0.85328   0.00000  Uiso   1.00
C326   C     0.39239   0.32678   0.76207   0.00000  Uiso   1.00
C327   C     0.38098   0.37727   0.64251   0.00000  Uiso   1.00
C328   C     0.36640   0.14163   0.90648   0.00000  Uiso   1.00
C329   C     0.42752   0.08740   0.98803   0.00000  Uiso   1.00
C330   C     0.40593   0.00975   0.95843   0.00000  Uiso   1.00
C331   C     0.40234   0.87676   0.95254   0.00000  Uiso   1.00
C332   C     0.30109   0.25859   0.88723   0.00000  Uiso   1.00
C333   C     0.30731   0.30268   0.95261   0.00000  Uiso   1.00
C334   C     0.23074   0.32349   0.90682   0.00000  Uiso   1.00
C335   C     0.12575   0.37210   0.87104   0.00000  Uiso   1.00
C336   C     0.22950   0.18803   0.72322   0.00000  Uiso   1.00
C337   C     0.28148   0.23729   0.72597   0.00000  Uiso   1.00
C338   C     0.25555   0.25908   0.63469   0.00000  Uiso   1.00
C339   C     0.31239   0.30423   0.65456   0.00000  Uiso   1.00
C340   C     0.28654   0.11912   0.79917   0.00000  Uiso   1.00
C341   C     0.26485   0.04153   0.76944   0.00000  Uiso   1.00
C342   C     0.32593   0.98719   0.85093   0.00000  Uiso   1.00
C343   C     0.22123   0.23608   0.77992   0.00000  Uiso   1.00
C344   C     0.14463   0.25682   0.73402   0.00000  Uiso   1.00
C345   C     0.15073   0.30093   0.79931   0.00000  Uiso   1.00
H346   H     0.43871   0.24701   0.00434   0.00000  Uiso   1.00
H347   H     0.48003   0.32235   0.93635   0.00000  Uiso   1.00
H348   H     0.48932   0.10484   0.07107   0.00000  Uiso   1.00
H349   H     0.36912   0.32009   0.03565   0.00000  Uiso   1.00
H350   H     0.49063   0.39592   0.81364   0.00000  Uiso   1.00
H351   H     0.51021   0.93729   0.09773   0.00000  Uiso   1.00
H352   H     0.25675   0.39119   0.02304   0.00000  Uiso   1.00
H353   H     0.16732   0.17050   0.63967   0.00000  Uiso   1.00
H354   H     0.19375   0.24164   0.55166   0.00000  Uiso   1.00
H355   H     0.20304   0.02413   0.68639   0.00000  Uiso   1.00
H356   H     0.08284   0.23938   0.65097   0.00000  Uiso   1.00
H357   H     0.25828   0.33042   0.50141   0.00000  Uiso   1.00
H358   H     0.27786   0.87178   0.78551   0.00000  Uiso   1.00
H359   H     0.02440   0.32569   0.71082   0.00000  Uiso   1.00
O360   O     0.39675   0.41133   0.60621   0.00000  Uiso   1.00
O361   O     0.42243   0.80962   0.97893   0.00000  Uiso   1.00
O362   O     0.08990   0.40513   0.88095   0.00000  Uiso   1.00
N363   N     0.43232   0.37075   0.75223   0.00000  Uiso   1.00
N364   N     0.45063   0.94196   0.01783   0.00000  Uiso   1.00
N365   N     0.21366   0.36630   0.94802   0.00000  Uiso   1.00
N366   N     0.30729   0.33551   0.58423   0.00000  Uiso   1.00
N367   N     0.32560   0.90671   0.84983   0.00000  Uiso   1.00
N368   N     0.08864   0.33106   0.78002   0.00000  Uiso   1.00
