data_job_05019
_audit_creation_date              2018-12-19
_audit_creation_method            'Materials Studio'
_symmetry_space_group_name_H-M    'P1'
_symmetry_Int_Tables_number       1
_symmetry_cell_setting            triclinic
loop_
_symmetry_equiv_pos_as_xyz
  x,y,z
_cell_length_a                    17.1984
_cell_length_b                    31.1773
_cell_length_c                    9.5852
_cell_angle_alpha                 90.0000
_cell_angle_beta                  90.0000
_cell_angle_gamma                 90.0000
loop_
_atom_site_label
_atom_site_type_symbol
_atom_site_fract_x
_atom_site_fract_y
_atom_site_fract_z
_atom_site_U_iso_or_equiv
_atom_site_adp_type
_atom_site_occupancy
C1     C     0.34207   0.06563   0.27546   0.00000  Uiso   1.00
C2     C     0.34110   0.10326   0.37709   0.00000  Uiso   1.00
C3     C     0.34212   0.10018   0.52152   0.00000  Uiso   1.00
C4     C     0.34094   0.13837   0.59603   0.00000  Uiso   1.00
C5     C     0.33972   0.19073   0.76413   0.00000  Uiso   1.00
C6     C     0.27042   0.07101   0.18340   0.00000  Uiso   1.00
C7     C     0.21201   0.04083   0.16495   0.00000  Uiso   1.00
C8     C     0.15134   0.05187   0.07639   0.00000  Uiso   1.00
C9     C     0.04041   0.05416   0.94369   0.00000  Uiso   1.00
C10    C     0.41203   0.07284   0.18057   0.00000  Uiso   1.00
C11    C     0.47267   0.04418   0.15970   0.00000  Uiso   1.00
C12    C     0.53122   0.05676   0.06873   0.00000  Uiso   1.00
C13    C     0.64015   0.06189   0.93164   0.00000  Uiso   1.00
C14    C     0.33819   0.13891   0.15096   0.00000  Uiso   1.00
C15    C     0.33899   0.14306   0.30947   0.00000  Uiso   1.00
C16    C     0.33782   0.18126   0.38378   0.00000  Uiso   1.00
C17    C     0.33883   0.17824   0.52829   0.00000  Uiso   1.00
C18    C     0.26831   0.11081   0.11577   0.00000  Uiso   1.00
C19    C     0.20772   0.12190   0.02721   0.00000  Uiso   1.00
C20    C     0.14923   0.09174   0.00864   0.00000  Uiso   1.00
C21    C     0.40992   0.11264   0.11294   0.00000  Uiso   1.00
C22    C     0.46838   0.12526   0.02197   0.00000  Uiso   1.00
C23    C     0.52911   0.09663   0.00098   0.00000  Uiso   1.00
H24    H     0.34371   0.03465   0.32810   0.00000  Uiso   1.00
H25    H     0.34374   0.06938   0.57381   0.00000  Uiso   1.00
H26    H     0.21366   0.01003   0.21729   0.00000  Uiso   1.00
H27    H     0.47428   0.01339   0.21205   0.00000  Uiso   1.00
H28    H     0.34282   0.12544   0.81641   0.00000  Uiso   1.00
H29    H     0.06855   0.00029   0.06462   0.00000  Uiso   1.00
H30    H     0.61812   0.00737   0.05357   0.00000  Uiso   1.00
H31    H     0.33655   0.16989   0.09831   0.00000  Uiso   1.00
H32    H     0.33619   0.21205   0.33142   0.00000  Uiso   1.00
H33    H     0.20611   0.15270   0.97489   0.00000  Uiso   1.00
H34    H     0.46673   0.15606   0.96966   0.00000  Uiso   1.00
H35    H     0.33668   0.24123   0.61967   0.00000  Uiso   1.00
H36    H     0.06242   0.11609   0.86788   0.00000  Uiso   1.00
H37    H     0.61199   0.12317   0.85684   0.00000  Uiso   1.00
O38    O     0.33961   0.20862   0.87554   0.00000  Uiso   1.00
O39    O     0.97980   0.04443   0.88920   0.00000  Uiso   1.00
O40    O     0.70082   0.05373   0.87472   0.00000  Uiso   1.00
N41    N     0.34144   0.14690   0.73812   0.00000  Uiso   1.00
N42    N     0.08501   0.02990   0.03526   0.00000  Uiso   1.00
N43    N     0.59880   0.03652   0.02490   0.00000  Uiso   1.00
N44    N     0.33814   0.20921   0.63225   0.00000  Uiso   1.00
N45    N     0.08171   0.09221   0.92939   0.00000  Uiso   1.00
N46    N     0.59550   0.09883   0.91904   0.00000  Uiso   1.00
C47    C     0.15793   0.93437   0.77546   0.00000  Uiso   1.00
C48    C     0.15890   0.89674   0.87709   0.00000  Uiso   1.00
C49    C     0.15788   0.89982   0.02152   0.00000  Uiso   1.00
C50    C     0.15906   0.86163   0.09603   0.00000  Uiso   1.00
C51    C     0.16028   0.80927   0.26413   0.00000  Uiso   1.00
C52    C     0.22958   0.92899   0.68340   0.00000  Uiso   1.00
C53    C     0.28799   0.95917   0.66495   0.00000  Uiso   1.00
C54    C     0.34866   0.94813   0.57639   0.00000  Uiso   1.00
C55    C     0.45959   0.94584   0.44369   0.00000  Uiso   1.00
C56    C     0.08797   0.92716   0.68057   0.00000  Uiso   1.00
C57    C     0.02733   0.95582   0.65970   0.00000  Uiso   1.00
C58    C     0.96878   0.94324   0.56873   0.00000  Uiso   1.00
C59    C     0.85985   0.93811   0.43164   0.00000  Uiso   1.00
C60    C     0.16181   0.86109   0.65096   0.00000  Uiso   1.00
C61    C     0.16101   0.85694   0.80947   0.00000  Uiso   1.00
C62    C     0.16218   0.81874   0.88378   0.00000  Uiso   1.00
C63    C     0.16117   0.82176   0.02829   0.00000  Uiso   1.00
C64    C     0.23169   0.88919   0.61577   0.00000  Uiso   1.00
C65    C     0.29228   0.87810   0.52721   0.00000  Uiso   1.00
C66    C     0.35077   0.90826   0.50864   0.00000  Uiso   1.00
C67    C     0.09008   0.88736   0.61294   0.00000  Uiso   1.00
C68    C     0.03162   0.87474   0.52197   0.00000  Uiso   1.00
C69    C     0.97089   0.90337   0.50098   0.00000  Uiso   1.00
H70    H     0.15629   0.96535   0.82810   0.00000  Uiso   1.00
H71    H     0.15626   0.93062   0.07381   0.00000  Uiso   1.00
H72    H     0.28634   0.98997   0.71729   0.00000  Uiso   1.00
H73    H     0.02572   0.98661   0.71205   0.00000  Uiso   1.00
H74    H     0.15718   0.87456   0.31641   0.00000  Uiso   1.00
H75    H     0.43145   0.99971   0.56462   0.00000  Uiso   1.00
H76    H     0.88188   0.99263   0.55357   0.00000  Uiso   1.00
H77    H     0.16345   0.83011   0.59831   0.00000  Uiso   1.00
H78    H     0.16381   0.78795   0.83142   0.00000  Uiso   1.00
H79    H     0.29389   0.84730   0.47489   0.00000  Uiso   1.00
H80    H     0.03327   0.84394   0.46966   0.00000  Uiso   1.00
H81    H     0.16332   0.75877   0.11967   0.00000  Uiso   1.00
H82    H     0.43758   0.88391   0.36788   0.00000  Uiso   1.00
H83    H     0.88801   0.87683   0.35684   0.00000  Uiso   1.00
O84    O     0.16039   0.79138   0.37554   0.00000  Uiso   1.00
O85    O     0.52020   0.95557   0.38920   0.00000  Uiso   1.00
O86    O     0.79918   0.94627   0.37472   0.00000  Uiso   1.00
N87    N     0.15856   0.85310   0.23812   0.00000  Uiso   1.00
N88    N     0.41499   0.97010   0.53526   0.00000  Uiso   1.00
N89    N     0.90120   0.96348   0.52490   0.00000  Uiso   1.00
N90    N     0.16186   0.79079   0.13225   0.00000  Uiso   1.00
N91    N     0.41829   0.90779   0.42939   0.00000  Uiso   1.00
N92    N     0.90450   0.90117   0.41904   0.00000  Uiso   1.00
C93    C     0.65793   0.56563   0.22454   0.00000  Uiso   1.00
C94    C     0.65890   0.60326   0.12291   0.00000  Uiso   1.00
C95    C     0.65788   0.60018   0.97848   0.00000  Uiso   1.00
C96    C     0.65906   0.63837   0.90397   0.00000  Uiso   1.00
C97    C     0.66028   0.69073   0.73587   0.00000  Uiso   1.00
C98    C     0.72958   0.57101   0.31660   0.00000  Uiso   1.00
C99    C     0.78799   0.54083   0.33505   0.00000  Uiso   1.00
C100   C     0.84866   0.55187   0.42361   0.00000  Uiso   1.00
C101   C     0.95959   0.55416   0.55631   0.00000  Uiso   1.00
C102   C     0.58797   0.57284   0.31943   0.00000  Uiso   1.00
C103   C     0.52733   0.54418   0.34030   0.00000  Uiso   1.00
C104   C     0.46878   0.55676   0.43127   0.00000  Uiso   1.00
C105   C     0.35985   0.56189   0.56836   0.00000  Uiso   1.00
C106   C     0.66181   0.63891   0.34904   0.00000  Uiso   1.00
C107   C     0.66101   0.64306   0.19053   0.00000  Uiso   1.00
C108   C     0.66218   0.68126   0.11622   0.00000  Uiso   1.00
C109   C     0.66117   0.67824   0.97171   0.00000  Uiso   1.00
C110   C     0.73169   0.61081   0.38423   0.00000  Uiso   1.00
C111   C     0.79228   0.62190   0.47279   0.00000  Uiso   1.00
C112   C     0.85077   0.59174   0.49136   0.00000  Uiso   1.00
C113   C     0.59008   0.61264   0.38706   0.00000  Uiso   1.00
C114   C     0.53162   0.62526   0.47803   0.00000  Uiso   1.00
C115   C     0.47089   0.59663   0.49902   0.00000  Uiso   1.00
H116   H     0.65629   0.53465   0.17190   0.00000  Uiso   1.00
H117   H     0.65626   0.56938   0.92619   0.00000  Uiso   1.00
H118   H     0.78634   0.51003   0.28271   0.00000  Uiso   1.00
H119   H     0.52572   0.51339   0.28795   0.00000  Uiso   1.00
H120   H     0.65718   0.62544   0.68359   0.00000  Uiso   1.00
H121   H     0.93145   0.50029   0.43538   0.00000  Uiso   1.00
H122   H     0.38188   0.50737   0.44643   0.00000  Uiso   1.00
H123   H     0.66345   0.66989   0.40169   0.00000  Uiso   1.00
H124   H     0.66381   0.71205   0.16858   0.00000  Uiso   1.00
H125   H     0.79389   0.65270   0.52511   0.00000  Uiso   1.00
H126   H     0.53327   0.65606   0.53034   0.00000  Uiso   1.00
H127   H     0.66332   0.74123   0.88033   0.00000  Uiso   1.00
H128   H     0.93758   0.61609   0.63212   0.00000  Uiso   1.00
H129   H     0.38801   0.62317   0.64316   0.00000  Uiso   1.00
O130   O     0.66039   0.70862   0.62446   0.00000  Uiso   1.00
O131   O     0.02020   0.54443   0.61080   0.00000  Uiso   1.00
O132   O     0.29918   0.55373   0.62528   0.00000  Uiso   1.00
N133   N     0.65856   0.64690   0.76188   0.00000  Uiso   1.00
N134   N     0.91499   0.52990   0.46474   0.00000  Uiso   1.00
N135   N     0.40120   0.53652   0.47510   0.00000  Uiso   1.00
N136   N     0.66186   0.70921   0.86775   0.00000  Uiso   1.00
N137   N     0.91829   0.59221   0.57061   0.00000  Uiso   1.00
N138   N     0.40450   0.59883   0.58096   0.00000  Uiso   1.00
C139   C     0.84207   0.43437   0.72454   0.00000  Uiso   1.00
C140   C     0.84110   0.39674   0.62291   0.00000  Uiso   1.00
C141   C     0.84212   0.39982   0.47848   0.00000  Uiso   1.00
C142   C     0.84094   0.36163   0.40397   0.00000  Uiso   1.00
C143   C     0.83972   0.30927   0.23587   0.00000  Uiso   1.00
C144   C     0.77042   0.42899   0.81660   0.00000  Uiso   1.00
C145   C     0.71201   0.45917   0.83505   0.00000  Uiso   1.00
C146   C     0.65134   0.44813   0.92361   0.00000  Uiso   1.00
C147   C     0.54041   0.44584   0.05631   0.00000  Uiso   1.00
C148   C     0.91203   0.42716   0.81943   0.00000  Uiso   1.00
C149   C     0.97267   0.45582   0.84030   0.00000  Uiso   1.00
C150   C     0.03122   0.44324   0.93127   0.00000  Uiso   1.00
C151   C     0.14015   0.43811   0.06836   0.00000  Uiso   1.00
C152   C     0.83819   0.36109   0.84904   0.00000  Uiso   1.00
C153   C     0.83899   0.35694   0.69053   0.00000  Uiso   1.00
C154   C     0.83782   0.31874   0.61622   0.00000  Uiso   1.00
C155   C     0.83883   0.32176   0.47171   0.00000  Uiso   1.00
C156   C     0.76831   0.38919   0.88423   0.00000  Uiso   1.00
C157   C     0.70772   0.37810   0.97279   0.00000  Uiso   1.00
C158   C     0.64923   0.40826   0.99136   0.00000  Uiso   1.00
C159   C     0.90992   0.38736   0.88706   0.00000  Uiso   1.00
C160   C     0.96838   0.37474   0.97803   0.00000  Uiso   1.00
C161   C     0.02911   0.40337   0.99902   0.00000  Uiso   1.00
H162   H     0.84371   0.46535   0.67190   0.00000  Uiso   1.00
H163   H     0.84374   0.43062   0.42619   0.00000  Uiso   1.00
H164   H     0.71366   0.48997   0.78271   0.00000  Uiso   1.00
H165   H     0.97428   0.48661   0.78795   0.00000  Uiso   1.00
H166   H     0.84282   0.37456   0.18359   0.00000  Uiso   1.00
H167   H     0.56855   0.49971   0.93538   0.00000  Uiso   1.00
H168   H     0.11812   0.49263   0.94643   0.00000  Uiso   1.00
H169   H     0.83655   0.33011   0.90169   0.00000  Uiso   1.00
H170   H     0.83619   0.28795   0.66858   0.00000  Uiso   1.00
H171   H     0.70611   0.34730   0.02511   0.00000  Uiso   1.00
H172   H     0.96673   0.34394   0.03034   0.00000  Uiso   1.00
H173   H     0.83668   0.25877   0.38033   0.00000  Uiso   1.00
H174   H     0.56242   0.38391   0.13212   0.00000  Uiso   1.00
H175   H     0.11199   0.37683   0.14316   0.00000  Uiso   1.00
O176   O     0.83961   0.29138   0.12446   0.00000  Uiso   1.00
O177   O     0.47980   0.45557   0.11080   0.00000  Uiso   1.00
O178   O     0.20082   0.44627   0.12528   0.00000  Uiso   1.00
N179   N     0.84144   0.35310   0.26188   0.00000  Uiso   1.00
N180   N     0.58501   0.47010   0.96474   0.00000  Uiso   1.00
N181   N     0.09880   0.46348   0.97510   0.00000  Uiso   1.00
N182   N     0.83814   0.29079   0.36775   0.00000  Uiso   1.00
N183   N     0.58171   0.40779   0.07061   0.00000  Uiso   1.00
N184   N     0.09550   0.40117   0.08096   0.00000  Uiso   1.00
C185   C     0.65793   0.93437   0.72454   0.00000  Uiso   1.00
C186   C     0.65890   0.89674   0.62291   0.00000  Uiso   1.00
C187   C     0.65788   0.89982   0.47848   0.00000  Uiso   1.00
C188   C     0.65906   0.86163   0.40397   0.00000  Uiso   1.00
C189   C     0.66028   0.80927   0.23587   0.00000  Uiso   1.00
C190   C     0.72958   0.92899   0.81660   0.00000  Uiso   1.00
C191   C     0.78799   0.95917   0.83505   0.00000  Uiso   1.00
C192   C     0.84866   0.94813   0.92361   0.00000  Uiso   1.00
C193   C     0.95959   0.94584   0.05631   0.00000  Uiso   1.00
C194   C     0.58797   0.92716   0.81943   0.00000  Uiso   1.00
C195   C     0.52733   0.95582   0.84030   0.00000  Uiso   1.00
C196   C     0.46878   0.94324   0.93127   0.00000  Uiso   1.00
C197   C     0.35985   0.93811   0.06836   0.00000  Uiso   1.00
C198   C     0.66181   0.86109   0.84904   0.00000  Uiso   1.00
C199   C     0.66101   0.85694   0.69053   0.00000  Uiso   1.00
C200   C     0.66218   0.81874   0.61622   0.00000  Uiso   1.00
C201   C     0.66117   0.82176   0.47171   0.00000  Uiso   1.00
C202   C     0.73169   0.88919   0.88423   0.00000  Uiso   1.00
C203   C     0.79228   0.87810   0.97279   0.00000  Uiso   1.00
C204   C     0.85077   0.90826   0.99136   0.00000  Uiso   1.00
C205   C     0.59008   0.88736   0.88706   0.00000  Uiso   1.00
C206   C     0.53162   0.87474   0.97803   0.00000  Uiso   1.00
C207   C     0.47089   0.90337   0.99902   0.00000  Uiso   1.00
H208   H     0.65629   0.96535   0.67190   0.00000  Uiso   1.00
H209   H     0.65626   0.93062   0.42619   0.00000  Uiso   1.00
H210   H     0.78634   0.98997   0.78271   0.00000  Uiso   1.00
H211   H     0.52572   0.98661   0.78795   0.00000  Uiso   1.00
H212   H     0.65718   0.87456   0.18359   0.00000  Uiso   1.00
H213   H     0.93145   0.99971   0.93538   0.00000  Uiso   1.00
H214   H     0.38188   0.99263   0.94643   0.00000  Uiso   1.00
H215   H     0.66345   0.83011   0.90169   0.00000  Uiso   1.00
H216   H     0.66381   0.78795   0.66858   0.00000  Uiso   1.00
H217   H     0.79389   0.84730   0.02511   0.00000  Uiso   1.00
H218   H     0.53327   0.84394   0.03034   0.00000  Uiso   1.00
H219   H     0.66332   0.75877   0.38033   0.00000  Uiso   1.00
H220   H     0.93758   0.88391   0.13212   0.00000  Uiso   1.00
H221   H     0.38801   0.87683   0.14316   0.00000  Uiso   1.00
O222   O     0.66039   0.79138   0.12446   0.00000  Uiso   1.00
O223   O     0.02020   0.95557   0.11080   0.00000  Uiso   1.00
O224   O     0.29918   0.94627   0.12528   0.00000  Uiso   1.00
N225   N     0.65856   0.85310   0.26188   0.00000  Uiso   1.00
N226   N     0.91499   0.97010   0.96474   0.00000  Uiso   1.00
N227   N     0.40120   0.96348   0.97510   0.00000  Uiso   1.00
N228   N     0.66186   0.79079   0.36775   0.00000  Uiso   1.00
N229   N     0.91829   0.90779   0.07061   0.00000  Uiso   1.00
N230   N     0.40450   0.90117   0.08096   0.00000  Uiso   1.00
C231   C     0.84207   0.06563   0.22454   0.00000  Uiso   1.00
C232   C     0.84110   0.10326   0.12291   0.00000  Uiso   1.00
C233   C     0.84212   0.10018   0.97848   0.00000  Uiso   1.00
C234   C     0.84094   0.13837   0.90397   0.00000  Uiso   1.00
C235   C     0.83972   0.19073   0.73587   0.00000  Uiso   1.00
C236   C     0.77042   0.07101   0.31660   0.00000  Uiso   1.00
C237   C     0.71201   0.04083   0.33505   0.00000  Uiso   1.00
C238   C     0.65134   0.05187   0.42361   0.00000  Uiso   1.00
C239   C     0.54041   0.05416   0.55631   0.00000  Uiso   1.00
C240   C     0.91203   0.07284   0.31943   0.00000  Uiso   1.00
C241   C     0.97267   0.04418   0.34030   0.00000  Uiso   1.00
C242   C     0.03122   0.05676   0.43127   0.00000  Uiso   1.00
C243   C     0.14015   0.06189   0.56836   0.00000  Uiso   1.00
C244   C     0.83819   0.13891   0.34904   0.00000  Uiso   1.00
C245   C     0.83899   0.14306   0.19053   0.00000  Uiso   1.00
C246   C     0.83782   0.18126   0.11622   0.00000  Uiso   1.00
C247   C     0.83883   0.17824   0.97171   0.00000  Uiso   1.00
C248   C     0.76831   0.11081   0.38423   0.00000  Uiso   1.00
C249   C     0.70772   0.12190   0.47279   0.00000  Uiso   1.00
C250   C     0.64923   0.09174   0.49136   0.00000  Uiso   1.00
C251   C     0.90992   0.11264   0.38706   0.00000  Uiso   1.00
C252   C     0.96838   0.12526   0.47803   0.00000  Uiso   1.00
C253   C     0.02911   0.09663   0.49902   0.00000  Uiso   1.00
H254   H     0.84371   0.03465   0.17190   0.00000  Uiso   1.00
H255   H     0.84374   0.06938   0.92619   0.00000  Uiso   1.00
H256   H     0.71366   0.01003   0.28271   0.00000  Uiso   1.00
H257   H     0.97428   0.01339   0.28795   0.00000  Uiso   1.00
H258   H     0.84282   0.12544   0.68359   0.00000  Uiso   1.00
H259   H     0.56855   0.00029   0.43538   0.00000  Uiso   1.00
H260   H     0.11812   0.00737   0.44643   0.00000  Uiso   1.00
H261   H     0.83655   0.16989   0.40169   0.00000  Uiso   1.00
H262   H     0.83619   0.21205   0.16858   0.00000  Uiso   1.00
H263   H     0.70611   0.15270   0.52511   0.00000  Uiso   1.00
H264   H     0.96673   0.15606   0.53034   0.00000  Uiso   1.00
H265   H     0.83668   0.24123   0.88033   0.00000  Uiso   1.00
H266   H     0.56242   0.11609   0.63212   0.00000  Uiso   1.00
H267   H     0.11199   0.12317   0.64316   0.00000  Uiso   1.00
O268   O     0.83961   0.20862   0.62446   0.00000  Uiso   1.00
O269   O     0.47980   0.04443   0.61080   0.00000  Uiso   1.00
O270   O     0.20082   0.05373   0.62528   0.00000  Uiso   1.00
N271   N     0.84144   0.14690   0.76188   0.00000  Uiso   1.00
N272   N     0.58501   0.02990   0.46474   0.00000  Uiso   1.00
N273   N     0.09880   0.03652   0.47510   0.00000  Uiso   1.00
N274   N     0.83814   0.20921   0.86775   0.00000  Uiso   1.00
N275   N     0.58171   0.09221   0.57061   0.00000  Uiso   1.00
N276   N     0.09550   0.09883   0.58096   0.00000  Uiso   1.00
C277   C     0.34207   0.43437   0.77546   0.00000  Uiso   1.00
C278   C     0.34110   0.39674   0.87709   0.00000  Uiso   1.00
C279   C     0.34212   0.39982   0.02152   0.00000  Uiso   1.00
C280   C     0.34094   0.36163   0.09603   0.00000  Uiso   1.00
C281   C     0.33972   0.30927   0.26413   0.00000  Uiso   1.00
C282   C     0.27042   0.42899   0.68340   0.00000  Uiso   1.00
C283   C     0.21201   0.45917   0.66495   0.00000  Uiso   1.00
C284   C     0.15134   0.44813   0.57639   0.00000  Uiso   1.00
C285   C     0.04041   0.44584   0.44369   0.00000  Uiso   1.00
C286   C     0.41203   0.42716   0.68057   0.00000  Uiso   1.00
C287   C     0.47267   0.45582   0.65970   0.00000  Uiso   1.00
C288   C     0.53122   0.44324   0.56873   0.00000  Uiso   1.00
C289   C     0.64015   0.43811   0.43164   0.00000  Uiso   1.00
C290   C     0.33819   0.36109   0.65096   0.00000  Uiso   1.00
C291   C     0.33899   0.35694   0.80947   0.00000  Uiso   1.00
C292   C     0.33782   0.31874   0.88378   0.00000  Uiso   1.00
C293   C     0.33883   0.32176   0.02829   0.00000  Uiso   1.00
C294   C     0.26831   0.38919   0.61577   0.00000  Uiso   1.00
C295   C     0.20772   0.37810   0.52721   0.00000  Uiso   1.00
C296   C     0.14923   0.40826   0.50864   0.00000  Uiso   1.00
C297   C     0.40992   0.38736   0.61294   0.00000  Uiso   1.00
C298   C     0.46838   0.37474   0.52197   0.00000  Uiso   1.00
C299   C     0.52911   0.40337   0.50098   0.00000  Uiso   1.00
H300   H     0.34371   0.46535   0.82810   0.00000  Uiso   1.00
H301   H     0.34374   0.43062   0.07381   0.00000  Uiso   1.00
H302   H     0.21366   0.48997   0.71729   0.00000  Uiso   1.00
H303   H     0.47428   0.48661   0.71205   0.00000  Uiso   1.00
H304   H     0.34282   0.37456   0.31641   0.00000  Uiso   1.00
H305   H     0.06855   0.49971   0.56462   0.00000  Uiso   1.00
H306   H     0.61812   0.49263   0.55357   0.00000  Uiso   1.00
H307   H     0.33655   0.33011   0.59831   0.00000  Uiso   1.00
H308   H     0.33619   0.28795   0.83142   0.00000  Uiso   1.00
H309   H     0.20611   0.34730   0.47489   0.00000  Uiso   1.00
H310   H     0.46673   0.34394   0.46966   0.00000  Uiso   1.00
H311   H     0.33668   0.25877   0.11967   0.00000  Uiso   1.00
H312   H     0.06242   0.38391   0.36788   0.00000  Uiso   1.00
H313   H     0.61199   0.37683   0.35684   0.00000  Uiso   1.00
O314   O     0.33961   0.29138   0.37554   0.00000  Uiso   1.00
O315   O     0.97980   0.45557   0.38920   0.00000  Uiso   1.00
O316   O     0.70082   0.44627   0.37472   0.00000  Uiso   1.00
N317   N     0.34144   0.35310   0.23812   0.00000  Uiso   1.00
N318   N     0.08501   0.47010   0.53526   0.00000  Uiso   1.00
N319   N     0.59880   0.46348   0.52490   0.00000  Uiso   1.00
N320   N     0.33814   0.29079   0.13225   0.00000  Uiso   1.00
N321   N     0.08171   0.40779   0.42939   0.00000  Uiso   1.00
N322   N     0.59550   0.40117   0.41904   0.00000  Uiso   1.00
C323   C     0.15793   0.56563   0.27546   0.00000  Uiso   1.00
C324   C     0.15890   0.60326   0.37709   0.00000  Uiso   1.00
C325   C     0.15788   0.60018   0.52152   0.00000  Uiso   1.00
C326   C     0.15906   0.63837   0.59603   0.00000  Uiso   1.00
C327   C     0.16028   0.69073   0.76413   0.00000  Uiso   1.00
C328   C     0.22958   0.57101   0.18340   0.00000  Uiso   1.00
C329   C     0.28799   0.54083   0.16495   0.00000  Uiso   1.00
C330   C     0.34866   0.55187   0.07639   0.00000  Uiso   1.00
C331   C     0.45959   0.55416   0.94369   0.00000  Uiso   1.00
C332   C     0.08797   0.57284   0.18057   0.00000  Uiso   1.00
C333   C     0.02733   0.54418   0.15970   0.00000  Uiso   1.00
C334   C     0.96878   0.55676   0.06873   0.00000  Uiso   1.00
C335   C     0.85985   0.56189   0.93164   0.00000  Uiso   1.00
C336   C     0.16181   0.63891   0.15096   0.00000  Uiso   1.00
C337   C     0.16101   0.64306   0.30947   0.00000  Uiso   1.00
C338   C     0.16218   0.68126   0.38378   0.00000  Uiso   1.00
C339   C     0.16117   0.67824   0.52829   0.00000  Uiso   1.00
C340   C     0.23169   0.61081   0.11577   0.00000  Uiso   1.00
C341   C     0.29228   0.62190   0.02721   0.00000  Uiso   1.00
C342   C     0.35077   0.59174   0.00864   0.00000  Uiso   1.00
C343   C     0.09008   0.61264   0.11294   0.00000  Uiso   1.00
C344   C     0.03162   0.62526   0.02197   0.00000  Uiso   1.00
C345   C     0.97089   0.59663   0.00098   0.00000  Uiso   1.00
H346   H     0.15629   0.53465   0.32810   0.00000  Uiso   1.00
H347   H     0.15626   0.56938   0.57381   0.00000  Uiso   1.00
H348   H     0.28634   0.51003   0.21729   0.00000  Uiso   1.00
H349   H     0.02572   0.51339   0.21205   0.00000  Uiso   1.00
H350   H     0.15718   0.62544   0.81641   0.00000  Uiso   1.00
H351   H     0.43145   0.50029   0.06462   0.00000  Uiso   1.00
H352   H     0.88188   0.50737   0.05357   0.00000  Uiso   1.00
H353   H     0.16345   0.66989   0.09831   0.00000  Uiso   1.00
H354   H     0.16381   0.71205   0.33142   0.00000  Uiso   1.00
H355   H     0.29389   0.65270   0.97489   0.00000  Uiso   1.00
H356   H     0.03327   0.65606   0.96966   0.00000  Uiso   1.00
H357   H     0.16332   0.74123   0.61967   0.00000  Uiso   1.00
H358   H     0.43758   0.61609   0.86788   0.00000  Uiso   1.00
H359   H     0.88801   0.62317   0.85684   0.00000  Uiso   1.00
O360   O     0.16039   0.70862   0.87554   0.00000  Uiso   1.00
O361   O     0.52020   0.54443   0.88920   0.00000  Uiso   1.00
O362   O     0.79918   0.55373   0.87472   0.00000  Uiso   1.00
N363   N     0.15856   0.64690   0.73812   0.00000  Uiso   1.00
N364   N     0.41499   0.52990   0.03526   0.00000  Uiso   1.00
N365   N     0.90120   0.53652   0.02490   0.00000  Uiso   1.00
N366   N     0.16186   0.70921   0.63225   0.00000  Uiso   1.00
N367   N     0.41829   0.59221   0.92939   0.00000  Uiso   1.00
N368   N     0.90450   0.59883   0.91904   0.00000  Uiso   1.00
