data_job_06439
_audit_creation_date              2018-12-19
_audit_creation_method            'Materials Studio'
_symmetry_space_group_name_H-M    'P1'
_symmetry_Int_Tables_number       1
_symmetry_cell_setting            triclinic
loop_
_symmetry_equiv_pos_as_xyz
  x,y,z
_cell_length_a                    17.3134
_cell_length_b                    16.7883
_cell_length_c                    15.5528
_cell_angle_alpha                 99.1691
_cell_angle_beta                  99.6096
_cell_angle_gamma                 97.9852
loop_
_atom_site_label
_atom_site_type_symbol
_atom_site_fract_x
_atom_site_fract_y
_atom_site_fract_z
_atom_site_U_iso_or_equiv
_atom_site_adp_type
_atom_site_occupancy
C1     C     0.70257   0.13522   0.26466   0.00000  Uiso   1.00
C2     C     0.72676   0.10414   0.35048   0.00000  Uiso   1.00
C3     C     0.69801   0.02801   0.36748   0.00000  Uiso   1.00
C4     C     0.72756   0.01123   0.45009   0.00000  Uiso   1.00
C5     C     0.75652   0.95426   0.57374   0.00000  Uiso   1.00
C6     C     0.67261   0.21506   0.29134   0.00000  Uiso   1.00
C7     C     0.59834   0.23219   0.25859   0.00000  Uiso   1.00
C8     C     0.58232   0.30877   0.29140   0.00000  Uiso   1.00
C9     C     0.52723   0.42403   0.32318   0.00000  Uiso   1.00
C10    C     0.77934   0.15881   0.23197   0.00000  Uiso   1.00
C11    C     0.79480   0.12867   0.14931   0.00000  Uiso   1.00
C12    C     0.86863   0.15791   0.13212   0.00000  Uiso   1.00
C13    C     0.97926   0.18584   0.07173   0.00000  Uiso   1.00
C14    C     0.80617   0.24078   0.38112   0.00000  Uiso   1.00
C15    C     0.78302   0.16148   0.41374   0.00000  Uiso   1.00
C16    C     0.81263   0.14480   0.49634   0.00000  Uiso   1.00
C17    C     0.78393   0.06866   0.51346   0.00000  Uiso   1.00
C18    C     0.72887   0.27239   0.35459   0.00000  Uiso   1.00
C19    C     0.71296   0.34897   0.38745   0.00000  Uiso   1.00
C20    C     0.63868   0.36621   0.35477   0.00000  Uiso   1.00
C21    C     0.83561   0.21615   0.29523   0.00000  Uiso   1.00
C22    C     0.90942   0.24545   0.27816   0.00000  Uiso   1.00
C23    C     0.92500   0.21535   0.19549   0.00000  Uiso   1.00
H24    H     0.65876   0.09059   0.21541   0.00000  Uiso   1.00
H25    H     0.65446   0.98366   0.31851   0.00000  Uiso   1.00
H26    H     0.55481   0.18781   0.20963   0.00000  Uiso   1.00
H27    H     0.75125   0.08430   0.10037   0.00000  Uiso   1.00
H28    H     0.67448   0.89041   0.46074   0.00000  Uiso   1.00
H29    H     0.46438   0.32087   0.23113   0.00000  Uiso   1.00
H30    H     0.87860   0.10261   0.00072   0.00000  Uiso   1.00
H31    H     0.84998   0.28542   0.43037   0.00000  Uiso   1.00
H32    H     0.85617   0.18918   0.54528   0.00000  Uiso   1.00
H33    H     0.75652   0.39333   0.43639   0.00000  Uiso   1.00
H34    H     0.95295   0.28982   0.32713   0.00000  Uiso   1.00
H35    H     0.83819   0.05722   0.64479   0.00000  Uiso   1.00
H36    H     0.62809   0.48768   0.41518   0.00000  Uiso   1.00
H37    H     0.04231   0.26942   0.18477   0.00000  Uiso   1.00
O38    O     0.75694   0.90701   0.62448   0.00000  Uiso   1.00
O39    O     0.48130   0.47175   0.32323   0.00000  Uiso   1.00
O40    O     0.02475   0.18539   0.02095   0.00000  Uiso   1.00
N41    N     0.71217   0.94287   0.48828   0.00000  Uiso   1.00
N42    N     0.51574   0.34532   0.27362   0.00000  Uiso   1.00
N43    N     0.90299   0.14128   0.05820   0.00000  Uiso   1.00
N44    N     0.80027   0.03263   0.58731   0.00000  Uiso   1.00
N45    N     0.60383   0.43508   0.37266   0.00000  Uiso   1.00
N46    N     0.99108   0.23104   0.15723   0.00000  Uiso   1.00
C47    C     0.26960   0.70132   0.12757   0.00000  Uiso   1.00
C48    C     0.34643   0.72543   0.09521   0.00000  Uiso   1.00
C49    C     0.36244   0.69520   0.01285   0.00000  Uiso   1.00
C50    C     0.43623   0.72496   0.99595   0.00000  Uiso   1.00
C51    C     0.54707   0.75357   0.93609   0.00000  Uiso   1.00
C52    C     0.29385   0.67077   0.21373   0.00000  Uiso   1.00
C53    C     0.26564   0.59460   0.23101   0.00000  Uiso   1.00
C54    C     0.29516   0.57835   0.31388   0.00000  Uiso   1.00
C55    C     0.32432   0.52213   0.43804   0.00000  Uiso   1.00
C56    C     0.23882   0.78079   0.15360   0.00000  Uiso   1.00
C57    C     0.16434   0.79711   0.12034   0.00000  Uiso   1.00
C58    C     0.14754   0.87348   0.15260   0.00000  Uiso   1.00
C59    C     0.09126   0.98807   0.18340   0.00000  Uiso   1.00
C60    C     0.37218   0.80792   0.24403   0.00000  Uiso   1.00
C61    C     0.40215   0.78333   0.15847   0.00000  Uiso   1.00
C62    C     0.47593   0.81315   0.14169   0.00000  Uiso   1.00
C63    C     0.49205   0.78297   0.05931   0.00000  Uiso   1.00
C64    C     0.34956   0.72867   0.27698   0.00000  Uiso   1.00
C65    C     0.37913   0.71254   0.35985   0.00000  Uiso   1.00
C66    C     0.35098   0.63636   0.37725   0.00000  Uiso   1.00
C67    C     0.29454   0.83869   0.21685   0.00000  Uiso   1.00
C68    C     0.27784   0.91505   0.24918   0.00000  Uiso   1.00
C69    C     0.20335   0.93149   0.21597   0.00000  Uiso   1.00
H70    H     0.22622   0.65623   0.07833   0.00000  Uiso   1.00
H71    H     0.31931   0.65039   0.96391   0.00000  Uiso   1.00
H72    H     0.22252   0.54980   0.18205   0.00000  Uiso   1.00
H73    H     0.12124   0.75228   0.07139   0.00000  Uiso   1.00
H74    H     0.44709   0.66942   0.86497   0.00000  Uiso   1.00
H75    H     0.24298   0.45734   0.32492   0.00000  Uiso   1.00
H76    H     0.02943   0.88431   0.09158   0.00000  Uiso   1.00
H77    H     0.41556   0.85300   0.29328   0.00000  Uiso   1.00
H78    H     0.51904   0.85796   0.19065   0.00000  Uiso   1.00
H79    H     0.42225   0.75737   0.40878   0.00000  Uiso   1.00
H80    H     0.32097   0.95985   0.29813   0.00000  Uiso   1.00
H81    H     0.60921   0.83789   0.04900   0.00000  Uiso   1.00
H82    H     0.40509   0.62581   0.50895   0.00000  Uiso   1.00
H83    H     0.19153   0.05277   0.27561   0.00000  Uiso   1.00
O84    O     0.59281   0.75334   0.88560   0.00000  Uiso   1.00
O85    O     0.32502   0.47511   0.48905   0.00000  Uiso   1.00
O86    O     0.04484   0.03528   0.18291   0.00000  Uiso   1.00
N87    N     0.47104   0.70840   0.92236   0.00000  Uiso   1.00
N88    N     0.28022   0.51012   0.35238   0.00000  Uiso   1.00
N89    N     0.08055   0.90928   0.13424   0.00000  Uiso   1.00
N90    N     0.55827   0.79905   0.02138   0.00000  Uiso   1.00
N91    N     0.36745   0.60077   0.45140   0.00000  Uiso   1.00
N92    N     0.16778   0.99994   0.23327   0.00000  Uiso   1.00
C93    C     0.13760   0.26876   0.69668   0.00000  Uiso   1.00
C94    C     0.10712   0.34829   0.72327   0.00000  Uiso   1.00
C95    C     0.03290   0.36517   0.68993   0.00000  Uiso   1.00
C96    C     0.01634   0.44151   0.72275   0.00000  Uiso   1.00
C97    C     0.96055   0.55631   0.75430   0.00000  Uiso   1.00
C98    C     0.21472   0.29294   0.66490   0.00000  Uiso   1.00
C99    C     0.23098   0.26326   0.58249   0.00000  Uiso   1.00
C100   C     0.30501   0.29300   0.56618   0.00000  Uiso   1.00
C101   C     0.41629   0.32181   0.50713   0.00000  Uiso   1.00
C102   C     0.16128   0.23738   0.78242   0.00000  Uiso   1.00
C103   C     0.13261   0.16098   0.79882   0.00000  Uiso   1.00
C104   C     0.16167   0.14393   0.88145   0.00000  Uiso   1.00
C105   C     0.18996   0.08648   0.00486   0.00000  Uiso   1.00
C106   C     0.24019   0.37432   0.81425   0.00000  Uiso   1.00
C107   C     0.16284   0.40563   0.78713   0.00000  Uiso   1.00
C108   C     0.14640   0.48197   0.82001   0.00000  Uiso   1.00
C109   C     0.07217   0.49895   0.78673   0.00000  Uiso   1.00
C110   C     0.27044   0.35028   0.72876   0.00000  Uiso   1.00
C111   C     0.34448   0.38006   0.71257   0.00000  Uiso   1.00
C112   C     0.36084   0.35044   0.63015   0.00000  Uiso   1.00
C113   C     0.21700   0.29472   0.84629   0.00000  Uiso   1.00
C114   C     0.24611   0.27778   0.92890   0.00000  Uiso   1.00
C115   C     0.21749   0.20138   0.94542   0.00000  Uiso   1.00
H116   H     0.09423   0.22412   0.64695   0.00000  Uiso   1.00
H117   H     0.98979   0.32078   0.64050   0.00000  Uiso   1.00
H118   H     0.18785   0.21888   0.53309   0.00000  Uiso   1.00
H119   H     0.08949   0.11663   0.74938   0.00000  Uiso   1.00
H120   H     0.89860   0.45326   0.66149   0.00000  Uiso   1.00
H121   H     0.31621   0.23838   0.43500   0.00000  Uiso   1.00
H122   H     0.10881   0.02274   0.89110   0.00000  Uiso   1.00
H123   H     0.28358   0.41896   0.86397   0.00000  Uiso   1.00
H124   H     0.18953   0.52633   0.86943   0.00000  Uiso   1.00
H125   H     0.38758   0.42443   0.76201   0.00000  Uiso   1.00
H126   H     0.28923   0.32217   0.97830   0.00000  Uiso   1.00
H127   H     0.06071   0.62008   0.84729   0.00000  Uiso   1.00
H128   H     0.47833   0.40520   0.62081   0.00000  Uiso   1.00
H129   H     0.27093   0.18957   0.07691   0.00000  Uiso   1.00
O130   O     0.91438   0.60379   0.75405   0.00000  Uiso   1.00
O131   O     0.46228   0.32186   0.45691   0.00000  Uiso   1.00
O132   O     0.19017   0.03896   0.05530   0.00000  Uiso   1.00
N133   N     0.94965   0.47778   0.70448   0.00000  Uiso   1.00
N134   N     0.34009   0.27689   0.49273   0.00000  Uiso   1.00
N135   N     0.14620   0.07528   0.91913   0.00000  Uiso   1.00
N136   N     0.03688   0.56755   0.80446   0.00000  Uiso   1.00
N137   N     0.42732   0.36665   0.59271   0.00000  Uiso   1.00
N138   N     0.23344   0.16505   0.01911   0.00000  Uiso   1.00
C139   C     0.20222   0.76879   0.62759   0.00000  Uiso   1.00
C140   C     0.22537   0.84808   0.59495   0.00000  Uiso   1.00
C141   C     0.19577   0.86476   0.51236   0.00000  Uiso   1.00
C142   C     0.22445   0.94089   0.49523   0.00000  Uiso   1.00
C143   C     0.25182   0.05531   0.43496   0.00000  Uiso   1.00
C144   C     0.17276   0.79346   0.71347   0.00000  Uiso   1.00
C145   C     0.09893   0.76419   0.73052   0.00000  Uiso   1.00
C146   C     0.08333   0.79433   0.81317   0.00000  Uiso   1.00
C147   C     0.02905   0.82389   0.93691   0.00000  Uiso   1.00
C148   C     0.27949   0.73717   0.65415   0.00000  Uiso   1.00
C149   C     0.29539   0.66057   0.62134   0.00000  Uiso   1.00
C150   C     0.36965   0.64332   0.65406   0.00000  Uiso   1.00
C151   C     0.48108   0.58549   0.68570   0.00000  Uiso   1.00
C152   C     0.30581   0.87435   0.74405   0.00000  Uiso   1.00
C153   C     0.28164   0.90542   0.65821   0.00000  Uiso   1.00
C154   C     0.31038   0.98155   0.64121   0.00000  Uiso   1.00
C155   C     0.28083   0.99833   0.55860   0.00000  Uiso   1.00
C156   C     0.22903   0.85079   0.77673   0.00000  Uiso   1.00
C157   C     0.21355   0.88098   0.85937   0.00000  Uiso   1.00
C158   C     0.13970   0.85177   0.87654   0.00000  Uiso   1.00
C159   C     0.33576   0.79451   0.71740   0.00000  Uiso   1.00
C160   C     0.41001   0.77736   0.75019   0.00000  Uiso   1.00
C161   C     0.42602   0.70075   0.71743   0.00000  Uiso   1.00
H162   H     0.15840   0.72415   0.57834   0.00000  Uiso   1.00
H163   H     0.15221   0.82037   0.46343   0.00000  Uiso   1.00
H164   H     0.05540   0.71981   0.68156   0.00000  Uiso   1.00
H165   H     0.25183   0.61622   0.57239   0.00000  Uiso   1.00
H166   H     0.17015   0.95235   0.36393   0.00000  Uiso   1.00
H167   H     0.96601   0.74029   0.82388   0.00000  Uiso   1.00
H168   H     0.38023   0.52183   0.59368   0.00000  Uiso   1.00
H169   H     0.34962   0.91899   0.79330   0.00000  Uiso   1.00
H170   H     0.35393   0.02590   0.69017   0.00000  Uiso   1.00
H171   H     0.25710   0.92535   0.90831   0.00000  Uiso   1.00
H172   H     0.45354   0.82175   0.79914   0.00000  Uiso   1.00
H173   H     0.33386   0.11917   0.54797   0.00000  Uiso   1.00
H174   H     0.12972   0.90711   0.00792   0.00000  Uiso   1.00
H175   H     0.54395   0.68865   0.77772   0.00000  Uiso   1.00
O176   O     0.25137   0.10259   0.38424   0.00000  Uiso   1.00
O177   O     0.98356   0.82436   0.98769   0.00000  Uiso   1.00
O178   O     0.52700   0.53775   0.68567   0.00000  Uiso   1.00
N179   N     0.20810   0.97693   0.42139   0.00000  Uiso   1.00
N180   N     0.01724   0.77868   0.85141   0.00000  Uiso   1.00
N181   N     0.40449   0.57443   0.63621   0.00000  Uiso   1.00
N182   N     0.29619   0.06669   0.52042   0.00000  Uiso   1.00
N183   N     0.10533   0.86845   0.95044   0.00000  Uiso   1.00
N184   N     0.49259   0.66419   0.73524   0.00000  Uiso   1.00
C185   C     0.76987   0.63513   0.19697   0.00000  Uiso   1.00
C186   C     0.84722   0.60380   0.22410   0.00000  Uiso   1.00
C187   C     0.86366   0.52747   0.19122   0.00000  Uiso   1.00
C188   C     0.93788   0.51048   0.22449   0.00000  Uiso   1.00
C189   C     0.04952   0.45314   0.25688   0.00000  Uiso   1.00
C190   C     0.79310   0.71472   0.16492   0.00000  Uiso   1.00
C191   C     0.76402   0.73164   0.08229   0.00000  Uiso   1.00
C192   C     0.79269   0.80803   0.06575   0.00000  Uiso   1.00
C193   C     0.82025   0.92290   0.00628   0.00000  Uiso   1.00
C194   C     0.73961   0.65920   0.28244   0.00000  Uiso   1.00
C195   C     0.66556   0.62946   0.29861   0.00000  Uiso   1.00
C196   C     0.64919   0.65912   0.38101   0.00000  Uiso   1.00
C197   C     0.59371   0.68780   0.50401   0.00000  Uiso   1.00
C198   C     0.87246   0.74069   0.31454   0.00000  Uiso   1.00
C199   C     0.90294   0.66115   0.28796   0.00000  Uiso   1.00
C200   C     0.97716   0.64426   0.32130   0.00000  Uiso   1.00
C201   C     0.99371   0.56792   0.28847   0.00000  Uiso   1.00
C202   C     0.84882   0.77206   0.22878   0.00000  Uiso   1.00
C203   C     0.87753   0.84844   0.21237   0.00000  Uiso   1.00
C204   C     0.84851   0.86547   0.12972   0.00000  Uiso   1.00
C205   C     0.79533   0.71654   0.34631   0.00000  Uiso   1.00
C206   C     0.77907   0.74625   0.42870   0.00000  Uiso   1.00
C207   C     0.70501   0.71656   0.44499   0.00000  Uiso   1.00
H208   H     0.72649   0.59049   0.14725   0.00000  Uiso   1.00
H209   H     0.82052   0.48312   0.14179   0.00000  Uiso   1.00
H210   H     0.72090   0.68726   0.03288   0.00000  Uiso   1.00
H211   H     0.62245   0.58510   0.24918   0.00000  Uiso   1.00
H212   H     0.94935   0.38937   0.16388   0.00000  Uiso   1.00
H213   H     0.73927   0.81983   0.93425   0.00000  Uiso   1.00
H214   H     0.53168   0.60439   0.39035   0.00000  Uiso   1.00
H215   H     0.91585   0.78533   0.36426   0.00000  Uiso   1.00
H216   H     0.02027   0.68865   0.37072   0.00000  Uiso   1.00
H217   H     0.92064   0.89279   0.26181   0.00000  Uiso   1.00
H218   H     0.82220   0.79062   0.47810   0.00000  Uiso   1.00
H219   H     0.11148   0.55619   0.34968   0.00000  Uiso   1.00
H220   H     0.90139   0.98665   0.12005   0.00000  Uiso   1.00
H221   H     0.69381   0.77121   0.57615   0.00000  Uiso   1.00
O222   O     0.09570   0.40567   0.25709   0.00000  Uiso   1.00
O223   O     0.82007   0.97042   0.95583   0.00000  Uiso   1.00
O224   O     0.54772   0.68777   0.55422   0.00000  Uiso   1.00
N225   N     0.97317   0.44189   0.20674   0.00000  Uiso   1.00
N226   N     0.77677   0.84434   0.99204   0.00000  Uiso   1.00
N227   N     0.58268   0.64294   0.41845   0.00000  Uiso   1.00
N228   N     0.06041   0.53166   0.30672   0.00000  Uiso   1.00
N229   N     0.86401   0.93411   0.09202   0.00000  Uiso   1.00
N230   N     0.66992   0.73271   0.51843   0.00000  Uiso   1.00
C231   C     0.63769   0.20138   0.76435   0.00000  Uiso   1.00
C232   C     0.60771   0.22598   0.84991   0.00000  Uiso   1.00
C233   C     0.53393   0.19616   0.86668   0.00000  Uiso   1.00
C234   C     0.51780   0.22633   0.94906   0.00000  Uiso   1.00
C235   C     0.46280   0.25569   0.07230   0.00000  Uiso   1.00
C236   C     0.71532   0.17060   0.79157   0.00000  Uiso   1.00
C237   C     0.73201   0.09421   0.75928   0.00000  Uiso   1.00
C238   C     0.80647   0.07776   0.79254   0.00000  Uiso   1.00
C239   C     0.91855   0.02116   0.82515   0.00000  Uiso   1.00
C240   C     0.66033   0.28061   0.73140   0.00000  Uiso   1.00
C241   C     0.63081   0.29672   0.64850   0.00000  Uiso   1.00
C242   C     0.65900   0.37289   0.63109   0.00000  Uiso   1.00
C243   C     0.68570   0.48710   0.57028   0.00000  Uiso   1.00
C244   C     0.74027   0.30798   0.88081   0.00000  Uiso   1.00
C245   C     0.66343   0.28388   0.91316   0.00000  Uiso   1.00
C246   C     0.64742   0.31411   0.99553   0.00000  Uiso   1.00
C247   C     0.57362   0.28434   0.01243   0.00000  Uiso   1.00
C248   C     0.77103   0.22850   0.85482   0.00000  Uiso   1.00
C249   C     0.84550   0.21216   0.88813   0.00000  Uiso   1.00
C250   C     0.86229   0.13577   0.85591   0.00000  Uiso   1.00
C251   C     0.71605   0.33851   0.79465   0.00000  Uiso   1.00
C252   C     0.74430   0.41467   0.77736   0.00000  Uiso   1.00
C253   C     0.71482   0.43090   0.69446   0.00000  Uiso   1.00
H254   H     0.59432   0.15630   0.71511   0.00000  Uiso   1.00
H255   H     0.49083   0.15134   0.81772   0.00000  Uiso   1.00
H256   H     0.68888   0.04942   0.71033   0.00000  Uiso   1.00
H257   H     0.58769   0.25190   0.59957   0.00000  Uiso   1.00
H258   H     0.40067   0.17137   0.95939   0.00000  Uiso   1.00
H259   H     0.81829   0.95646   0.73292   0.00000  Uiso   1.00
H260   H     0.60492   0.38343   0.49937   0.00000  Uiso   1.00
H261   H     0.78365   0.35306   0.93006   0.00000  Uiso   1.00
H262   H     0.69054   0.35892   0.04447   0.00000  Uiso   1.00
H263   H     0.88860   0.25698   0.93708   0.00000  Uiso   1.00
H264   H     0.78741   0.45946   0.82632   0.00000  Uiso   1.00
H265   H     0.56277   0.33984   0.14343   0.00000  Uiso   1.00
H266   H     0.98039   0.12493   0.91696   0.00000  Uiso   1.00
H267   H     0.76702   0.55190   0.68342   0.00000  Uiso   1.00
O268   O     0.41707   0.25588   0.12280   0.00000  Uiso   1.00
O269   O     0.96497   0.97394   0.82568   0.00000  Uiso   1.00
O270   O     0.68503   0.53411   0.51927   0.00000  Uiso   1.00
N271   N     0.45159   0.21023   0.98699   0.00000  Uiso   1.00
N272   N     0.84203   0.00930   0.77527   0.00000  Uiso   1.00
N273   N     0.64257   0.40847   0.55692   0.00000  Uiso   1.00
N274   N     0.53882   0.30088   0.08603   0.00000  Uiso   1.00
N275   N     0.92926   0.09995   0.87431   0.00000  Uiso   1.00
N276   N     0.72979   0.49912   0.65595   0.00000  Uiso   1.00
