data_job_02613
_audit_creation_date              2018-12-19
_audit_creation_method            'Materials Studio'
_symmetry_space_group_name_H-M    'P1'
_symmetry_Int_Tables_number       1
_symmetry_cell_setting            triclinic
loop_
_symmetry_equiv_pos_as_xyz
  x,y,z
_cell_length_a                    30.6924
_cell_length_b                    9.4369
_cell_length_c                    22.5391
_cell_angle_alpha                 90.0000
_cell_angle_beta                  43.7285
_cell_angle_gamma                 90.0000
loop_
_atom_site_label
_atom_site_type_symbol
_atom_site_fract_x
_atom_site_fract_y
_atom_site_fract_z
_atom_site_U_iso_or_equiv
_atom_site_adp_type
_atom_site_occupancy
C1     C     0.22770   0.80664   0.81093   0.00000  Uiso   1.00
C2     C     0.17379   0.90360   0.84517   0.00000  Uiso   1.00
C3     C     0.15030   0.91743   0.81112   0.00000  Uiso   1.00
C4     C     0.10082   0.01176   0.85171   0.00000  Uiso   1.00
C5     C     0.02093   0.15055   0.89389   0.00000  Uiso   1.00
C6     C     0.27642   0.90202   0.79265   0.00000  Uiso   1.00
C7     C     0.33923   0.91451   0.71444   0.00000  Uiso   1.00
C8     C     0.37615   0.00750   0.71083   0.00000  Uiso   1.00
C9     C     0.45562   0.14376   0.67149   0.00000  Uiso   1.00
C10    C     0.20132   0.71227   0.88588   0.00000  Uiso   1.00
C11    C     0.20098   0.56521   0.88605   0.00000  Uiso   1.00
C12    C     0.17468   0.49845   0.96092   0.00000  Uiso   1.00
C13    C     0.13753   0.34010   0.06633   0.00000  Uiso   1.00
C14    C     0.18161   0.94958   0.94359   0.00000  Uiso   1.00
C15    C     0.14875   0.98124   0.91723   0.00000  Uiso   1.00
C16    C     0.09930   0.07557   0.95789   0.00000  Uiso   1.00
C17    C     0.07573   0.08953   0.92390   0.00000  Uiso   1.00
C18    C     0.25139   0.97966   0.86470   0.00000  Uiso   1.00
C19    C     0.28823   0.07264   0.86121   0.00000  Uiso   1.00
C20    C     0.35107   0.08528   0.78302   0.00000  Uiso   1.00
C21    C     0.17628   0.78991   0.95794   0.00000  Uiso   1.00
C22    C     0.14998   0.72336   0.03282   0.00000  Uiso   1.00
C23    C     0.14960   0.57623   0.03311   0.00000  Uiso   1.00
H24    H     0.24720   0.74621   0.75483   0.00000  Uiso   1.00
H25    H     0.16969   0.85734   0.75535   0.00000  Uiso   1.00
H26    H     0.35859   0.85440   0.65869   0.00000  Uiso   1.00
H27    H     0.22036   0.50517   0.83027   0.00000  Uiso   1.00
H28    H     0.07273   0.01483   0.78768   0.00000  Uiso   1.00
H29    H     0.47104   0.00860   0.58388   0.00000  Uiso   1.00
H30    H     0.17957   0.27217   0.94569   0.00000  Uiso   1.00
H31    H     0.16211   0.01002   0.99969   0.00000  Uiso   1.00
H32    H     0.07993   0.13563   0.01365   0.00000  Uiso   1.00
H33    H     0.26883   0.13270   0.91699   0.00000  Uiso   1.00
H34    H     0.13061   0.78347   0.08857   0.00000  Uiso   1.00
H35    H     0.99988   0.24071   0.99732   0.00000  Uiso   1.00
H36    H     0.39819   0.23448   0.79352   0.00000  Uiso   1.00
H37    H     0.10672   0.49805   0.15534   0.00000  Uiso   1.00
O38    O     0.98379   0.20567   0.89725   0.00000  Uiso   1.00
O39    O     0.50636   0.19748   0.62987   0.00000  Uiso   1.00
O40    O     0.12395   0.23131   0.10456   0.00000  Uiso   1.00
N41    N     0.06685   0.05073   0.83511   0.00000  Uiso   1.00
N42    N     0.43925   0.04493   0.64457   0.00000  Uiso   1.00
N43    N     0.16676   0.35643   0.98283   0.00000  Uiso   1.00
N44    N     0.02765   0.17227   0.94792   0.00000  Uiso   1.00
N45    N     0.40005   0.16647   0.75738   0.00000  Uiso   1.00
N46    N     0.12756   0.47797   0.09564   0.00000  Uiso   1.00
C47    C     0.72770   0.30664   0.81093   0.00000  Uiso   1.00
C48    C     0.67379   0.40360   0.84517   0.00000  Uiso   1.00
C49    C     0.65030   0.41743   0.81112   0.00000  Uiso   1.00
C50    C     0.60082   0.51176   0.85171   0.00000  Uiso   1.00
C51    C     0.52093   0.65055   0.89389   0.00000  Uiso   1.00
C52    C     0.77642   0.40202   0.79265   0.00000  Uiso   1.00
C53    C     0.83923   0.41451   0.71444   0.00000  Uiso   1.00
C54    C     0.87615   0.50750   0.71083   0.00000  Uiso   1.00
C55    C     0.95562   0.64376   0.67149   0.00000  Uiso   1.00
C56    C     0.70132   0.21227   0.88588   0.00000  Uiso   1.00
C57    C     0.70098   0.06521   0.88605   0.00000  Uiso   1.00
C58    C     0.67468   0.99845   0.96092   0.00000  Uiso   1.00
C59    C     0.63753   0.84010   0.06633   0.00000  Uiso   1.00
C60    C     0.68161   0.44958   0.94359   0.00000  Uiso   1.00
C61    C     0.64875   0.48124   0.91723   0.00000  Uiso   1.00
C62    C     0.59930   0.57557   0.95789   0.00000  Uiso   1.00
C63    C     0.57573   0.58953   0.92390   0.00000  Uiso   1.00
C64    C     0.75139   0.47966   0.86470   0.00000  Uiso   1.00
C65    C     0.78823   0.57264   0.86121   0.00000  Uiso   1.00
C66    C     0.85107   0.58528   0.78302   0.00000  Uiso   1.00
C67    C     0.67628   0.28991   0.95794   0.00000  Uiso   1.00
C68    C     0.64998   0.22336   0.03282   0.00000  Uiso   1.00
C69    C     0.64960   0.07623   0.03311   0.00000  Uiso   1.00
H70    H     0.74720   0.24621   0.75483   0.00000  Uiso   1.00
H71    H     0.66969   0.35734   0.75535   0.00000  Uiso   1.00
H72    H     0.85859   0.35440   0.65869   0.00000  Uiso   1.00
H73    H     0.72036   0.00517   0.83027   0.00000  Uiso   1.00
H74    H     0.57273   0.51483   0.78768   0.00000  Uiso   1.00
H75    H     0.97104   0.50860   0.58388   0.00000  Uiso   1.00
H76    H     0.67957   0.77217   0.94569   0.00000  Uiso   1.00
H77    H     0.66211   0.51002   0.99969   0.00000  Uiso   1.00
H78    H     0.57993   0.63563   0.01365   0.00000  Uiso   1.00
H79    H     0.76883   0.63270   0.91699   0.00000  Uiso   1.00
H80    H     0.63061   0.28347   0.08857   0.00000  Uiso   1.00
H81    H     0.49988   0.74071   0.99732   0.00000  Uiso   1.00
H82    H     0.89819   0.73448   0.79352   0.00000  Uiso   1.00
H83    H     0.60672   0.99805   0.15534   0.00000  Uiso   1.00
O84    O     0.48379   0.70567   0.89725   0.00000  Uiso   1.00
O85    O     0.00636   0.69748   0.62987   0.00000  Uiso   1.00
O86    O     0.62395   0.73131   0.10456   0.00000  Uiso   1.00
N87    N     0.56685   0.55073   0.83511   0.00000  Uiso   1.00
N88    N     0.93925   0.54493   0.64457   0.00000  Uiso   1.00
N89    N     0.66676   0.85643   0.98283   0.00000  Uiso   1.00
N90    N     0.52765   0.67227   0.94792   0.00000  Uiso   1.00
N91    N     0.90005   0.66647   0.75738   0.00000  Uiso   1.00
N92    N     0.62756   0.97797   0.09564   0.00000  Uiso   1.00
C93    C     0.77230   0.80664   0.68907   0.00000  Uiso   1.00
C94    C     0.82621   0.90360   0.65483   0.00000  Uiso   1.00
C95    C     0.84970   0.91743   0.68888   0.00000  Uiso   1.00
C96    C     0.89918   0.01176   0.64829   0.00000  Uiso   1.00
C97    C     0.97907   0.15055   0.60611   0.00000  Uiso   1.00
C98    C     0.72358   0.90202   0.70735   0.00000  Uiso   1.00
C99    C     0.66077   0.91451   0.78556   0.00000  Uiso   1.00
C100   C     0.62385   0.00750   0.78917   0.00000  Uiso   1.00
C101   C     0.54438   0.14376   0.82851   0.00000  Uiso   1.00
C102   C     0.79868   0.71227   0.61412   0.00000  Uiso   1.00
C103   C     0.79902   0.56521   0.61395   0.00000  Uiso   1.00
C104   C     0.82532   0.49845   0.53908   0.00000  Uiso   1.00
C105   C     0.86247   0.34010   0.43367   0.00000  Uiso   1.00
C106   C     0.81839   0.94958   0.55641   0.00000  Uiso   1.00
C107   C     0.85125   0.98124   0.58277   0.00000  Uiso   1.00
C108   C     0.90070   0.07557   0.54211   0.00000  Uiso   1.00
C109   C     0.92427   0.08953   0.57610   0.00000  Uiso   1.00
C110   C     0.74861   0.97966   0.63530   0.00000  Uiso   1.00
C111   C     0.71177   0.07264   0.63879   0.00000  Uiso   1.00
C112   C     0.64893   0.08528   0.71698   0.00000  Uiso   1.00
C113   C     0.82372   0.78991   0.54206   0.00000  Uiso   1.00
C114   C     0.85002   0.72336   0.46718   0.00000  Uiso   1.00
C115   C     0.85040   0.57623   0.46689   0.00000  Uiso   1.00
H116   H     0.75280   0.74621   0.74517   0.00000  Uiso   1.00
H117   H     0.83031   0.85734   0.74465   0.00000  Uiso   1.00
H118   H     0.64141   0.85440   0.84131   0.00000  Uiso   1.00
H119   H     0.77964   0.50517   0.66973   0.00000  Uiso   1.00
H120   H     0.92727   0.01483   0.71232   0.00000  Uiso   1.00
H121   H     0.52896   0.00860   0.91612   0.00000  Uiso   1.00
H122   H     0.82043   0.27217   0.55431   0.00000  Uiso   1.00
H123   H     0.83789   0.01002   0.50031   0.00000  Uiso   1.00
H124   H     0.92007   0.13563   0.48635   0.00000  Uiso   1.00
H125   H     0.73117   0.13270   0.58301   0.00000  Uiso   1.00
H126   H     0.86939   0.78347   0.41143   0.00000  Uiso   1.00
H127   H     0.00012   0.24071   0.50268   0.00000  Uiso   1.00
H128   H     0.60181   0.23448   0.70648   0.00000  Uiso   1.00
H129   H     0.89328   0.49805   0.34466   0.00000  Uiso   1.00
O130   O     0.01621   0.20567   0.60275   0.00000  Uiso   1.00
O131   O     0.49364   0.19748   0.87013   0.00000  Uiso   1.00
O132   O     0.87605   0.23131   0.39544   0.00000  Uiso   1.00
N133   N     0.93315   0.05073   0.66489   0.00000  Uiso   1.00
N134   N     0.56075   0.04493   0.85543   0.00000  Uiso   1.00
N135   N     0.83324   0.35643   0.51717   0.00000  Uiso   1.00
N136   N     0.97235   0.17227   0.55208   0.00000  Uiso   1.00
N137   N     0.59995   0.16647   0.74262   0.00000  Uiso   1.00
N138   N     0.87244   0.47797   0.40436   0.00000  Uiso   1.00
C139   C     0.27230   0.30664   0.68907   0.00000  Uiso   1.00
C140   C     0.32621   0.40360   0.65483   0.00000  Uiso   1.00
C141   C     0.34970   0.41743   0.68888   0.00000  Uiso   1.00
C142   C     0.39918   0.51176   0.64829   0.00000  Uiso   1.00
C143   C     0.47907   0.65055   0.60611   0.00000  Uiso   1.00
C144   C     0.22358   0.40202   0.70735   0.00000  Uiso   1.00
C145   C     0.16077   0.41451   0.78556   0.00000  Uiso   1.00
C146   C     0.12385   0.50750   0.78917   0.00000  Uiso   1.00
C147   C     0.04438   0.64376   0.82851   0.00000  Uiso   1.00
C148   C     0.29868   0.21227   0.61412   0.00000  Uiso   1.00
C149   C     0.29902   0.06521   0.61395   0.00000  Uiso   1.00
C150   C     0.32532   0.99845   0.53908   0.00000  Uiso   1.00
C151   C     0.36247   0.84010   0.43367   0.00000  Uiso   1.00
C152   C     0.31839   0.44958   0.55641   0.00000  Uiso   1.00
C153   C     0.35125   0.48124   0.58277   0.00000  Uiso   1.00
C154   C     0.40070   0.57557   0.54211   0.00000  Uiso   1.00
C155   C     0.42427   0.58953   0.57610   0.00000  Uiso   1.00
C156   C     0.24861   0.47966   0.63530   0.00000  Uiso   1.00
C157   C     0.21177   0.57264   0.63879   0.00000  Uiso   1.00
C158   C     0.14893   0.58528   0.71698   0.00000  Uiso   1.00
C159   C     0.32372   0.28991   0.54206   0.00000  Uiso   1.00
C160   C     0.35002   0.22336   0.46718   0.00000  Uiso   1.00
C161   C     0.35040   0.07623   0.46689   0.00000  Uiso   1.00
H162   H     0.25280   0.24621   0.74517   0.00000  Uiso   1.00
H163   H     0.33031   0.35734   0.74465   0.00000  Uiso   1.00
H164   H     0.14141   0.35440   0.84131   0.00000  Uiso   1.00
H165   H     0.27964   0.00517   0.66973   0.00000  Uiso   1.00
H166   H     0.42727   0.51483   0.71232   0.00000  Uiso   1.00
H167   H     0.02896   0.50860   0.91612   0.00000  Uiso   1.00
H168   H     0.32043   0.77217   0.55431   0.00000  Uiso   1.00
H169   H     0.33789   0.51002   0.50031   0.00000  Uiso   1.00
H170   H     0.42007   0.63563   0.48635   0.00000  Uiso   1.00
H171   H     0.23117   0.63270   0.58301   0.00000  Uiso   1.00
H172   H     0.36939   0.28347   0.41143   0.00000  Uiso   1.00
H173   H     0.50012   0.74071   0.50268   0.00000  Uiso   1.00
H174   H     0.10181   0.73448   0.70648   0.00000  Uiso   1.00
H175   H     0.39328   0.99805   0.34466   0.00000  Uiso   1.00
O176   O     0.51621   0.70567   0.60275   0.00000  Uiso   1.00
O177   O     0.99364   0.69748   0.87013   0.00000  Uiso   1.00
O178   O     0.37605   0.73131   0.39544   0.00000  Uiso   1.00
N179   N     0.43315   0.55073   0.66489   0.00000  Uiso   1.00
N180   N     0.06075   0.54493   0.85543   0.00000  Uiso   1.00
N181   N     0.33324   0.85643   0.51717   0.00000  Uiso   1.00
N182   N     0.47235   0.67227   0.55208   0.00000  Uiso   1.00
N183   N     0.09995   0.66647   0.74262   0.00000  Uiso   1.00
N184   N     0.37244   0.97797   0.40436   0.00000  Uiso   1.00
C185   C     0.77230   0.19336   0.18907   0.00000  Uiso   1.00
C186   C     0.82621   0.09640   0.15483   0.00000  Uiso   1.00
C187   C     0.84970   0.08257   0.18888   0.00000  Uiso   1.00
C188   C     0.89918   0.98824   0.14829   0.00000  Uiso   1.00
C189   C     0.97907   0.84945   0.10611   0.00000  Uiso   1.00
C190   C     0.72358   0.09798   0.20735   0.00000  Uiso   1.00
C191   C     0.66077   0.08549   0.28556   0.00000  Uiso   1.00
C192   C     0.62385   0.99250   0.28917   0.00000  Uiso   1.00
C193   C     0.54438   0.85624   0.32851   0.00000  Uiso   1.00
C194   C     0.79868   0.28773   0.11412   0.00000  Uiso   1.00
C195   C     0.79902   0.43479   0.11395   0.00000  Uiso   1.00
C196   C     0.82532   0.50155   0.03908   0.00000  Uiso   1.00
C197   C     0.86247   0.65990   0.93367   0.00000  Uiso   1.00
C198   C     0.81839   0.05042   0.05641   0.00000  Uiso   1.00
C199   C     0.85125   0.01876   0.08277   0.00000  Uiso   1.00
C200   C     0.90070   0.92443   0.04211   0.00000  Uiso   1.00
C201   C     0.92427   0.91047   0.07610   0.00000  Uiso   1.00
C202   C     0.74861   0.02034   0.13530   0.00000  Uiso   1.00
C203   C     0.71177   0.92736   0.13879   0.00000  Uiso   1.00
C204   C     0.64893   0.91472   0.21698   0.00000  Uiso   1.00
C205   C     0.82372   0.21009   0.04206   0.00000  Uiso   1.00
C206   C     0.85002   0.27664   0.96718   0.00000  Uiso   1.00
C207   C     0.85040   0.42377   0.96689   0.00000  Uiso   1.00
H208   H     0.75280   0.25379   0.24517   0.00000  Uiso   1.00
H209   H     0.83031   0.14266   0.24465   0.00000  Uiso   1.00
H210   H     0.64141   0.14560   0.34131   0.00000  Uiso   1.00
H211   H     0.77964   0.49483   0.16973   0.00000  Uiso   1.00
H212   H     0.92727   0.98517   0.21232   0.00000  Uiso   1.00
H213   H     0.52896   0.99140   0.41612   0.00000  Uiso   1.00
H214   H     0.82043   0.72783   0.05431   0.00000  Uiso   1.00
H215   H     0.83789   0.98998   0.00031   0.00000  Uiso   1.00
H216   H     0.92007   0.86437   0.98635   0.00000  Uiso   1.00
H217   H     0.73117   0.86730   0.08301   0.00000  Uiso   1.00
H218   H     0.86939   0.21653   0.91143   0.00000  Uiso   1.00
H219   H     0.00012   0.75929   0.00268   0.00000  Uiso   1.00
H220   H     0.60181   0.76552   0.20648   0.00000  Uiso   1.00
H221   H     0.89328   0.50195   0.84466   0.00000  Uiso   1.00
O222   O     0.01621   0.79433   0.10275   0.00000  Uiso   1.00
O223   O     0.49364   0.80252   0.37013   0.00000  Uiso   1.00
O224   O     0.87605   0.76869   0.89544   0.00000  Uiso   1.00
N225   N     0.93315   0.94927   0.16489   0.00000  Uiso   1.00
N226   N     0.56075   0.95507   0.35543   0.00000  Uiso   1.00
N227   N     0.83324   0.64357   0.01717   0.00000  Uiso   1.00
N228   N     0.97235   0.82773   0.05208   0.00000  Uiso   1.00
N229   N     0.59995   0.83353   0.24262   0.00000  Uiso   1.00
N230   N     0.87244   0.52203   0.90436   0.00000  Uiso   1.00
C231   C     0.27230   0.69336   0.18907   0.00000  Uiso   1.00
C232   C     0.32621   0.59640   0.15483   0.00000  Uiso   1.00
C233   C     0.34970   0.58257   0.18888   0.00000  Uiso   1.00
C234   C     0.39918   0.48824   0.14829   0.00000  Uiso   1.00
C235   C     0.47907   0.34945   0.10611   0.00000  Uiso   1.00
C236   C     0.22358   0.59798   0.20735   0.00000  Uiso   1.00
C237   C     0.16077   0.58549   0.28556   0.00000  Uiso   1.00
C238   C     0.12385   0.49250   0.28917   0.00000  Uiso   1.00
C239   C     0.04438   0.35624   0.32851   0.00000  Uiso   1.00
C240   C     0.29868   0.78773   0.11412   0.00000  Uiso   1.00
C241   C     0.29902   0.93479   0.11395   0.00000  Uiso   1.00
C242   C     0.32532   0.00155   0.03908   0.00000  Uiso   1.00
C243   C     0.36247   0.15990   0.93367   0.00000  Uiso   1.00
C244   C     0.31839   0.55042   0.05641   0.00000  Uiso   1.00
C245   C     0.35125   0.51876   0.08277   0.00000  Uiso   1.00
C246   C     0.40070   0.42443   0.04211   0.00000  Uiso   1.00
C247   C     0.42427   0.41047   0.07610   0.00000  Uiso   1.00
C248   C     0.24861   0.52034   0.13530   0.00000  Uiso   1.00
C249   C     0.21177   0.42736   0.13879   0.00000  Uiso   1.00
C250   C     0.14893   0.41472   0.21698   0.00000  Uiso   1.00
C251   C     0.32372   0.71009   0.04206   0.00000  Uiso   1.00
C252   C     0.35002   0.77664   0.96718   0.00000  Uiso   1.00
C253   C     0.35040   0.92377   0.96689   0.00000  Uiso   1.00
H254   H     0.25280   0.75379   0.24517   0.00000  Uiso   1.00
H255   H     0.33031   0.64266   0.24465   0.00000  Uiso   1.00
H256   H     0.14141   0.64560   0.34131   0.00000  Uiso   1.00
H257   H     0.27964   0.99483   0.16973   0.00000  Uiso   1.00
H258   H     0.42727   0.48517   0.21232   0.00000  Uiso   1.00
H259   H     0.02896   0.49140   0.41612   0.00000  Uiso   1.00
H260   H     0.32043   0.22783   0.05431   0.00000  Uiso   1.00
H261   H     0.33789   0.48998   0.00031   0.00000  Uiso   1.00
H262   H     0.42007   0.36437   0.98635   0.00000  Uiso   1.00
H263   H     0.23117   0.36730   0.08301   0.00000  Uiso   1.00
H264   H     0.36939   0.71653   0.91143   0.00000  Uiso   1.00
H265   H     0.50012   0.25929   0.00268   0.00000  Uiso   1.00
H266   H     0.10181   0.26552   0.20648   0.00000  Uiso   1.00
H267   H     0.39328   0.00195   0.84466   0.00000  Uiso   1.00
O268   O     0.51621   0.29433   0.10275   0.00000  Uiso   1.00
O269   O     0.99364   0.30252   0.37013   0.00000  Uiso   1.00
O270   O     0.37605   0.26869   0.89544   0.00000  Uiso   1.00
N271   N     0.43315   0.44927   0.16489   0.00000  Uiso   1.00
N272   N     0.06075   0.45507   0.35543   0.00000  Uiso   1.00
N273   N     0.33324   0.14357   0.01717   0.00000  Uiso   1.00
N274   N     0.47235   0.32773   0.05208   0.00000  Uiso   1.00
N275   N     0.09995   0.33353   0.24262   0.00000  Uiso   1.00
N276   N     0.37244   0.02203   0.90436   0.00000  Uiso   1.00
C277   C     0.22770   0.19336   0.31093   0.00000  Uiso   1.00
C278   C     0.17379   0.09640   0.34517   0.00000  Uiso   1.00
C279   C     0.15030   0.08257   0.31112   0.00000  Uiso   1.00
C280   C     0.10082   0.98824   0.35171   0.00000  Uiso   1.00
C281   C     0.02093   0.84945   0.39389   0.00000  Uiso   1.00
C282   C     0.27642   0.09798   0.29265   0.00000  Uiso   1.00
C283   C     0.33923   0.08549   0.21444   0.00000  Uiso   1.00
C284   C     0.37615   0.99250   0.21083   0.00000  Uiso   1.00
C285   C     0.45562   0.85624   0.17149   0.00000  Uiso   1.00
C286   C     0.20132   0.28773   0.38588   0.00000  Uiso   1.00
C287   C     0.20098   0.43479   0.38605   0.00000  Uiso   1.00
C288   C     0.17468   0.50155   0.46092   0.00000  Uiso   1.00
C289   C     0.13753   0.65990   0.56633   0.00000  Uiso   1.00
C290   C     0.18161   0.05042   0.44359   0.00000  Uiso   1.00
C291   C     0.14875   0.01876   0.41723   0.00000  Uiso   1.00
C292   C     0.09930   0.92443   0.45789   0.00000  Uiso   1.00
C293   C     0.07573   0.91047   0.42390   0.00000  Uiso   1.00
C294   C     0.25139   0.02034   0.36470   0.00000  Uiso   1.00
C295   C     0.28823   0.92736   0.36121   0.00000  Uiso   1.00
C296   C     0.35107   0.91472   0.28302   0.00000  Uiso   1.00
C297   C     0.17628   0.21009   0.45794   0.00000  Uiso   1.00
C298   C     0.14998   0.27664   0.53282   0.00000  Uiso   1.00
C299   C     0.14960   0.42377   0.53311   0.00000  Uiso   1.00
H300   H     0.24720   0.25379   0.25483   0.00000  Uiso   1.00
H301   H     0.16969   0.14266   0.25535   0.00000  Uiso   1.00
H302   H     0.35859   0.14560   0.15869   0.00000  Uiso   1.00
H303   H     0.22036   0.49483   0.33027   0.00000  Uiso   1.00
H304   H     0.07273   0.98517   0.28768   0.00000  Uiso   1.00
H305   H     0.47104   0.99140   0.08388   0.00000  Uiso   1.00
H306   H     0.17957   0.72783   0.44569   0.00000  Uiso   1.00
H307   H     0.16211   0.98998   0.49969   0.00000  Uiso   1.00
H308   H     0.07993   0.86437   0.51365   0.00000  Uiso   1.00
H309   H     0.26883   0.86730   0.41699   0.00000  Uiso   1.00
H310   H     0.13061   0.21653   0.58857   0.00000  Uiso   1.00
H311   H     0.99988   0.75929   0.49732   0.00000  Uiso   1.00
H312   H     0.39819   0.76552   0.29352   0.00000  Uiso   1.00
H313   H     0.10672   0.50195   0.65534   0.00000  Uiso   1.00
O314   O     0.98379   0.79433   0.39725   0.00000  Uiso   1.00
O315   O     0.50636   0.80252   0.12987   0.00000  Uiso   1.00
O316   O     0.12395   0.76869   0.60456   0.00000  Uiso   1.00
N317   N     0.06685   0.94927   0.33511   0.00000  Uiso   1.00
N318   N     0.43925   0.95507   0.14457   0.00000  Uiso   1.00
N319   N     0.16676   0.64357   0.48283   0.00000  Uiso   1.00
N320   N     0.02765   0.82773   0.44792   0.00000  Uiso   1.00
N321   N     0.40005   0.83353   0.25738   0.00000  Uiso   1.00
N322   N     0.12756   0.52203   0.59564   0.00000  Uiso   1.00
C323   C     0.72770   0.69336   0.31093   0.00000  Uiso   1.00
C324   C     0.67379   0.59640   0.34517   0.00000  Uiso   1.00
C325   C     0.65030   0.58257   0.31112   0.00000  Uiso   1.00
C326   C     0.60082   0.48824   0.35171   0.00000  Uiso   1.00
C327   C     0.52093   0.34945   0.39389   0.00000  Uiso   1.00
C328   C     0.77642   0.59798   0.29265   0.00000  Uiso   1.00
C329   C     0.83923   0.58549   0.21444   0.00000  Uiso   1.00
C330   C     0.87615   0.49250   0.21083   0.00000  Uiso   1.00
C331   C     0.95562   0.35624   0.17149   0.00000  Uiso   1.00
C332   C     0.70132   0.78773   0.38588   0.00000  Uiso   1.00
C333   C     0.70098   0.93479   0.38605   0.00000  Uiso   1.00
C334   C     0.67468   0.00155   0.46092   0.00000  Uiso   1.00
C335   C     0.63753   0.15990   0.56633   0.00000  Uiso   1.00
C336   C     0.68161   0.55042   0.44359   0.00000  Uiso   1.00
C337   C     0.64875   0.51876   0.41723   0.00000  Uiso   1.00
C338   C     0.59930   0.42443   0.45789   0.00000  Uiso   1.00
C339   C     0.57573   0.41047   0.42390   0.00000  Uiso   1.00
C340   C     0.75139   0.52034   0.36470   0.00000  Uiso   1.00
C341   C     0.78823   0.42736   0.36121   0.00000  Uiso   1.00
C342   C     0.85107   0.41472   0.28302   0.00000  Uiso   1.00
C343   C     0.67628   0.71009   0.45794   0.00000  Uiso   1.00
C344   C     0.64998   0.77664   0.53282   0.00000  Uiso   1.00
C345   C     0.64960   0.92377   0.53311   0.00000  Uiso   1.00
H346   H     0.74720   0.75379   0.25483   0.00000  Uiso   1.00
H347   H     0.66969   0.64266   0.25535   0.00000  Uiso   1.00
H348   H     0.85859   0.64560   0.15869   0.00000  Uiso   1.00
H349   H     0.72036   0.99483   0.33027   0.00000  Uiso   1.00
H350   H     0.57273   0.48517   0.28768   0.00000  Uiso   1.00
H351   H     0.97104   0.49140   0.08388   0.00000  Uiso   1.00
H352   H     0.67957   0.22783   0.44569   0.00000  Uiso   1.00
H353   H     0.66211   0.48998   0.49969   0.00000  Uiso   1.00
H354   H     0.57993   0.36437   0.51365   0.00000  Uiso   1.00
H355   H     0.76883   0.36730   0.41699   0.00000  Uiso   1.00
H356   H     0.63061   0.71653   0.58857   0.00000  Uiso   1.00
H357   H     0.49988   0.25929   0.49732   0.00000  Uiso   1.00
H358   H     0.89819   0.26552   0.29352   0.00000  Uiso   1.00
H359   H     0.60672   0.00195   0.65534   0.00000  Uiso   1.00
O360   O     0.48379   0.29433   0.39725   0.00000  Uiso   1.00
O361   O     0.00636   0.30252   0.12987   0.00000  Uiso   1.00
O362   O     0.62395   0.26869   0.60456   0.00000  Uiso   1.00
N363   N     0.56685   0.44927   0.33511   0.00000  Uiso   1.00
N364   N     0.93925   0.45507   0.14457   0.00000  Uiso   1.00
N365   N     0.66676   0.14357   0.48283   0.00000  Uiso   1.00
N366   N     0.52765   0.32773   0.44792   0.00000  Uiso   1.00
N367   N     0.90005   0.33353   0.25738   0.00000  Uiso   1.00
N368   N     0.62756   0.02203   0.59564   0.00000  Uiso   1.00
