data_job_01007
_audit_creation_date              2018-12-19
_audit_creation_method            'Materials Studio'
_symmetry_space_group_name_H-M    'P1'
_symmetry_Int_Tables_number       1
_symmetry_cell_setting            triclinic
loop_
_symmetry_equiv_pos_as_xyz
  x,y,z
_cell_length_a                    22.2086
_cell_length_b                    9.7978
_cell_length_c                    24.8611
_cell_angle_alpha                 90.0000
_cell_angle_beta                  90.0000
_cell_angle_gamma                 90.0000
loop_
_atom_site_label
_atom_site_type_symbol
_atom_site_fract_x
_atom_site_fract_y
_atom_site_fract_z
_atom_site_U_iso_or_equiv
_atom_site_adp_type
_atom_site_occupancy
C1     C     0.36009   0.55884   0.64877   0.00000  Uiso   1.00
C2     C     0.34192   0.63959   0.69863   0.00000  Uiso   1.00
C3     C     0.28935   0.62165   0.72796   0.00000  Uiso   1.00
C4     C     0.28104   0.70573   0.77230   0.00000  Uiso   1.00
C5     C     0.24631   0.81618   0.84751   0.00000  Uiso   1.00
C6     C     0.37076   0.66403   0.60458   0.00000  Uiso   1.00
C7     C     0.34245   0.66663   0.55482   0.00000  Uiso   1.00
C8     C     0.35843   0.77128   0.51998   0.00000  Uiso   1.00
C9     C     0.36852   0.91962   0.44916   0.00000  Uiso   1.00
C10    C     0.42153   0.49711   0.66131   0.00000  Uiso   1.00
C11    C     0.43591   0.35936   0.65924   0.00000  Uiso   1.00
C12    C     0.49464   0.32348   0.67215   0.00000  Uiso   1.00
C13    C     0.58355   0.21265   0.68941   0.00000  Uiso   1.00
C14    C     0.43883   0.74007   0.67535   0.00000  Uiso   1.00
C15    C     0.38469   0.73802   0.71307   0.00000  Uiso   1.00
C16    C     0.37646   0.82215   0.75737   0.00000  Uiso   1.00
C17    C     0.32389   0.80434   0.78676   0.00000  Uiso   1.00
C18    C     0.41353   0.76246   0.61901   0.00000  Uiso   1.00
C19    C     0.42956   0.86713   0.58424   0.00000  Uiso   1.00
C20    C     0.40128   0.86989   0.53444   0.00000  Uiso   1.00
C21    C     0.46430   0.59554   0.67575   0.00000  Uiso   1.00
C22    C     0.52302   0.55987   0.68866   0.00000  Uiso   1.00
C23    C     0.53748   0.42209   0.68661   0.00000  Uiso   1.00
H24    H     0.32679   0.48221   0.63752   0.00000  Uiso   1.00
H25    H     0.25625   0.54547   0.71677   0.00000  Uiso   1.00
H26    H     0.30935   0.59043   0.54366   0.00000  Uiso   1.00
H27    H     0.40280   0.28322   0.64807   0.00000  Uiso   1.00
H28    H     0.19691   0.65905   0.81099   0.00000  Uiso   1.00
H29    H     0.30888   0.75383   0.44597   0.00000  Uiso   1.00
H30    H     0.50593   0.10600   0.66612   0.00000  Uiso   1.00
H31    H     0.47213   0.81670   0.68659   0.00000  Uiso   1.00
H32    H     0.40957   0.89832   0.76854   0.00000  Uiso   1.00
H33    H     0.46267   0.94328   0.59542   0.00000  Uiso   1.00
H34    H     0.55611   0.63607   0.69983   0.00000  Uiso   1.00
H35    H     0.32134   0.94544   0.85300   0.00000  Uiso   1.00
H36    H     0.43332   0.04021   0.48798   0.00000  Uiso   1.00
H37    H     0.63036   0.39239   0.70814   0.00000  Uiso   1.00
O38    O     0.21534   0.84993   0.88500   0.00000  Uiso   1.00
O39    O     0.36226   0.97425   0.40611   0.00000  Uiso   1.00
O40    O     0.62077   0.12433   0.69495   0.00000  Uiso   1.00
N41    N     0.23478   0.71523   0.80964   0.00000  Uiso   1.00
N42    N     0.33947   0.80386   0.46837   0.00000  Uiso   1.00
N43    N     0.52369   0.19820   0.67418   0.00000  Uiso   1.00
N44    N     0.30174   0.86933   0.83224   0.00000  Uiso   1.00
N45    N     0.40643   0.95796   0.49097   0.00000  Uiso   1.00
N46    N     0.59065   0.35230   0.69679   0.00000  Uiso   1.00
C47    C     0.13991   0.94116   0.14877   0.00000  Uiso   1.00
C48    C     0.15808   0.86041   0.19863   0.00000  Uiso   1.00
C49    C     0.21065   0.87835   0.22796   0.00000  Uiso   1.00
C50    C     0.21896   0.79427   0.27230   0.00000  Uiso   1.00
C51    C     0.25369   0.68382   0.34751   0.00000  Uiso   1.00
C52    C     0.12924   0.83597   0.10458   0.00000  Uiso   1.00
C53    C     0.15755   0.83337   0.05482   0.00000  Uiso   1.00
C54    C     0.14157   0.72872   0.01998   0.00000  Uiso   1.00
C55    C     0.13148   0.58038   0.94916   0.00000  Uiso   1.00
C56    C     0.07847   0.00289   0.16131   0.00000  Uiso   1.00
C57    C     0.06409   0.14064   0.15924   0.00000  Uiso   1.00
C58    C     0.00536   0.17652   0.17215   0.00000  Uiso   1.00
C59    C     0.91645   0.28735   0.18941   0.00000  Uiso   1.00
C60    C     0.06117   0.75993   0.17535   0.00000  Uiso   1.00
C61    C     0.11531   0.76198   0.21307   0.00000  Uiso   1.00
C62    C     0.12354   0.67785   0.25737   0.00000  Uiso   1.00
C63    C     0.17611   0.69566   0.28676   0.00000  Uiso   1.00
C64    C     0.08647   0.73754   0.11901   0.00000  Uiso   1.00
C65    C     0.07044   0.63287   0.08424   0.00000  Uiso   1.00
C66    C     0.09872   0.63011   0.03444   0.00000  Uiso   1.00
C67    C     0.03570   0.90446   0.17575   0.00000  Uiso   1.00
C68    C     0.97698   0.94013   0.18866   0.00000  Uiso   1.00
C69    C     0.96252   0.07791   0.18661   0.00000  Uiso   1.00
H70    H     0.17321   0.01779   0.13752   0.00000  Uiso   1.00
H71    H     0.24375   0.95453   0.21677   0.00000  Uiso   1.00
H72    H     0.19065   0.90957   0.04366   0.00000  Uiso   1.00
H73    H     0.09720   0.21678   0.14807   0.00000  Uiso   1.00
H74    H     0.30309   0.84095   0.31099   0.00000  Uiso   1.00
H75    H     0.19112   0.74617   0.94597   0.00000  Uiso   1.00
H76    H     0.99407   0.39400   0.16612   0.00000  Uiso   1.00
H77    H     0.02787   0.68330   0.18659   0.00000  Uiso   1.00
H78    H     0.09043   0.60168   0.26854   0.00000  Uiso   1.00
H79    H     0.03733   0.55672   0.09542   0.00000  Uiso   1.00
H80    H     0.94389   0.86393   0.19983   0.00000  Uiso   1.00
H81    H     0.17866   0.55456   0.35300   0.00000  Uiso   1.00
H82    H     0.06668   0.45979   0.98798   0.00000  Uiso   1.00
H83    H     0.86964   0.10761   0.20814   0.00000  Uiso   1.00
O84    O     0.28466   0.65007   0.38500   0.00000  Uiso   1.00
O85    O     0.13774   0.52575   0.90611   0.00000  Uiso   1.00
O86    O     0.87923   0.37567   0.19495   0.00000  Uiso   1.00
N87    N     0.26522   0.78477   0.30964   0.00000  Uiso   1.00
N88    N     0.16053   0.69614   0.96837   0.00000  Uiso   1.00
N89    N     0.97631   0.30180   0.17418   0.00000  Uiso   1.00
N90    N     0.19826   0.63067   0.33224   0.00000  Uiso   1.00
N91    N     0.09357   0.54204   0.99097   0.00000  Uiso   1.00
N92    N     0.90935   0.14770   0.19679   0.00000  Uiso   1.00
C93    C     0.63991   0.55884   0.85123   0.00000  Uiso   1.00
C94    C     0.65808   0.63959   0.80137   0.00000  Uiso   1.00
C95    C     0.71065   0.62165   0.77204   0.00000  Uiso   1.00
C96    C     0.71896   0.70573   0.72770   0.00000  Uiso   1.00
C97    C     0.75369   0.81618   0.65249   0.00000  Uiso   1.00
C98    C     0.62924   0.66403   0.89542   0.00000  Uiso   1.00
C99    C     0.65755   0.66663   0.94518   0.00000  Uiso   1.00
C100   C     0.64157   0.77128   0.98002   0.00000  Uiso   1.00
C101   C     0.63148   0.91962   0.05084   0.00000  Uiso   1.00
C102   C     0.57847   0.49711   0.83869   0.00000  Uiso   1.00
C103   C     0.56409   0.35936   0.84076   0.00000  Uiso   1.00
C104   C     0.50536   0.32348   0.82785   0.00000  Uiso   1.00
C105   C     0.41645   0.21265   0.81059   0.00000  Uiso   1.00
C106   C     0.56117   0.74007   0.82465   0.00000  Uiso   1.00
C107   C     0.61531   0.73802   0.78693   0.00000  Uiso   1.00
C108   C     0.62354   0.82215   0.74263   0.00000  Uiso   1.00
C109   C     0.67611   0.80434   0.71324   0.00000  Uiso   1.00
C110   C     0.58647   0.76246   0.88099   0.00000  Uiso   1.00
C111   C     0.57044   0.86713   0.91576   0.00000  Uiso   1.00
C112   C     0.59872   0.86989   0.96556   0.00000  Uiso   1.00
C113   C     0.53570   0.59554   0.82425   0.00000  Uiso   1.00
C114   C     0.47698   0.55987   0.81134   0.00000  Uiso   1.00
C115   C     0.46252   0.42209   0.81339   0.00000  Uiso   1.00
H116   H     0.67321   0.48221   0.86248   0.00000  Uiso   1.00
H117   H     0.74375   0.54547   0.78323   0.00000  Uiso   1.00
H118   H     0.69065   0.59043   0.95634   0.00000  Uiso   1.00
H119   H     0.59720   0.28322   0.85193   0.00000  Uiso   1.00
H120   H     0.80309   0.65905   0.68901   0.00000  Uiso   1.00
H121   H     0.69112   0.75383   0.05403   0.00000  Uiso   1.00
H122   H     0.49407   0.10600   0.83388   0.00000  Uiso   1.00
H123   H     0.52787   0.81670   0.81341   0.00000  Uiso   1.00
H124   H     0.59043   0.89832   0.73146   0.00000  Uiso   1.00
H125   H     0.53733   0.94328   0.90458   0.00000  Uiso   1.00
H126   H     0.44389   0.63607   0.80017   0.00000  Uiso   1.00
H127   H     0.67866   0.94544   0.64700   0.00000  Uiso   1.00
H128   H     0.56668   0.04021   0.01202   0.00000  Uiso   1.00
H129   H     0.36964   0.39239   0.79186   0.00000  Uiso   1.00
O130   O     0.78466   0.84993   0.61500   0.00000  Uiso   1.00
O131   O     0.63774   0.97425   0.09389   0.00000  Uiso   1.00
O132   O     0.37923   0.12433   0.80505   0.00000  Uiso   1.00
N133   N     0.76522   0.71523   0.69036   0.00000  Uiso   1.00
N134   N     0.66053   0.80386   0.03163   0.00000  Uiso   1.00
N135   N     0.47631   0.19820   0.82582   0.00000  Uiso   1.00
N136   N     0.69826   0.86933   0.66776   0.00000  Uiso   1.00
N137   N     0.59357   0.95796   0.00903   0.00000  Uiso   1.00
N138   N     0.40935   0.35230   0.80321   0.00000  Uiso   1.00
C139   C     0.86009   0.94116   0.35123   0.00000  Uiso   1.00
C140   C     0.84192   0.86041   0.30137   0.00000  Uiso   1.00
C141   C     0.78935   0.87835   0.27204   0.00000  Uiso   1.00
C142   C     0.78104   0.79427   0.22770   0.00000  Uiso   1.00
C143   C     0.74631   0.68382   0.15249   0.00000  Uiso   1.00
C144   C     0.87076   0.83597   0.39542   0.00000  Uiso   1.00
C145   C     0.84245   0.83337   0.44518   0.00000  Uiso   1.00
C146   C     0.85843   0.72872   0.48002   0.00000  Uiso   1.00
C147   C     0.86852   0.58038   0.55084   0.00000  Uiso   1.00
C148   C     0.92153   0.00289   0.33869   0.00000  Uiso   1.00
C149   C     0.93591   0.14064   0.34076   0.00000  Uiso   1.00
C150   C     0.99464   0.17652   0.32785   0.00000  Uiso   1.00
C151   C     0.08355   0.28735   0.31059   0.00000  Uiso   1.00
C152   C     0.93883   0.75993   0.32465   0.00000  Uiso   1.00
C153   C     0.88469   0.76198   0.28693   0.00000  Uiso   1.00
C154   C     0.87646   0.67785   0.24263   0.00000  Uiso   1.00
C155   C     0.82389   0.69566   0.21324   0.00000  Uiso   1.00
C156   C     0.91353   0.73754   0.38099   0.00000  Uiso   1.00
C157   C     0.92956   0.63287   0.41576   0.00000  Uiso   1.00
C158   C     0.90128   0.63011   0.46556   0.00000  Uiso   1.00
C159   C     0.96430   0.90446   0.32425   0.00000  Uiso   1.00
C160   C     0.02302   0.94013   0.31134   0.00000  Uiso   1.00
C161   C     0.03748   0.07791   0.31339   0.00000  Uiso   1.00
H162   H     0.82679   0.01779   0.36248   0.00000  Uiso   1.00
H163   H     0.75625   0.95453   0.28323   0.00000  Uiso   1.00
H164   H     0.80935   0.90957   0.45634   0.00000  Uiso   1.00
H165   H     0.90280   0.21678   0.35193   0.00000  Uiso   1.00
H166   H     0.69691   0.84095   0.18901   0.00000  Uiso   1.00
H167   H     0.80888   0.74617   0.55403   0.00000  Uiso   1.00
H168   H     0.00593   0.39400   0.33388   0.00000  Uiso   1.00
H169   H     0.97213   0.68330   0.31341   0.00000  Uiso   1.00
H170   H     0.90957   0.60168   0.23146   0.00000  Uiso   1.00
H171   H     0.96267   0.55672   0.40458   0.00000  Uiso   1.00
H172   H     0.05611   0.86393   0.30017   0.00000  Uiso   1.00
H173   H     0.82134   0.55456   0.14700   0.00000  Uiso   1.00
H174   H     0.93332   0.45979   0.51202   0.00000  Uiso   1.00
H175   H     0.13036   0.10761   0.29186   0.00000  Uiso   1.00
O176   O     0.71534   0.65007   0.11500   0.00000  Uiso   1.00
O177   O     0.86226   0.52575   0.59389   0.00000  Uiso   1.00
O178   O     0.12077   0.37567   0.30505   0.00000  Uiso   1.00
N179   N     0.73478   0.78477   0.19036   0.00000  Uiso   1.00
N180   N     0.83947   0.69614   0.53163   0.00000  Uiso   1.00
N181   N     0.02369   0.30180   0.32582   0.00000  Uiso   1.00
N182   N     0.80174   0.63067   0.16776   0.00000  Uiso   1.00
N183   N     0.90643   0.54204   0.50903   0.00000  Uiso   1.00
N184   N     0.09065   0.14770   0.30321   0.00000  Uiso   1.00
C185   C     0.63991   0.44116   0.35123   0.00000  Uiso   1.00
C186   C     0.65808   0.36041   0.30137   0.00000  Uiso   1.00
C187   C     0.71065   0.37835   0.27204   0.00000  Uiso   1.00
C188   C     0.71896   0.29427   0.22770   0.00000  Uiso   1.00
C189   C     0.75369   0.18382   0.15249   0.00000  Uiso   1.00
C190   C     0.62924   0.33597   0.39542   0.00000  Uiso   1.00
C191   C     0.65755   0.33337   0.44518   0.00000  Uiso   1.00
C192   C     0.64157   0.22872   0.48002   0.00000  Uiso   1.00
C193   C     0.63148   0.08038   0.55084   0.00000  Uiso   1.00
C194   C     0.57847   0.50289   0.33869   0.00000  Uiso   1.00
C195   C     0.56409   0.64064   0.34076   0.00000  Uiso   1.00
C196   C     0.50536   0.67652   0.32785   0.00000  Uiso   1.00
C197   C     0.41645   0.78735   0.31059   0.00000  Uiso   1.00
C198   C     0.56117   0.25993   0.32465   0.00000  Uiso   1.00
C199   C     0.61531   0.26198   0.28693   0.00000  Uiso   1.00
C200   C     0.62354   0.17785   0.24263   0.00000  Uiso   1.00
C201   C     0.67611   0.19566   0.21324   0.00000  Uiso   1.00
C202   C     0.58647   0.23754   0.38099   0.00000  Uiso   1.00
C203   C     0.57044   0.13287   0.41576   0.00000  Uiso   1.00
C204   C     0.59872   0.13011   0.46556   0.00000  Uiso   1.00
C205   C     0.53570   0.40446   0.32425   0.00000  Uiso   1.00
C206   C     0.47698   0.44013   0.31134   0.00000  Uiso   1.00
C207   C     0.46252   0.57791   0.31339   0.00000  Uiso   1.00
H208   H     0.67321   0.51779   0.36248   0.00000  Uiso   1.00
H209   H     0.74375   0.45453   0.28323   0.00000  Uiso   1.00
H210   H     0.69065   0.40957   0.45634   0.00000  Uiso   1.00
H211   H     0.59720   0.71678   0.35193   0.00000  Uiso   1.00
H212   H     0.80309   0.34095   0.18901   0.00000  Uiso   1.00
H213   H     0.69112   0.24617   0.55403   0.00000  Uiso   1.00
H214   H     0.49407   0.89400   0.33388   0.00000  Uiso   1.00
H215   H     0.52787   0.18330   0.31341   0.00000  Uiso   1.00
H216   H     0.59043   0.10168   0.23146   0.00000  Uiso   1.00
H217   H     0.53733   0.05672   0.40458   0.00000  Uiso   1.00
H218   H     0.44389   0.36393   0.30017   0.00000  Uiso   1.00
H219   H     0.67866   0.05456   0.14700   0.00000  Uiso   1.00
H220   H     0.56668   0.95979   0.51202   0.00000  Uiso   1.00
H221   H     0.36964   0.60761   0.29186   0.00000  Uiso   1.00
O222   O     0.78466   0.15007   0.11500   0.00000  Uiso   1.00
O223   O     0.63774   0.02575   0.59389   0.00000  Uiso   1.00
O224   O     0.37923   0.87567   0.30505   0.00000  Uiso   1.00
N225   N     0.76522   0.28477   0.19036   0.00000  Uiso   1.00
N226   N     0.66053   0.19614   0.53163   0.00000  Uiso   1.00
N227   N     0.47631   0.80180   0.32582   0.00000  Uiso   1.00
N228   N     0.69826   0.13067   0.16776   0.00000  Uiso   1.00
N229   N     0.59357   0.04204   0.50903   0.00000  Uiso   1.00
N230   N     0.40935   0.64770   0.30321   0.00000  Uiso   1.00
C231   C     0.86009   0.05884   0.85123   0.00000  Uiso   1.00
C232   C     0.84192   0.13959   0.80137   0.00000  Uiso   1.00
C233   C     0.78935   0.12165   0.77204   0.00000  Uiso   1.00
C234   C     0.78104   0.20573   0.72770   0.00000  Uiso   1.00
C235   C     0.74631   0.31618   0.65249   0.00000  Uiso   1.00
C236   C     0.87076   0.16403   0.89542   0.00000  Uiso   1.00
C237   C     0.84245   0.16663   0.94518   0.00000  Uiso   1.00
C238   C     0.85843   0.27128   0.98002   0.00000  Uiso   1.00
C239   C     0.86852   0.41962   0.05084   0.00000  Uiso   1.00
C240   C     0.92153   0.99711   0.83869   0.00000  Uiso   1.00
C241   C     0.93591   0.85936   0.84076   0.00000  Uiso   1.00
C242   C     0.99464   0.82348   0.82785   0.00000  Uiso   1.00
C243   C     0.08355   0.71265   0.81059   0.00000  Uiso   1.00
C244   C     0.93883   0.24007   0.82465   0.00000  Uiso   1.00
C245   C     0.88469   0.23802   0.78693   0.00000  Uiso   1.00
C246   C     0.87646   0.32215   0.74263   0.00000  Uiso   1.00
C247   C     0.82389   0.30434   0.71324   0.00000  Uiso   1.00
C248   C     0.91353   0.26246   0.88099   0.00000  Uiso   1.00
C249   C     0.92956   0.36713   0.91576   0.00000  Uiso   1.00
C250   C     0.90128   0.36989   0.96556   0.00000  Uiso   1.00
C251   C     0.96430   0.09554   0.82425   0.00000  Uiso   1.00
C252   C     0.02302   0.05987   0.81134   0.00000  Uiso   1.00
C253   C     0.03748   0.92209   0.81339   0.00000  Uiso   1.00
H254   H     0.82679   0.98221   0.86248   0.00000  Uiso   1.00
H255   H     0.75625   0.04547   0.78323   0.00000  Uiso   1.00
H256   H     0.80935   0.09043   0.95634   0.00000  Uiso   1.00
H257   H     0.90280   0.78322   0.85193   0.00000  Uiso   1.00
H258   H     0.69691   0.15905   0.68901   0.00000  Uiso   1.00
H259   H     0.80888   0.25383   0.05403   0.00000  Uiso   1.00
H260   H     0.00593   0.60600   0.83388   0.00000  Uiso   1.00
H261   H     0.97213   0.31670   0.81341   0.00000  Uiso   1.00
H262   H     0.90957   0.39832   0.73146   0.00000  Uiso   1.00
H263   H     0.96267   0.44328   0.90458   0.00000  Uiso   1.00
H264   H     0.05611   0.13607   0.80017   0.00000  Uiso   1.00
H265   H     0.82134   0.44544   0.64700   0.00000  Uiso   1.00
H266   H     0.93332   0.54021   0.01202   0.00000  Uiso   1.00
H267   H     0.13036   0.89239   0.79186   0.00000  Uiso   1.00
O268   O     0.71534   0.34993   0.61500   0.00000  Uiso   1.00
O269   O     0.86226   0.47425   0.09389   0.00000  Uiso   1.00
O270   O     0.12077   0.62433   0.80505   0.00000  Uiso   1.00
N271   N     0.73478   0.21523   0.69036   0.00000  Uiso   1.00
N272   N     0.83947   0.30386   0.03163   0.00000  Uiso   1.00
N273   N     0.02369   0.69820   0.82582   0.00000  Uiso   1.00
N274   N     0.80174   0.36933   0.66776   0.00000  Uiso   1.00
N275   N     0.90643   0.45796   0.00903   0.00000  Uiso   1.00
N276   N     0.09065   0.85230   0.80321   0.00000  Uiso   1.00
C277   C     0.36009   0.44116   0.14877   0.00000  Uiso   1.00
C278   C     0.34192   0.36041   0.19863   0.00000  Uiso   1.00
C279   C     0.28935   0.37835   0.22796   0.00000  Uiso   1.00
C280   C     0.28104   0.29427   0.27230   0.00000  Uiso   1.00
C281   C     0.24631   0.18382   0.34751   0.00000  Uiso   1.00
C282   C     0.37076   0.33597   0.10458   0.00000  Uiso   1.00
C283   C     0.34245   0.33337   0.05482   0.00000  Uiso   1.00
C284   C     0.35843   0.22872   0.01998   0.00000  Uiso   1.00
C285   C     0.36852   0.08038   0.94916   0.00000  Uiso   1.00
C286   C     0.42153   0.50289   0.16131   0.00000  Uiso   1.00
C287   C     0.43591   0.64064   0.15924   0.00000  Uiso   1.00
C288   C     0.49464   0.67652   0.17215   0.00000  Uiso   1.00
C289   C     0.58355   0.78735   0.18941   0.00000  Uiso   1.00
C290   C     0.43883   0.25993   0.17535   0.00000  Uiso   1.00
C291   C     0.38469   0.26198   0.21307   0.00000  Uiso   1.00
C292   C     0.37646   0.17785   0.25737   0.00000  Uiso   1.00
C293   C     0.32389   0.19566   0.28676   0.00000  Uiso   1.00
C294   C     0.41353   0.23754   0.11901   0.00000  Uiso   1.00
C295   C     0.42956   0.13287   0.08424   0.00000  Uiso   1.00
C296   C     0.40128   0.13011   0.03444   0.00000  Uiso   1.00
C297   C     0.46430   0.40446   0.17575   0.00000  Uiso   1.00
C298   C     0.52302   0.44013   0.18866   0.00000  Uiso   1.00
C299   C     0.53748   0.57791   0.18661   0.00000  Uiso   1.00
H300   H     0.32679   0.51779   0.13752   0.00000  Uiso   1.00
H301   H     0.25625   0.45453   0.21677   0.00000  Uiso   1.00
H302   H     0.30935   0.40957   0.04366   0.00000  Uiso   1.00
H303   H     0.40280   0.71678   0.14807   0.00000  Uiso   1.00
H304   H     0.19691   0.34095   0.31099   0.00000  Uiso   1.00
H305   H     0.30888   0.24617   0.94597   0.00000  Uiso   1.00
H306   H     0.50593   0.89400   0.16612   0.00000  Uiso   1.00
H307   H     0.47213   0.18330   0.18659   0.00000  Uiso   1.00
H308   H     0.40957   0.10168   0.26854   0.00000  Uiso   1.00
H309   H     0.46267   0.05672   0.09542   0.00000  Uiso   1.00
H310   H     0.55611   0.36393   0.19983   0.00000  Uiso   1.00
H311   H     0.32134   0.05456   0.35300   0.00000  Uiso   1.00
H312   H     0.43332   0.95979   0.98798   0.00000  Uiso   1.00
H313   H     0.63036   0.60761   0.20814   0.00000  Uiso   1.00
O314   O     0.21534   0.15007   0.38500   0.00000  Uiso   1.00
O315   O     0.36226   0.02575   0.90611   0.00000  Uiso   1.00
O316   O     0.62077   0.87567   0.19495   0.00000  Uiso   1.00
N317   N     0.23478   0.28477   0.30964   0.00000  Uiso   1.00
N318   N     0.33947   0.19614   0.96837   0.00000  Uiso   1.00
N319   N     0.52369   0.80180   0.17418   0.00000  Uiso   1.00
N320   N     0.30174   0.13067   0.33224   0.00000  Uiso   1.00
N321   N     0.40643   0.04204   0.99097   0.00000  Uiso   1.00
N322   N     0.59065   0.64770   0.19679   0.00000  Uiso   1.00
C323   C     0.13991   0.05884   0.64877   0.00000  Uiso   1.00
C324   C     0.15808   0.13959   0.69863   0.00000  Uiso   1.00
C325   C     0.21065   0.12165   0.72796   0.00000  Uiso   1.00
C326   C     0.21896   0.20573   0.77230   0.00000  Uiso   1.00
C327   C     0.25369   0.31618   0.84751   0.00000  Uiso   1.00
C328   C     0.12924   0.16403   0.60458   0.00000  Uiso   1.00
C329   C     0.15755   0.16663   0.55482   0.00000  Uiso   1.00
C330   C     0.14157   0.27128   0.51998   0.00000  Uiso   1.00
C331   C     0.13148   0.41962   0.44916   0.00000  Uiso   1.00
C332   C     0.07847   0.99711   0.66131   0.00000  Uiso   1.00
C333   C     0.06409   0.85936   0.65924   0.00000  Uiso   1.00
C334   C     0.00536   0.82348   0.67215   0.00000  Uiso   1.00
C335   C     0.91645   0.71265   0.68941   0.00000  Uiso   1.00
C336   C     0.06117   0.24007   0.67535   0.00000  Uiso   1.00
C337   C     0.11531   0.23802   0.71307   0.00000  Uiso   1.00
C338   C     0.12354   0.32215   0.75737   0.00000  Uiso   1.00
C339   C     0.17611   0.30434   0.78676   0.00000  Uiso   1.00
C340   C     0.08647   0.26246   0.61901   0.00000  Uiso   1.00
C341   C     0.07044   0.36713   0.58424   0.00000  Uiso   1.00
C342   C     0.09872   0.36989   0.53444   0.00000  Uiso   1.00
C343   C     0.03570   0.09554   0.67575   0.00000  Uiso   1.00
C344   C     0.97698   0.05987   0.68866   0.00000  Uiso   1.00
C345   C     0.96252   0.92209   0.68661   0.00000  Uiso   1.00
H346   H     0.17321   0.98221   0.63752   0.00000  Uiso   1.00
H347   H     0.24375   0.04547   0.71677   0.00000  Uiso   1.00
H348   H     0.19065   0.09043   0.54366   0.00000  Uiso   1.00
H349   H     0.09720   0.78322   0.64807   0.00000  Uiso   1.00
H350   H     0.30309   0.15905   0.81099   0.00000  Uiso   1.00
H351   H     0.19112   0.25383   0.44597   0.00000  Uiso   1.00
H352   H     0.99407   0.60600   0.66612   0.00000  Uiso   1.00
H353   H     0.02787   0.31670   0.68659   0.00000  Uiso   1.00
H354   H     0.09043   0.39832   0.76854   0.00000  Uiso   1.00
H355   H     0.03733   0.44328   0.59542   0.00000  Uiso   1.00
H356   H     0.94389   0.13607   0.69983   0.00000  Uiso   1.00
H357   H     0.17866   0.44544   0.85300   0.00000  Uiso   1.00
H358   H     0.06668   0.54021   0.48798   0.00000  Uiso   1.00
H359   H     0.86964   0.89239   0.70814   0.00000  Uiso   1.00
O360   O     0.28466   0.34993   0.88500   0.00000  Uiso   1.00
O361   O     0.13774   0.47425   0.40611   0.00000  Uiso   1.00
O362   O     0.87923   0.62433   0.69495   0.00000  Uiso   1.00
N363   N     0.26522   0.21523   0.80964   0.00000  Uiso   1.00
N364   N     0.16053   0.30386   0.46837   0.00000  Uiso   1.00
N365   N     0.97631   0.69820   0.67418   0.00000  Uiso   1.00
N366   N     0.19826   0.36933   0.83224   0.00000  Uiso   1.00
N367   N     0.09357   0.45796   0.49097   0.00000  Uiso   1.00
N368   N     0.90935   0.85230   0.69679   0.00000  Uiso   1.00
