data_job_06210
_audit_creation_date              2018-12-19
_audit_creation_method            'Materials Studio'
_symmetry_space_group_name_H-M    'P1'
_symmetry_Int_Tables_number       1
_symmetry_cell_setting            triclinic
loop_
_symmetry_equiv_pos_as_xyz
  x,y,z
_cell_length_a                    16.9285
_cell_length_b                    16.3556
_cell_length_c                    16.0960
_cell_angle_alpha                 91.5060
_cell_angle_beta                  91.0914
_cell_angle_gamma                 91.3910
loop_
_atom_site_label
_atom_site_type_symbol
_atom_site_fract_x
_atom_site_fract_y
_atom_site_fract_z
_atom_site_U_iso_or_equiv
_atom_site_adp_type
_atom_site_occupancy
C1     C     0.56090   0.07468   0.20614   0.00000  Uiso   1.00
C2     C     0.47728   0.07101   0.16906   0.00000  Uiso   1.00
C3     C     0.45252   0.10930   0.09753   0.00000  Uiso   1.00
C4     C     0.37358   0.09847   0.07389   0.00000  Uiso   1.00
C5     C     0.25168   0.10001   0.00930   0.00000  Uiso   1.00
C6     C     0.55339   0.10702   0.29529   0.00000  Uiso   1.00
C7     C     0.59263   0.17559   0.32989   0.00000  Uiso   1.00
C8     C     0.57776   0.19506   0.41252   0.00000  Uiso   1.00
C9     C     0.57405   0.25249   0.54392   0.00000  Uiso   1.00
C10    C     0.58614   0.98616   0.21247   0.00000  Uiso   1.00
C11    C     0.65293   0.95311   0.17745   0.00000  Uiso   1.00
C12    C     0.66564   0.87082   0.19036   0.00000  Uiso   1.00
C13    C     0.71278   0.74059   0.19316   0.00000  Uiso   1.00
C14    C     0.46474   0.98732   0.29135   0.00000  Uiso   1.00
C15    C     0.42505   0.02356   0.21535   0.00000  Uiso   1.00
C16    C     0.34613   0.01266   0.19181   0.00000  Uiso   1.00
C17    C     0.32126   0.05093   0.12025   0.00000  Uiso   1.00
C18    C     0.50116   0.05957   0.34158   0.00000  Uiso   1.00
C19    C     0.48623   0.07894   0.42417   0.00000  Uiso   1.00
C20    C     0.52543   0.14753   0.45889   0.00000  Uiso   1.00
C21    C     0.53391   0.93871   0.25875   0.00000  Uiso   1.00
C22    C     0.54653   0.85646   0.27172   0.00000  Uiso   1.00
C23    C     0.61331   0.82329   0.23673   0.00000  Uiso   1.00
H24    H     0.60157   0.11162   0.17011   0.00000  Uiso   1.00
H25    H     0.49296   0.14603   0.06174   0.00000  Uiso   1.00
H26    H     0.63305   0.21229   0.29406   0.00000  Uiso   1.00
H27    H     0.69333   0.98984   0.14164   0.00000  Uiso   1.00
H28    H     0.34951   0.16327   0.96201   0.00000  Uiso   1.00
H29    H     0.64491   0.30298   0.45189   0.00000  Uiso   1.00
H30    H     0.77203   0.83390   0.13048   0.00000  Uiso   1.00
H31    H     0.42407   0.95038   0.32739   0.00000  Uiso   1.00
H32    H     0.30572   0.97594   0.22764   0.00000  Uiso   1.00
H33    H     0.44581   0.04221   0.45997   0.00000  Uiso   1.00
H34    H     0.50609   0.81976   0.30754   0.00000  Uiso   1.00
H35    H     0.19754   0.02522   0.09666   0.00000  Uiso   1.00
H36    H     0.49294   0.16493   0.58655   0.00000  Uiso   1.00
H37    H     0.62006   0.69586   0.26513   0.00000  Uiso   1.00
O38    O     0.19887   0.11398   0.96090   0.00000  Uiso   1.00
O39    O     0.58643   0.29727   0.60360   0.00000  Uiso   1.00
O40    O     0.75321   0.68186   0.18191   0.00000  Uiso   1.00
N41    N     0.32999   0.12726   0.00738   0.00000  Uiso   1.00
N42    N     0.60616   0.25789   0.46539   0.00000  Uiso   1.00
N43    N     0.72502   0.81935   0.16491   0.00000  Uiso   1.00
N44    N     0.24821   0.05297   0.07983   0.00000  Uiso   1.00
N45    N     0.52439   0.18361   0.53784   0.00000  Uiso   1.00
N46    N     0.64325   0.74506   0.23737   0.00000  Uiso   1.00
C47    C     0.20967   0.55751   0.07439   0.00000  Uiso   1.00
C48    C     0.17366   0.47108   0.07071   0.00000  Uiso   1.00
C49    C     0.10549   0.44570   0.11015   0.00000  Uiso   1.00
C50    C     0.08229   0.36408   0.09910   0.00000  Uiso   1.00
C51    C     0.01980   0.23812   0.10084   0.00000  Uiso   1.00
C52    C     0.29437   0.54936   0.10648   0.00000  Uiso   1.00
C53    C     0.32768   0.58980   0.17599   0.00000  Uiso   1.00
C54    C     0.40610   0.57408   0.19504   0.00000  Uiso   1.00
C55    C     0.53102   0.56969   0.25228   0.00000  Uiso   1.00
C56    C     0.21582   0.58367   0.98446   0.00000  Uiso   1.00
C57    C     0.18311   0.65297   0.95137   0.00000  Uiso   1.00
C58    C     0.19542   0.66614   0.86769   0.00000  Uiso   1.00
C59    C     0.19838   0.71502   0.73547   0.00000  Uiso   1.00
C60    C     0.28971   0.45768   0.98462   0.00000  Uiso   1.00
C61    C     0.21715   0.41686   0.02195   0.00000  Uiso   1.00
C62    C     0.19405   0.33525   0.01083   0.00000  Uiso   1.00
C63    C     0.12584   0.30975   0.05025   0.00000  Uiso   1.00
C64    C     0.33785   0.49514   0.05773   0.00000  Uiso   1.00
C65    C     0.41624   0.47935   0.07667   0.00000  Uiso   1.00
C66    C     0.44966   0.51976   0.14619   0.00000  Uiso   1.00
C67    C     0.25930   0.52945   0.93570   0.00000  Uiso   1.00
C68    C     0.27167   0.54252   0.85206   0.00000  Uiso   1.00
C69    C     0.23898   0.61182   0.81884   0.00000  Uiso   1.00
H70    H     0.17582   0.59972   0.11235   0.00000  Uiso   1.00
H71    H     0.07186   0.48768   0.14788   0.00000  Uiso   1.00
H72    H     0.29402   0.63177   0.21370   0.00000  Uiso   1.00
H73    H     0.14947   0.69492   0.98912   0.00000  Uiso   1.00
H74    H     0.97579   0.33954   0.16580   0.00000  Uiso   1.00
H75    H     0.44424   0.64337   0.30457   0.00000  Uiso   1.00
H76    H     0.13942   0.77654   0.83100   0.00000  Uiso   1.00
H77    H     0.32356   0.41547   0.94666   0.00000  Uiso   1.00
H78    H     0.22770   0.29331   0.97310   0.00000  Uiso   1.00
H79    H     0.44987   0.43739   0.03892   0.00000  Uiso   1.00
H80    H     0.30532   0.50054   0.81434   0.00000  Uiso   1.00
H81    H     0.10228   0.18178   0.02394   0.00000  Uiso   1.00
H82    H     0.57073   0.48561   0.16272   0.00000  Uiso   1.00
H83    H     0.26591   0.61878   0.68914   0.00000  Uiso   1.00
O84    O     0.97332   0.18362   0.11528   0.00000  Uiso   1.00
O85    O     0.58791   0.58225   0.29733   0.00000  Uiso   1.00
O86    O     0.18800   0.75696   0.67601   0.00000  Uiso   1.00
N87    N     0.01870   0.31918   0.12877   0.00000  Uiso   1.00
N88    N     0.45667   0.60323   0.25853   0.00000  Uiso   1.00
N89    N     0.17172   0.72775   0.81578   0.00000  Uiso   1.00
N90    N     0.08676   0.23429   0.05244   0.00000  Uiso   1.00
N91    N     0.52474   0.51834   0.18219   0.00000  Uiso   1.00
N92    N     0.23978   0.64286   0.73944   0.00000  Uiso   1.00
C93    C     0.07548   0.20670   0.55579   0.00000  Uiso   1.00
C94    C     0.07158   0.16950   0.46790   0.00000  Uiso   1.00
C95    C     0.10842   0.09878   0.44157   0.00000  Uiso   1.00
C96    C     0.09763   0.07486   0.35865   0.00000  Uiso   1.00
C97    C     0.09860   0.01024   0.23045   0.00000  Uiso   1.00
C98    C     0.10674   0.29427   0.54750   0.00000  Uiso   1.00
C99    C     0.17315   0.32846   0.58812   0.00000  Uiso   1.00
C100   C     0.19195   0.40959   0.57221   0.00000  Uiso   1.00
C101   C     0.24749   0.53870   0.56766   0.00000  Uiso   1.00
C102   C     0.99008   0.21340   0.58314   0.00000  Uiso   1.00
C103   C     0.95840   0.17962   0.65374   0.00000  Uiso   1.00
C104   C     0.87898   0.19268   0.66786   0.00000  Uiso   1.00
C105   C     0.75338   0.19622   0.71864   0.00000  Uiso   1.00
C106   C     0.99078   0.28998   0.45535   0.00000  Uiso   1.00
C107   C     0.02557   0.21474   0.41334   0.00000  Uiso   1.00
C108   C     0.01472   0.19092   0.33044   0.00000  Uiso   1.00
C109   C     0.05154   0.12018   0.30399   0.00000  Uiso   1.00
C110   C     0.06074   0.33951   0.49295   0.00000  Uiso   1.00
C111   C     0.07944   0.42061   0.47698   0.00000  Uiso   1.00
C112   C     0.14586   0.45491   0.51756   0.00000  Uiso   1.00
C113   C     0.94407   0.25864   0.52859   0.00000  Uiso   1.00
C114   C     0.86469   0.27176   0.54260   0.00000  Uiso   1.00
C115   C     0.83289   0.23799   0.61320   0.00000  Uiso   1.00
H116   H     0.11130   0.17149   0.59827   0.00000  Uiso   1.00
H117   H     0.14403   0.06379   0.48381   0.00000  Uiso   1.00
H118   H     0.20874   0.29344   0.63034   0.00000  Uiso   1.00
H119   H     0.99402   0.14462   0.69595   0.00000  Uiso   1.00
H120   H     0.16005   0.96436   0.33284   0.00000  Uiso   1.00
H121   H     0.29648   0.44860   0.64183   0.00000  Uiso   1.00
H122   H     0.84370   0.13477   0.78018   0.00000  Uiso   1.00
H123   H     0.95496   0.32521   0.41287   0.00000  Uiso   1.00
H124   H     0.97911   0.22594   0.28823   0.00000  Uiso   1.00
H125   H     0.04382   0.45559   0.43476   0.00000  Uiso   1.00
H126   H     0.82910   0.30677   0.50037   0.00000  Uiso   1.00
H127   H     0.02620   0.09597   0.17410   0.00000  Uiso   1.00
H128   H     0.16263   0.58021   0.48309   0.00000  Uiso   1.00
H129   H     0.70985   0.26638   0.62144   0.00000  Uiso   1.00
O130   O     0.11186   0.96211   0.17481   0.00000  Uiso   1.00
O131   O     0.29084   0.59741   0.58021   0.00000  Uiso   1.00
O132   O     0.69680   0.18568   0.76172   0.00000  Uiso   1.00
N133   N     0.12522   0.00895   0.31259   0.00000  Uiso   1.00
N134   N     0.25278   0.46168   0.60146   0.00000  Uiso   1.00
N135   N     0.82948   0.16829   0.73082   0.00000  Uiso   1.00
N136   N     0.05320   0.07976   0.22717   0.00000  Uiso   1.00
N137   N     0.18076   0.53249   0.51605   0.00000  Uiso   1.00
N138   N     0.75745   0.23911   0.64541   0.00000  Uiso   1.00
C139   C     0.43910   0.92532   0.79386   0.00000  Uiso   1.00
C140   C     0.52272   0.92899   0.83094   0.00000  Uiso   1.00
C141   C     0.54748   0.89070   0.90247   0.00000  Uiso   1.00
C142   C     0.62642   0.90153   0.92611   0.00000  Uiso   1.00
C143   C     0.74832   0.89999   0.99070   0.00000  Uiso   1.00
C144   C     0.44661   0.89298   0.70471   0.00000  Uiso   1.00
C145   C     0.40737   0.82441   0.67011   0.00000  Uiso   1.00
C146   C     0.42224   0.80494   0.58748   0.00000  Uiso   1.00
C147   C     0.42595   0.74751   0.45608   0.00000  Uiso   1.00
C148   C     0.41386   0.01384   0.78753   0.00000  Uiso   1.00
C149   C     0.34708   0.04689   0.82255   0.00000  Uiso   1.00
C150   C     0.33436   0.12918   0.80964   0.00000  Uiso   1.00
C151   C     0.28722   0.25941   0.80684   0.00000  Uiso   1.00
C152   C     0.53526   0.01268   0.70865   0.00000  Uiso   1.00
C153   C     0.57495   0.97644   0.78465   0.00000  Uiso   1.00
C154   C     0.65387   0.98734   0.80819   0.00000  Uiso   1.00
C155   C     0.67874   0.94907   0.87975   0.00000  Uiso   1.00
C156   C     0.49884   0.94042   0.65843   0.00000  Uiso   1.00
C157   C     0.51377   0.92106   0.57583   0.00000  Uiso   1.00
C158   C     0.47457   0.85247   0.54111   0.00000  Uiso   1.00
C159   C     0.46610   0.06129   0.74125   0.00000  Uiso   1.00
C160   C     0.45347   0.14354   0.72828   0.00000  Uiso   1.00
C161   C     0.38669   0.17671   0.76327   0.00000  Uiso   1.00
H162   H     0.39843   0.88838   0.82989   0.00000  Uiso   1.00
H163   H     0.50704   0.85397   0.93826   0.00000  Uiso   1.00
H164   H     0.36695   0.78771   0.70594   0.00000  Uiso   1.00
H165   H     0.30667   0.01016   0.85836   0.00000  Uiso   1.00
H166   H     0.65049   0.83673   0.03799   0.00000  Uiso   1.00
H167   H     0.35509   0.69702   0.54811   0.00000  Uiso   1.00
H168   H     0.22797   0.16610   0.86952   0.00000  Uiso   1.00
H169   H     0.57593   0.04962   0.67261   0.00000  Uiso   1.00
H170   H     0.69428   0.02406   0.77236   0.00000  Uiso   1.00
H171   H     0.55419   0.95779   0.54003   0.00000  Uiso   1.00
H172   H     0.49391   0.18024   0.69246   0.00000  Uiso   1.00
H173   H     0.80246   0.97478   0.90334   0.00000  Uiso   1.00
H174   H     0.50706   0.83506   0.41345   0.00000  Uiso   1.00
H175   H     0.37994   0.30414   0.73487   0.00000  Uiso   1.00
O176   O     0.80114   0.88602   0.03910   0.00000  Uiso   1.00
O177   O     0.41357   0.70272   0.39640   0.00000  Uiso   1.00
O178   O     0.24679   0.31814   0.81809   0.00000  Uiso   1.00
N179   N     0.67001   0.87274   0.99262   0.00000  Uiso   1.00
N180   N     0.39384   0.74211   0.53461   0.00000  Uiso   1.00
N181   N     0.27498   0.18065   0.83509   0.00000  Uiso   1.00
N182   N     0.75179   0.94703   0.92017   0.00000  Uiso   1.00
N183   N     0.47561   0.81639   0.46216   0.00000  Uiso   1.00
N184   N     0.35675   0.25494   0.76263   0.00000  Uiso   1.00
C185   C     0.79033   0.44249   0.92561   0.00000  Uiso   1.00
C186   C     0.82634   0.52892   0.92929   0.00000  Uiso   1.00
C187   C     0.89451   0.55430   0.88985   0.00000  Uiso   1.00
C188   C     0.91771   0.63592   0.90090   0.00000  Uiso   1.00
C189   C     0.98020   0.76188   0.89916   0.00000  Uiso   1.00
C190   C     0.70563   0.45064   0.89352   0.00000  Uiso   1.00
C191   C     0.67232   0.41020   0.82401   0.00000  Uiso   1.00
C192   C     0.59390   0.42592   0.80496   0.00000  Uiso   1.00
C193   C     0.46898   0.43031   0.74772   0.00000  Uiso   1.00
C194   C     0.78418   0.41633   0.01554   0.00000  Uiso   1.00
C195   C     0.81689   0.34703   0.04863   0.00000  Uiso   1.00
C196   C     0.80458   0.33386   0.13231   0.00000  Uiso   1.00
C197   C     0.80162   0.28498   0.26453   0.00000  Uiso   1.00
C198   C     0.71029   0.54232   0.01538   0.00000  Uiso   1.00
C199   C     0.78286   0.58314   0.97805   0.00000  Uiso   1.00
C200   C     0.80596   0.66475   0.98917   0.00000  Uiso   1.00
C201   C     0.87416   0.69025   0.94975   0.00000  Uiso   1.00
C202   C     0.66215   0.50486   0.94227   0.00000  Uiso   1.00
C203   C     0.58376   0.52065   0.92333   0.00000  Uiso   1.00
C204   C     0.55034   0.48024   0.85381   0.00000  Uiso   1.00
C205   C     0.74070   0.47055   0.06430   0.00000  Uiso   1.00
C206   C     0.72833   0.45748   0.14794   0.00000  Uiso   1.00
C207   C     0.76102   0.38818   0.18116   0.00000  Uiso   1.00
H208   H     0.82418   0.40028   0.88765   0.00000  Uiso   1.00
H209   H     0.92814   0.51232   0.85212   0.00000  Uiso   1.00
H210   H     0.70598   0.36823   0.78630   0.00000  Uiso   1.00
H211   H     0.85053   0.30508   0.01088   0.00000  Uiso   1.00
H212   H     0.02421   0.66046   0.83420   0.00000  Uiso   1.00
H213   H     0.55576   0.35663   0.69543   0.00000  Uiso   1.00
H214   H     0.86058   0.22346   0.16900   0.00000  Uiso   1.00
H215   H     0.67644   0.58453   0.05334   0.00000  Uiso   1.00
H216   H     0.77230   0.70669   0.02690   0.00000  Uiso   1.00
H217   H     0.55013   0.56261   0.96108   0.00000  Uiso   1.00
H218   H     0.69468   0.49946   0.18566   0.00000  Uiso   1.00
H219   H     0.89772   0.81822   0.97606   0.00000  Uiso   1.00
H220   H     0.42927   0.51439   0.83728   0.00000  Uiso   1.00
H221   H     0.73409   0.38122   0.31086   0.00000  Uiso   1.00
O222   O     0.02668   0.81638   0.88472   0.00000  Uiso   1.00
O223   O     0.41209   0.41775   0.70267   0.00000  Uiso   1.00
O224   O     0.81200   0.24304   0.32399   0.00000  Uiso   1.00
N225   N     0.98130   0.68082   0.87123   0.00000  Uiso   1.00
N226   N     0.54333   0.39677   0.74147   0.00000  Uiso   1.00
N227   N     0.82828   0.27225   0.18422   0.00000  Uiso   1.00
N228   N     0.91324   0.76571   0.94756   0.00000  Uiso   1.00
N229   N     0.47526   0.48166   0.81781   0.00000  Uiso   1.00
N230   N     0.76022   0.35714   0.26056   0.00000  Uiso   1.00
C231   C     0.92452   0.79330   0.44421   0.00000  Uiso   1.00
C232   C     0.92842   0.83050   0.53210   0.00000  Uiso   1.00
C233   C     0.89158   0.90122   0.55843   0.00000  Uiso   1.00
C234   C     0.90237   0.92514   0.64135   0.00000  Uiso   1.00
C235   C     0.90140   0.98976   0.76955   0.00000  Uiso   1.00
C236   C     0.89326   0.70573   0.45250   0.00000  Uiso   1.00
C237   C     0.82685   0.67154   0.41188   0.00000  Uiso   1.00
C238   C     0.80805   0.59041   0.42779   0.00000  Uiso   1.00
C239   C     0.75252   0.46130   0.43234   0.00000  Uiso   1.00
C240   C     0.00992   0.78659   0.41686   0.00000  Uiso   1.00
C241   C     0.04160   0.82038   0.34626   0.00000  Uiso   1.00
C242   C     0.12102   0.80732   0.33214   0.00000  Uiso   1.00
C243   C     0.24663   0.80378   0.28136   0.00000  Uiso   1.00
C244   C     0.00922   0.71002   0.54465   0.00000  Uiso   1.00
C245   C     0.97443   0.78526   0.58666   0.00000  Uiso   1.00
C246   C     0.98529   0.80908   0.66957   0.00000  Uiso   1.00
C247   C     0.94846   0.87982   0.69601   0.00000  Uiso   1.00
C248   C     0.93926   0.66049   0.50705   0.00000  Uiso   1.00
C249   C     0.92056   0.57939   0.52302   0.00000  Uiso   1.00
C250   C     0.85414   0.54509   0.48244   0.00000  Uiso   1.00
C251   C     0.05593   0.74136   0.47141   0.00000  Uiso   1.00
C252   C     0.13531   0.72824   0.45740   0.00000  Uiso   1.00
C253   C     0.16711   0.76200   0.38680   0.00000  Uiso   1.00
H254   H     0.88870   0.82851   0.40173   0.00000  Uiso   1.00
H255   H     0.85597   0.93621   0.51619   0.00000  Uiso   1.00
H256   H     0.79126   0.70656   0.36966   0.00000  Uiso   1.00
H257   H     0.00598   0.85538   0.30405   0.00000  Uiso   1.00
H258   H     0.83995   0.03564   0.66716   0.00000  Uiso   1.00
H259   H     0.70352   0.55140   0.35817   0.00000  Uiso   1.00
H260   H     0.15630   0.86523   0.21982   0.00000  Uiso   1.00
H261   H     0.04504   0.67479   0.58713   0.00000  Uiso   1.00
H262   H     0.02089   0.77406   0.71177   0.00000  Uiso   1.00
H263   H     0.95618   0.54441   0.56524   0.00000  Uiso   1.00
H264   H     0.17090   0.69323   0.49963   0.00000  Uiso   1.00
H265   H     0.97380   0.90403   0.82590   0.00000  Uiso   1.00
H266   H     0.83737   0.41979   0.51691   0.00000  Uiso   1.00
H267   H     0.29015   0.73362   0.37856   0.00000  Uiso   1.00
O268   O     0.88814   0.03789   0.82519   0.00000  Uiso   1.00
O269   O     0.70917   0.40259   0.41979   0.00000  Uiso   1.00
O270   O     0.30320   0.81432   0.23828   0.00000  Uiso   1.00
N271   N     0.87478   0.99105   0.68741   0.00000  Uiso   1.00
N272   N     0.74722   0.53832   0.39854   0.00000  Uiso   1.00
N273   N     0.17052   0.83171   0.26918   0.00000  Uiso   1.00
N274   N     0.94680   0.92024   0.77283   0.00000  Uiso   1.00
N275   N     0.81924   0.46751   0.48395   0.00000  Uiso   1.00
N276   N     0.24255   0.76089   0.35459   0.00000  Uiso   1.00
