data_job_06033
_audit_creation_date              2018-12-19
_audit_creation_method            'Materials Studio'
_symmetry_space_group_name_H-M    'P1'
_symmetry_Int_Tables_number       1
_symmetry_cell_setting            triclinic
loop_
_symmetry_equiv_pos_as_xyz
  x,y,z
_cell_length_a                    8.7986
_cell_length_b                    21.9788
_cell_length_c                    22.3057
_cell_angle_alpha                 117.9750
_cell_angle_beta                  82.3335
_cell_angle_gamma                 84.8534
loop_
_atom_site_label
_atom_site_type_symbol
_atom_site_fract_x
_atom_site_fract_y
_atom_site_fract_z
_atom_site_U_iso_or_equiv
_atom_site_adp_type
_atom_site_occupancy
C1     C     0.72124   0.38110   0.18302   0.00000  Uiso   1.00
C2     C     0.74354   0.31011   0.11790   0.00000  Uiso   1.00
C3     C     0.63094   0.26812   0.09822   0.00000  Uiso   1.00
C4     C     0.67435   0.20503   0.03684   0.00000  Uiso   1.00
C5     C     0.68609   0.09788   0.94187   0.00000  Uiso   1.00
C6     C     0.84627   0.37507   0.22209   0.00000  Uiso   1.00
C7     C     0.82003   0.38772   0.29002   0.00000  Uiso   1.00
C8     C     0.94992   0.37932   0.31634   0.00000  Uiso   1.00
C9     C     0.12115   0.37307   0.38314   0.00000  Uiso   1.00
C10    C     0.76396   0.43250   0.15834   0.00000  Uiso   1.00
C11    C     0.66854   0.49345   0.17266   0.00000  Uiso   1.00
C12    C     0.72915   0.53341   0.14532   0.00000  Uiso   1.00
C13    C     0.77258   0.61633   0.11313   0.00000  Uiso   1.00
C14    C     0.99856   0.34373   0.10900   0.00000  Uiso   1.00
C15    C     0.89418   0.28981   0.07770   0.00000  Uiso   1.00
C16    C     0.93777   0.22677   0.01633   0.00000  Uiso   1.00
C17    C     0.82525   0.18470   0.99656   0.00000  Uiso   1.00
C18    C     0.99689   0.35477   0.18189   0.00000  Uiso   1.00
C19    C     0.12686   0.34636   0.20813   0.00000  Uiso   1.00
C20    C     0.10083   0.35898   0.27607   0.00000  Uiso   1.00
C21    C     0.91459   0.41220   0.11813   0.00000  Uiso   1.00
C22    C     0.97536   0.45209   0.09077   0.00000  Uiso   1.00
C23    C     0.88005   0.51307   0.10505   0.00000  Uiso   1.00
H24    H     0.60397   0.39691   0.21432   0.00000  Uiso   1.00
H25    H     0.51438   0.28385   0.12935   0.00000  Uiso   1.00
H26    H     0.70345   0.40343   0.32112   0.00000  Uiso   1.00
H27    H     0.55198   0.50914   0.20378   0.00000  Uiso   1.00
H28    H     0.48151   0.14954   0.01743   0.00000  Uiso   1.00
H29    H     0.88016   0.40171   0.42179   0.00000  Uiso   1.00
H30    H     0.56076   0.62461   0.17436   0.00000  Uiso   1.00
H31    H     0.11584   0.32792   0.07770   0.00000  Uiso   1.00
H32    H     0.05434   0.21107   0.98523   0.00000  Uiso   1.00
H33    H     0.24341   0.33066   0.17700   0.00000  Uiso   1.00
H34    H     0.09194   0.43636   0.05966   0.00000  Uiso   1.00
H35    H     0.91976   0.09047   0.90046   0.00000  Uiso   1.00
H36    H     0.31842   0.34264   0.30482   0.00000  Uiso   1.00
H37    H     0.99901   0.56554   0.05739   0.00000  Uiso   1.00
O38    O     0.65096   0.04437   0.90059   0.00000  Uiso   1.00
O39    O     0.17398   0.37522   0.43109   0.00000  Uiso   1.00
O40    O     0.75492   0.66766   0.10647   0.00000  Uiso   1.00
N41    N     0.59308   0.15168   0.00258   0.00000  Uiso   1.00
N42    N     0.96580   0.38743   0.38063   0.00000  Uiso   1.00
N43    N     0.66720   0.59584   0.14932   0.00000  Uiso   1.00
N44    N     0.82890   0.11989   0.93964   0.00000  Uiso   1.00
N45    N     0.20162   0.35564   0.31769   0.00000  Uiso   1.00
N46    N     0.90301   0.56405   0.08638   0.00000  Uiso   1.00
C47    C     0.90385   0.81256   0.19806   0.00000  Uiso   1.00
C48    C     0.86322   0.87833   0.19235   0.00000  Uiso   1.00
C49    C     0.73279   0.89508   0.17066   0.00000  Uiso   1.00
C50    C     0.71665   0.95767   0.16901   0.00000  Uiso   1.00
C51    C     0.63681   0.05304   0.15717   0.00000  Uiso   1.00
C52    C     0.06604   0.77732   0.15349   0.00000  Uiso   1.00
C53    C     0.10613   0.70915   0.09914   0.00000  Uiso   1.00
C54    C     0.26074   0.68671   0.06479   0.00000  Uiso   1.00
C55    C     0.49580   0.62525   0.99266   0.00000  Uiso   1.00
C56    C     0.92159   0.83779   0.27274   0.00000  Uiso   1.00
C57    C     0.84027   0.82044   0.31865   0.00000  Uiso   1.00
C58    C     0.87329   0.84889   0.38469   0.00000  Uiso   1.00
C59    C     0.88408   0.88132   0.49771   0.00000  Uiso   1.00
C60    C     0.10712   0.89392   0.23369   0.00000  Uiso   1.00
C61    C     0.97364   0.92252   0.21170   0.00000  Uiso   1.00
C62    C     0.95769   0.98510   0.21008   0.00000  Uiso   1.00
C63    C     0.82726   0.00194   0.18840   0.00000  Uiso   1.00
C64    C     0.17645   0.82151   0.17284   0.00000  Uiso   1.00
C65    C     0.33103   0.79916   0.13856   0.00000  Uiso   1.00
C66    C     0.37135   0.73097   0.08417   0.00000  Uiso   1.00
C67    C     0.03201   0.88198   0.29209   0.00000  Uiso   1.00
C68    C     0.06517   0.91046   0.35807   0.00000  Uiso   1.00
C69    C     0.98390   0.89316   0.40408   0.00000  Uiso   1.00
H70    H     0.81790   0.77816   0.18299   0.00000  Uiso   1.00
H71    H     0.64738   0.86087   0.15569   0.00000  Uiso   1.00
H72    H     0.02067   0.67496   0.08419   0.00000  Uiso   1.00
H73    H     0.75484   0.78624   0.30366   0.00000  Uiso   1.00
H74    H     0.50705   0.97204   0.13392   0.00000  Uiso   1.00
H75    H     0.29416   0.58004   0.98318   0.00000  Uiso   1.00
H76    H     0.73361   0.81470   0.44598   0.00000  Uiso   1.00
H77    H     0.19309   0.92833   0.24875   0.00000  Uiso   1.00
H78    H     0.04315   0.01928   0.22506   0.00000  Uiso   1.00
H79    H     0.41644   0.83337   0.15355   0.00000  Uiso   1.00
H80    H     0.15061   0.94465   0.37303   0.00000  Uiso   1.00
H81    H     0.82828   0.10062   0.19023   0.00000  Uiso   1.00
H82    H     0.61539   0.70861   0.03948   0.00000  Uiso   1.00
H83    H     0.05484   0.94327   0.50228   0.00000  Uiso   1.00
O84    O     0.56229   0.09344   0.14528   0.00000  Uiso   1.00
O85    O     0.59495   0.57915   0.94751   0.00000  Uiso   1.00
O86    O     0.85952   0.88701   0.55470   0.00000  Uiso   1.00
N87    N     0.60321   0.98983   0.15044   0.00000  Uiso   1.00
N88    N     0.33911   0.62333   0.00949   0.00000  Uiso   1.00
N89    N     0.81507   0.84270   0.44217   0.00000  Uiso   1.00
N90    N     0.77606   0.05901   0.18074   0.00000  Uiso   1.00
N91    N     0.51195   0.69252   0.03979   0.00000  Uiso   1.00
N92    N     0.98792   0.91189   0.47247   0.00000  Uiso   1.00
C93    C     0.10306   0.79873   0.61550   0.00000  Uiso   1.00
C94    C     0.05648   0.80272   0.68577   0.00000  Uiso   1.00
C95    C     0.90578   0.82048   0.72377   0.00000  Uiso   1.00
C96    C     0.88749   0.82115   0.78688   0.00000  Uiso   1.00
C97    C     0.79572   0.82990   0.89233   0.00000  Uiso   1.00
C98    C     0.22084   0.84769   0.62445   0.00000  Uiso   1.00
C99    C     0.20833   0.90325   0.61089   0.00000  Uiso   1.00
C100   C     0.32840   0.94177   0.62238   0.00000  Uiso   1.00
C101   C     0.49186   0.02029   0.63258   0.00000  Uiso   1.00
C102   C     0.19323   0.72496   0.56679   0.00000  Uiso   1.00
C103   C     0.15754   0.67734   0.50473   0.00000  Uiso   1.00
C104   C     0.25440   0.61253   0.46766   0.00000  Uiso   1.00
C105   C     0.37499   0.50051   0.38833   0.00000  Uiso   1.00
C106   C     0.33856   0.76834   0.66001   0.00000  Uiso   1.00
C107   C     0.18440   0.78622   0.70994   0.00000  Uiso   1.00
C108   C     0.16633   0.78686   0.77301   0.00000  Uiso   1.00
C109   C     0.01563   0.80462   0.81110   0.00000  Uiso   1.00
C110   C     0.34875   0.83118   0.64862   0.00000  Uiso   1.00
C111   C     0.46888   0.86963   0.66013   0.00000  Uiso   1.00
C112   C     0.45655   0.92523   0.64660   0.00000  Uiso   1.00
C113   C     0.32115   0.70845   0.59096   0.00000  Uiso   1.00
C114   C     0.41809   0.64372   0.55398   0.00000  Uiso   1.00
C115   C     0.38255   0.59600   0.49188   0.00000  Uiso   1.00
H116   H     0.00348   0.81158   0.59667   0.00000  Uiso   1.00
H117   H     0.80682   0.83326   0.70504   0.00000  Uiso   1.00
H118   H     0.10933   0.91600   0.59217   0.00000  Uiso   1.00
H119   H     0.05855   0.69012   0.48603   0.00000  Uiso   1.00
H120   H     0.64521   0.85003   0.83586   0.00000  Uiso   1.00
H121   H     0.28310   0.02449   0.59785   0.00000  Uiso   1.00
H122   H     0.17601   0.54819   0.37403   0.00000  Uiso   1.00
H123   H     0.43815   0.75549   0.67883   0.00000  Uiso   1.00
H124   H     0.26534   0.77409   0.79171   0.00000  Uiso   1.00
H125   H     0.56785   0.85684   0.67884   0.00000  Uiso   1.00
H126   H     0.51706   0.63096   0.57270   0.00000  Uiso   1.00
H127   H     0.01736   0.80202   0.90621   0.00000  Uiso   1.00
H128   H     0.65525   0.97648   0.66819   0.00000  Uiso   1.00
H129   H     0.54816   0.50017   0.44437   0.00000  Uiso   1.00
O130   O     0.70977   0.83929   0.94382   0.00000  Uiso   1.00
O131   O     0.54666   0.06817   0.63154   0.00000  Uiso   1.00
O132   O     0.40616   0.44327   0.33790   0.00000  Uiso   1.00
N133   N     0.75651   0.83617   0.83692   0.00000  Uiso   1.00
N134   N     0.35288   0.99928   0.61440   0.00000  Uiso   1.00
N135   N     0.25279   0.55399   0.40514   0.00000  Uiso   1.00
N136   N     0.95676   0.81033   0.87477   0.00000  Uiso   1.00
N137   N     0.55313   0.97344   0.65225   0.00000  Uiso   1.00
N138   N     0.45304   0.52815   0.44299   0.00000  Uiso   1.00
C139   C     0.27876   0.61890   0.81698   0.00000  Uiso   1.00
C140   C     0.25646   0.68989   0.88210   0.00000  Uiso   1.00
C141   C     0.36906   0.73188   0.90178   0.00000  Uiso   1.00
C142   C     0.32565   0.79497   0.96316   0.00000  Uiso   1.00
C143   C     0.31391   0.90212   0.05814   0.00000  Uiso   1.00
C144   C     0.15373   0.62493   0.77791   0.00000  Uiso   1.00
C145   C     0.17997   0.61228   0.70998   0.00000  Uiso   1.00
C146   C     0.05008   0.62068   0.68366   0.00000  Uiso   1.00
C147   C     0.87885   0.62693   0.61686   0.00000  Uiso   1.00
C148   C     0.23604   0.56750   0.84166   0.00000  Uiso   1.00
C149   C     0.33146   0.50655   0.82734   0.00000  Uiso   1.00
C150   C     0.27085   0.46659   0.85468   0.00000  Uiso   1.00
C151   C     0.22742   0.38367   0.88687   0.00000  Uiso   1.00
C152   C     0.00144   0.65627   0.89100   0.00000  Uiso   1.00
C153   C     0.10582   0.71019   0.92230   0.00000  Uiso   1.00
C154   C     0.06223   0.77323   0.98367   0.00000  Uiso   1.00
C155   C     0.17475   0.81530   0.00344   0.00000  Uiso   1.00
C156   C     0.00311   0.64523   0.81811   0.00000  Uiso   1.00
C157   C     0.87314   0.65364   0.79187   0.00000  Uiso   1.00
C158   C     0.89917   0.64102   0.72393   0.00000  Uiso   1.00
C159   C     0.08541   0.58780   0.88187   0.00000  Uiso   1.00
C160   C     0.02464   0.54791   0.90923   0.00000  Uiso   1.00
C161   C     0.11995   0.48693   0.89495   0.00000  Uiso   1.00
H162   H     0.39603   0.60309   0.78568   0.00000  Uiso   1.00
H163   H     0.48562   0.71615   0.87065   0.00000  Uiso   1.00
H164   H     0.29655   0.59657   0.67888   0.00000  Uiso   1.00
H165   H     0.44802   0.49086   0.79622   0.00000  Uiso   1.00
H166   H     0.51849   0.85046   0.98257   0.00000  Uiso   1.00
H167   H     0.11984   0.59829   0.57821   0.00000  Uiso   1.00
H168   H     0.43924   0.37539   0.82564   0.00000  Uiso   1.00
H169   H     0.88416   0.67208   0.92230   0.00000  Uiso   1.00
H170   H     0.94566   0.78893   0.01477   0.00000  Uiso   1.00
H171   H     0.75659   0.66934   0.82300   0.00000  Uiso   1.00
H172   H     0.90806   0.56364   0.94034   0.00000  Uiso   1.00
H173   H     0.08024   0.90953   0.09954   0.00000  Uiso   1.00
H174   H     0.68158   0.65736   0.69518   0.00000  Uiso   1.00
H175   H     0.00099   0.43446   0.94261   0.00000  Uiso   1.00
O176   O     0.34904   0.95563   0.09941   0.00000  Uiso   1.00
O177   O     0.82602   0.62478   0.56891   0.00000  Uiso   1.00
O178   O     0.24508   0.33234   0.89353   0.00000  Uiso   1.00
N179   N     0.40692   0.84832   0.99742   0.00000  Uiso   1.00
N180   N     0.03420   0.61257   0.61937   0.00000  Uiso   1.00
N181   N     0.33280   0.40416   0.85068   0.00000  Uiso   1.00
N182   N     0.17110   0.88011   0.06036   0.00000  Uiso   1.00
N183   N     0.79838   0.64436   0.68231   0.00000  Uiso   1.00
N184   N     0.09699   0.43595   0.91362   0.00000  Uiso   1.00
C185   C     0.09615   0.18744   0.80194   0.00000  Uiso   1.00
C186   C     0.13678   0.12167   0.80765   0.00000  Uiso   1.00
C187   C     0.26721   0.10492   0.82934   0.00000  Uiso   1.00
C188   C     0.28335   0.04233   0.83099   0.00000  Uiso   1.00
C189   C     0.36319   0.94696   0.84283   0.00000  Uiso   1.00
C190   C     0.93396   0.22268   0.84651   0.00000  Uiso   1.00
C191   C     0.89387   0.29085   0.90086   0.00000  Uiso   1.00
C192   C     0.73926   0.31329   0.93521   0.00000  Uiso   1.00
C193   C     0.50420   0.37475   0.00734   0.00000  Uiso   1.00
C194   C     0.07841   0.16221   0.72726   0.00000  Uiso   1.00
C195   C     0.15973   0.17956   0.68135   0.00000  Uiso   1.00
C196   C     0.12671   0.15111   0.61531   0.00000  Uiso   1.00
C197   C     0.11592   0.11868   0.50229   0.00000  Uiso   1.00
C198   C     0.89288   0.10608   0.76631   0.00000  Uiso   1.00
C199   C     0.02636   0.07748   0.78830   0.00000  Uiso   1.00
C200   C     0.04231   0.01490   0.78992   0.00000  Uiso   1.00
C201   C     0.17274   0.99806   0.81160   0.00000  Uiso   1.00
C202   C     0.82355   0.17849   0.82716   0.00000  Uiso   1.00
C203   C     0.66897   0.20084   0.86144   0.00000  Uiso   1.00
C204   C     0.62865   0.26903   0.91583   0.00000  Uiso   1.00
C205   C     0.96799   0.11802   0.70791   0.00000  Uiso   1.00
C206   C     0.93483   0.08954   0.64193   0.00000  Uiso   1.00
C207   C     0.01610   0.10684   0.59592   0.00000  Uiso   1.00
H208   H     0.18210   0.22184   0.81701   0.00000  Uiso   1.00
H209   H     0.35262   0.13913   0.84432   0.00000  Uiso   1.00
H210   H     0.97933   0.32504   0.91581   0.00000  Uiso   1.00
H211   H     0.24516   0.21376   0.69634   0.00000  Uiso   1.00
H212   H     0.49295   0.02796   0.86608   0.00000  Uiso   1.00
H213   H     0.70584   0.41996   0.01682   0.00000  Uiso   1.00
H214   H     0.26639   0.18530   0.55402   0.00000  Uiso   1.00
H215   H     0.80691   0.07167   0.75125   0.00000  Uiso   1.00
H216   H     0.95685   0.98072   0.77494   0.00000  Uiso   1.00
H217   H     0.58356   0.16663   0.84645   0.00000  Uiso   1.00
H218   H     0.84938   0.05535   0.62697   0.00000  Uiso   1.00
H219   H     0.17172   0.89938   0.80977   0.00000  Uiso   1.00
H220   H     0.38461   0.29139   0.96052   0.00000  Uiso   1.00
H221   H     0.94516   0.05673   0.49772   0.00000  Uiso   1.00
O222   O     0.43771   0.90656   0.85472   0.00000  Uiso   1.00
O223   O     0.40505   0.42085   0.05249   0.00000  Uiso   1.00
O224   O     0.14048   0.11299   0.44530   0.00000  Uiso   1.00
N225   N     0.39679   0.01017   0.84956   0.00000  Uiso   1.00
N226   N     0.66089   0.37667   0.99051   0.00000  Uiso   1.00
N227   N     0.18493   0.15730   0.55783   0.00000  Uiso   1.00
N228   N     0.22394   0.94099   0.81926   0.00000  Uiso   1.00
N229   N     0.48805   0.30748   0.96021   0.00000  Uiso   1.00
N230   N     0.01208   0.08811   0.52753   0.00000  Uiso   1.00
C231   C     0.89694   0.20127   0.38450   0.00000  Uiso   1.00
C232   C     0.94352   0.19728   0.31423   0.00000  Uiso   1.00
C233   C     0.09422   0.17952   0.27623   0.00000  Uiso   1.00
C234   C     0.11251   0.17885   0.21312   0.00000  Uiso   1.00
C235   C     0.20428   0.17010   0.10767   0.00000  Uiso   1.00
C236   C     0.77916   0.15231   0.37555   0.00000  Uiso   1.00
C237   C     0.79167   0.09675   0.38911   0.00000  Uiso   1.00
C238   C     0.67160   0.05823   0.37762   0.00000  Uiso   1.00
C239   C     0.50814   0.97971   0.36742   0.00000  Uiso   1.00
C240   C     0.80677   0.27504   0.43321   0.00000  Uiso   1.00
C241   C     0.84246   0.32266   0.49527   0.00000  Uiso   1.00
C242   C     0.74560   0.38747   0.53234   0.00000  Uiso   1.00
C243   C     0.62501   0.49949   0.61167   0.00000  Uiso   1.00
C244   C     0.66144   0.23166   0.33999   0.00000  Uiso   1.00
C245   C     0.81560   0.21378   0.29006   0.00000  Uiso   1.00
C246   C     0.83367   0.21314   0.22699   0.00000  Uiso   1.00
C247   C     0.98437   0.19538   0.18890   0.00000  Uiso   1.00
C248   C     0.65125   0.16882   0.35138   0.00000  Uiso   1.00
C249   C     0.53112   0.13037   0.33987   0.00000  Uiso   1.00
C250   C     0.54345   0.07477   0.35340   0.00000  Uiso   1.00
C251   C     0.67885   0.29155   0.40904   0.00000  Uiso   1.00
C252   C     0.58191   0.35628   0.44602   0.00000  Uiso   1.00
C253   C     0.61745   0.40400   0.50812   0.00000  Uiso   1.00
H254   H     0.99652   0.18842   0.40333   0.00000  Uiso   1.00
H255   H     0.19318   0.16674   0.29496   0.00000  Uiso   1.00
H256   H     0.89066   0.08400   0.40783   0.00000  Uiso   1.00
H257   H     0.94145   0.30987   0.51397   0.00000  Uiso   1.00
H258   H     0.35479   0.14997   0.16414   0.00000  Uiso   1.00
H259   H     0.71690   0.97551   0.40215   0.00000  Uiso   1.00
H260   H     0.82399   0.45181   0.62597   0.00000  Uiso   1.00
H261   H     0.56185   0.24451   0.32117   0.00000  Uiso   1.00
H262   H     0.73466   0.22591   0.20829   0.00000  Uiso   1.00
H263   H     0.43215   0.14316   0.32116   0.00000  Uiso   1.00
H264   H     0.48294   0.36904   0.42730   0.00000  Uiso   1.00
H265   H     0.98264   0.19798   0.09379   0.00000  Uiso   1.00
H266   H     0.34475   0.02352   0.33181   0.00000  Uiso   1.00
H267   H     0.45184   0.49983   0.55563   0.00000  Uiso   1.00
O268   O     0.29023   0.16071   0.05618   0.00000  Uiso   1.00
O269   O     0.45334   0.93183   0.36846   0.00000  Uiso   1.00
O270   O     0.59384   0.55673   0.66210   0.00000  Uiso   1.00
N271   N     0.24349   0.16383   0.16308   0.00000  Uiso   1.00
N272   N     0.64712   0.00072   0.38560   0.00000  Uiso   1.00
N273   N     0.74721   0.44601   0.59486   0.00000  Uiso   1.00
N274   N     0.04324   0.18967   0.12523   0.00000  Uiso   1.00
N275   N     0.44687   0.02656   0.34775   0.00000  Uiso   1.00
N276   N     0.54696   0.47185   0.55701   0.00000  Uiso   1.00
