data_job_07051
_audit_creation_date              2018-12-19
_audit_creation_method            'Materials Studio'
_symmetry_space_group_name_H-M    'P1'
_symmetry_Int_Tables_number       1
_symmetry_cell_setting            triclinic
loop_
_symmetry_equiv_pos_as_xyz
  x,y,z
_cell_length_a                    21.4934
_cell_length_b                    22.5221
_cell_length_c                    24.0031
_cell_angle_alpha                 101.6094
_cell_angle_beta                  75.7143
_cell_angle_gamma                 66.4641
loop_
_atom_site_label
_atom_site_type_symbol
_atom_site_fract_x
_atom_site_fract_y
_atom_site_fract_z
_atom_site_U_iso_or_equiv
_atom_site_adp_type
_atom_site_occupancy
C1     C     0.63209   0.06034   0.43404   0.00000  Uiso   1.00
C2     C     0.68975   0.98803   0.39147   0.00000  Uiso   1.00
C3     C     0.69154   0.92718   0.39672   0.00000  Uiso   1.00
C4     C     0.74885   0.86632   0.35320   0.00000  Uiso   1.00
C5     C     0.83026   0.75403   0.29428   0.00000  Uiso   1.00
C6     C     0.67323   0.09476   0.45775   0.00000  Uiso   1.00
C7     C     0.66111   0.12365   0.51872   0.00000  Uiso   1.00
C8     C     0.70451   0.15264   0.53099   0.00000  Uiso   1.00
C9     C     0.76024   0.20610   0.57497   0.00000  Uiso   1.00
C10    C     0.60086   0.09832   0.39354   0.00000  Uiso   1.00
C11    C     0.52788   0.13021   0.40053   0.00000  Uiso   1.00
C12    C     0.51034   0.16221   0.35875   0.00000  Uiso   1.00
C13    C     0.45370   0.22118   0.30303   0.00000  Uiso   1.00
C14    C     0.73070   0.06048   0.34742   0.00000  Uiso   1.00
C15    C     0.74331   0.98811   0.34443   0.00000  Uiso   1.00
C16    C     0.80064   0.92733   0.30089   0.00000  Uiso   1.00
C17    C     0.80250   0.86639   0.30606   0.00000  Uiso   1.00
C18    C     0.72679   0.09484   0.41071   0.00000  Uiso   1.00
C19    C     0.77021   0.12380   0.42289   0.00000  Uiso   1.00
C20    C     0.75817   0.15272   0.48386   0.00000  Uiso   1.00
C21    C     0.65442   0.09839   0.34649   0.00000  Uiso   1.00
C22    C     0.63699   0.13035   0.30470   0.00000  Uiso   1.00
C23    C     0.56400   0.16228   0.31162   0.00000  Uiso   1.00
H24    H     0.59039   0.06029   0.47067   0.00000  Uiso   1.00
H25    H     0.65008   0.92714   0.43314   0.00000  Uiso   1.00
H26    H     0.61966   0.12359   0.55512   0.00000  Uiso   1.00
H27    H     0.48645   0.13014   0.43694   0.00000  Uiso   1.00
H28    H     0.73989   0.77956   0.37079   0.00000  Uiso   1.00
H29    H     0.67573   0.19380   0.62799   0.00000  Uiso   1.00
H30    H     0.39483   0.20762   0.37880   0.00000  Uiso   1.00
H31    H     0.77240   0.06054   0.31080   0.00000  Uiso   1.00
H32    H     0.84208   0.92740   0.26448   0.00000  Uiso   1.00
H33    H     0.81165   0.12385   0.38647   0.00000  Uiso   1.00
H34    H     0.67845   0.13040   0.26830   0.00000  Uiso   1.00
H35    H     0.89573   0.77977   0.23391   0.00000  Uiso   1.00
H36    H     0.83156   0.19402   0.49112   0.00000  Uiso   1.00
H37    H     0.55067   0.20783   0.24192   0.00000  Uiso   1.00
O38    O     0.86038   0.69208   0.27478   0.00000  Uiso   1.00
O39    O     0.77618   0.23556   0.61223   0.00000  Uiso   1.00
O40    O     0.40766   0.25368   0.28529   0.00000  Uiso   1.00
N41    N     0.76700   0.79788   0.34492   0.00000  Uiso   1.00
N42    N     0.70702   0.18516   0.58540   0.00000  Uiso   1.00
N43    N     0.44440   0.19810   0.35243   0.00000  Uiso   1.00
N44    N     0.85085   0.79799   0.27127   0.00000  Uiso   1.00
N45    N     0.79087   0.18527   0.51174   0.00000  Uiso   1.00
N46    N     0.52825   0.19821   0.27877   0.00000  Uiso   1.00
C47    C     0.94268   0.08072   0.77485   0.00000  Uiso   1.00
C48    C     0.00410   0.00723   0.74120   0.00000  Uiso   1.00
C49    C     0.00322   0.95719   0.69740   0.00000  Uiso   1.00
C50    C     0.06477   0.89311   0.67199   0.00000  Uiso   1.00
C51    C     0.15096   0.78103   0.61705   0.00000  Uiso   1.00
C52    C     0.92379   0.09052   0.84273   0.00000  Uiso   1.00
C53    C     0.85538   0.11052   0.88429   0.00000  Uiso   1.00
C54    C     0.84932   0.11657   0.94434   0.00000  Uiso   1.00
C55    C     0.81081   0.13386   0.04704   0.00000  Uiso   1.00
C56    C     0.97613   0.12741   0.76308   0.00000  Uiso   1.00
C57    C     0.95172   0.17844   0.73768   0.00000  Uiso   1.00
C58    C     0.98972   0.21555   0.73069   0.00000  Uiso   1.00
C59    C     0.03249   0.29010   0.70972   0.00000  Uiso   1.00
C60    C     0.05355   0.05591   0.80762   0.00000  Uiso   1.00
C61    C     0.06432   0.99375   0.75900   0.00000  Uiso   1.00
C62    C     0.12589   0.92973   0.73365   0.00000  Uiso   1.00
C63    C     0.12510   0.87961   0.68981   0.00000  Uiso   1.00
C64    C     0.98400   0.07704   0.86053   0.00000  Uiso   1.00
C65    C     0.97804   0.08306   0.92054   0.00000  Uiso   1.00
C66    C     0.90965   0.10306   0.96217   0.00000  Uiso   1.00
C67    C     0.03635   0.11393   0.78087   0.00000  Uiso   1.00
C68    C     0.07439   0.15097   0.77393   0.00000  Uiso   1.00
C69    C     0.05005   0.20205   0.74852   0.00000  Uiso   1.00
H70    H     0.89580   0.09122   0.76100   0.00000  Uiso   1.00
H71    H     0.95660   0.96764   0.68364   0.00000  Uiso   1.00
H72    H     0.80879   0.12096   0.87050   0.00000  Uiso   1.00
H73    H     0.90512   0.18885   0.72391   0.00000  Uiso   1.00
H74    H     0.05057   0.82468   0.60574   0.00000  Uiso   1.00
H75    H     0.73888   0.14798   0.99975   0.00000  Uiso   1.00
H76    H     0.94201   0.29116   0.69064   0.00000  Uiso   1.00
H77    H     0.10044   0.04541   0.82147   0.00000  Uiso   1.00
H78    H     0.17248   0.91931   0.74743   0.00000  Uiso   1.00
H79    H     0.02466   0.07263   0.93429   0.00000  Uiso   1.00
H80    H     0.12099   0.14053   0.78771   0.00000  Uiso   1.00
H81    H     0.22578   0.78545   0.65752   0.00000  Uiso   1.00
H82    H     0.91409   0.10876   0.05153   0.00000  Uiso   1.00
H83    H     0.11722   0.25193   0.74242   0.00000  Uiso   1.00
O84    O     0.18187   0.72294   0.58184   0.00000  Uiso   1.00
O85    O     0.77294   0.14711   0.09877   0.00000  Uiso   1.00
O86    O     0.03944   0.33495   0.69323   0.00000  Uiso   1.00
N87    N     0.08193   0.83276   0.62808   0.00000  Uiso   1.00
N88    N     0.79052   0.13501   0.99645   0.00000  Uiso   1.00
N89    N     0.98042   0.26888   0.70748   0.00000  Uiso   1.00
N90    N     0.17620   0.81165   0.65594   0.00000  Uiso   1.00
N91    N     0.88480   0.11391   0.02431   0.00000  Uiso   1.00
N92    N     0.07470   0.24778   0.73534   0.00000  Uiso   1.00
C93    C     0.56025   0.11734   0.90336   0.00000  Uiso   1.00
C94    C     0.62484   0.04509   0.87792   0.00000  Uiso   1.00
C95    C     0.68947   0.02619   0.88866   0.00000  Uiso   1.00
C96    C     0.74191   0.95752   0.86121   0.00000  Uiso   1.00
C97    C     0.84400   0.85264   0.82729   0.00000  Uiso   1.00
C98    C     0.54639   0.13550   0.84819   0.00000  Uiso   1.00
C99    C     0.54506   0.19262   0.83392   0.00000  Uiso   1.00
C100   C     0.53146   0.20006   0.78144   0.00000  Uiso   1.00
C101   C     0.51172   0.23557   0.70138   0.00000  Uiso   1.00
C102   C     0.49459   0.11089   0.93749   0.00000  Uiso   1.00
C103   C     0.44969   0.14733   0.99831   0.00000  Uiso   1.00
C104   C     0.39246   0.13406   0.02102   0.00000  Uiso   1.00
C105   C     0.29228   0.13136   0.07961   0.00000  Uiso   1.00
C106   C     0.53844   0.02899   0.83554   0.00000  Uiso   1.00
C107   C     0.61299   0.99710   0.84108   0.00000  Uiso   1.00
C108   C     0.66534   0.92844   0.81362   0.00000  Uiso   1.00
C109   C     0.73004   0.90944   0.82431   0.00000  Uiso   1.00
C110   C     0.53455   0.08751   0.81135   0.00000  Uiso   1.00
C111   C     0.52093   0.09487   0.75888   0.00000  Uiso   1.00
C112   C     0.51959   0.15199   0.74454   0.00000  Uiso   1.00
C113   C     0.48274   0.06289   0.90065   0.00000  Uiso   1.00
C114   C     0.42556   0.04957   0.92327   0.00000  Uiso   1.00
C115   C     0.38059   0.08599   0.98411   0.00000  Uiso   1.00
H116   H     0.56947   0.15470   0.93204   0.00000  Uiso   1.00
H117   H     0.69862   0.06335   0.91716   0.00000  Uiso   1.00
H118   H     0.55423   0.22975   0.86244   0.00000  Uiso   1.00
H119   H     0.45887   0.18446   0.02680   0.00000  Uiso   1.00
H120   H     0.83658   0.94090   0.88441   0.00000  Uiso   1.00
H121   H     0.53210   0.29179   0.76903   0.00000  Uiso   1.00
H122   H     0.33102   0.19630   0.11562   0.00000  Uiso   1.00
H123   H     0.52922   0.99162   0.80685   0.00000  Uiso   1.00
H124   H     0.65616   0.89131   0.78511   0.00000  Uiso   1.00
H125   H     0.51177   0.05772   0.73039   0.00000  Uiso   1.00
H126   H     0.41641   0.01243   0.89475   0.00000  Uiso   1.00
H127   H     0.80212   0.80127   0.77722   0.00000  Uiso   1.00
H128   H     0.49764   0.15217   0.66185   0.00000  Uiso   1.00
H129   H     0.29656   0.05667   0.00844   0.00000  Uiso   1.00
O130   O     0.90359   0.80805   0.81875   0.00000  Uiso   1.00
O131   O     0.50411   0.26841   0.66739   0.00000  Uiso   1.00
O132   O     0.24031   0.14312   0.12211   0.00000  Uiso   1.00
N133   N     0.81105   0.92180   0.86217   0.00000  Uiso   1.00
N134   N     0.52639   0.24986   0.75430   0.00000  Uiso   1.00
N135   N     0.33838   0.16059   0.07833   0.00000  Uiso   1.00
N136   N     0.79250   0.84667   0.80450   0.00000  Uiso   1.00
N137   N     0.50784   0.17473   0.69663   0.00000  Uiso   1.00
N138   N     0.31984   0.08546   0.02066   0.00000  Uiso   1.00
C139   C     0.41974   0.64086   0.28827   0.00000  Uiso   1.00
C140   C     0.47167   0.56382   0.25899   0.00000  Uiso   1.00
C141   C     0.54213   0.53372   0.21677   0.00000  Uiso   1.00
C142   C     0.58083   0.46237   0.19542   0.00000  Uiso   1.00
C143   C     0.66616   0.34880   0.14691   0.00000  Uiso   1.00
C144   C     0.39760   0.65610   0.35708   0.00000  Uiso   1.00
C145   C     0.40576   0.70359   0.39733   0.00000  Uiso   1.00
C146   C     0.38210   0.70992   0.45856   0.00000  Uiso   1.00
C147   C     0.35237   0.73965   0.56233   0.00000  Uiso   1.00
C148   C     0.35120   0.65249   0.27422   0.00000  Uiso   1.00
C149   C     0.32033   0.69696   0.24482   0.00000  Uiso   1.00
C150   C     0.25759   0.70027   0.23630   0.00000  Uiso   1.00
C151   C     0.15582   0.72440   0.21143   0.00000  Uiso   1.00
C152   C     0.36319   0.56766   0.32543   0.00000  Uiso   1.00
C153   C     0.44095   0.52407   0.27917   0.00000  Uiso   1.00
C154   C     0.47956   0.45274   0.25788   0.00000  Uiso   1.00
C155   C     0.55006   0.42254   0.21564   0.00000  Uiso   1.00
C156   C     0.36688   0.61634   0.37726   0.00000  Uiso   1.00
C157   C     0.34320   0.62261   0.43845   0.00000  Uiso   1.00
C158   C     0.35133   0.67009   0.47878   0.00000  Uiso   1.00
C159   C     0.32048   0.61273   0.29440   0.00000  Uiso   1.00
C160   C     0.25777   0.61598   0.28593   0.00000  Uiso   1.00
C161   C     0.22682   0.66044   0.25653   0.00000  Uiso   1.00
H162   H     0.44365   0.67181   0.27256   0.00000  Uiso   1.00
H163   H     0.56588   0.56451   0.20117   0.00000  Uiso   1.00
H164   H     0.42953   0.73435   0.38170   0.00000  Uiso   1.00
H165   H     0.34412   0.72772   0.22921   0.00000  Uiso   1.00
H166   H     0.68786   0.42801   0.13093   0.00000  Uiso   1.00
H167   H     0.40033   0.78615   0.51160   0.00000  Uiso   1.00
H168   H     0.22022   0.77218   0.19005   0.00000  Uiso   1.00
H169   H     0.33927   0.53671   0.34115   0.00000  Uiso   1.00
H170   H     0.45578   0.42199   0.27351   0.00000  Uiso   1.00
H171   H     0.31942   0.59183   0.45405   0.00000  Uiso   1.00
H172   H     0.23402   0.58521   0.30156   0.00000  Uiso   1.00
H173   H     0.59849   0.31234   0.18965   0.00000  Uiso   1.00
H174   H     0.31096   0.67048   0.57032   0.00000  Uiso   1.00
H175   H     0.13086   0.65650   0.24877   0.00000  Uiso   1.00
O176   O     0.72171   0.29715   0.11458   0.00000  Uiso   1.00
O177   O     0.34447   0.76702   0.61400   0.00000  Uiso   1.00
O178   O     0.10818   0.74868   0.19213   0.00000  Uiso   1.00
N179   N     0.65083   0.41653   0.15402   0.00000  Uiso   1.00
N180   N     0.38202   0.75136   0.50992   0.00000  Uiso   1.00
N181   N     0.21363   0.73831   0.20931   0.00000  Uiso   1.00
N182   N     0.60275   0.35429   0.18562   0.00000  Uiso   1.00
N183   N     0.33394   0.68912   0.54152   0.00000  Uiso   1.00
N184   N     0.16554   0.67607   0.24091   0.00000  Uiso   1.00
C185   C     0.77493   0.59697   0.47940   0.00000  Uiso   1.00
C186   C     0.80509   0.52573   0.48547   0.00000  Uiso   1.00
C187   C     0.79484   0.47191   0.45757   0.00000  Uiso   1.00
C188   C     0.82693   0.41080   0.46885   0.00000  Uiso   1.00
C189   C     0.86758   0.30124   0.47249   0.00000  Uiso   1.00
C190   C     0.84054   0.60840   0.45620   0.00000  Uiso   1.00
C191   C     0.86009   0.62409   0.40370   0.00000  Uiso   1.00
C192   C     0.92201   0.63257   0.39036   0.00000  Uiso   1.00
C193   C     0.01768   0.65140   0.34859   0.00000  Uiso   1.00
C194   C     0.73069   0.64798   0.54426   0.00000  Uiso   1.00
C195   C     0.65787   0.69697   0.56580   0.00000  Uiso   1.00
C196   C     0.62730   0.73880   0.62660   0.00000  Uiso   1.00
C197   C     0.55240   0.81909   0.72156   0.00000  Uiso   1.00
C198   C     0.85013   0.58415   0.54907   0.00000  Uiso   1.00
C199   C     0.84594   0.51877   0.52331   0.00000  Uiso   1.00
C200   C     0.87805   0.45772   0.53464   0.00000  Uiso   1.00
C201   C     0.86785   0.40382   0.50676   0.00000  Uiso   1.00
C202   C     0.88139   0.60143   0.49404   0.00000  Uiso   1.00
C203   C     0.94329   0.60990   0.48078   0.00000  Uiso   1.00
C204   C     0.96294   0.62559   0.42826   0.00000  Uiso   1.00
C205   C     0.77153   0.64102   0.58211   0.00000  Uiso   1.00
C206   C     0.74107   0.68278   0.64288   0.00000  Uiso   1.00
C207   C     0.66823   0.73182   0.66451   0.00000  Uiso   1.00
H208   H     0.74313   0.60239   0.44994   0.00000  Uiso   1.00
H209   H     0.76323   0.47732   0.42828   0.00000  Uiso   1.00
H210   H     0.82847   0.62948   0.37443   0.00000  Uiso   1.00
H211   H     0.62628   0.70235   0.53651   0.00000  Uiso   1.00
H212   H     0.80356   0.33557   0.42094   0.00000  Uiso   1.00
H213   H     0.94110   0.65643   0.30740   0.00000  Uiso   1.00
H214   H     0.51474   0.81010   0.64917   0.00000  Uiso   1.00
H215   H     0.88193   0.57873   0.57853   0.00000  Uiso   1.00
H216   H     0.90965   0.45235   0.56392   0.00000  Uiso   1.00
H217   H     0.97489   0.60451   0.51007   0.00000  Uiso   1.00
H218   H     0.77270   0.67738   0.67215   0.00000  Uiso   1.00
H219   H     0.92240   0.31531   0.53103   0.00000  Uiso   1.00
H220   H     0.05994   0.63617   0.41749   0.00000  Uiso   1.00
H221   H     0.63358   0.78983   0.75926   0.00000  Uiso   1.00
O222   O     0.87873   0.24272   0.46404   0.00000  Uiso   1.00
O223   O     0.05916   0.66370   0.31509   0.00000  Uiso   1.00
O224   O     0.49980   0.86529   0.76349   0.00000  Uiso   1.00
N225   N     0.82771   0.34815   0.44886   0.00000  Uiso   1.00
N226   N     0.95631   0.64813   0.34271   0.00000  Uiso   1.00
N227   N     0.55770   0.79180   0.66223   0.00000  Uiso   1.00
N228   N     0.89166   0.33724   0.50810   0.00000  Uiso   1.00
N229   N     0.02025   0.63722   0.40194   0.00000  Uiso   1.00
N230   N     0.62165   0.78089   0.72147   0.00000  Uiso   1.00
C231   C     0.13432   0.55961   0.85224   0.00000  Uiso   1.00
C232   C     0.18685   0.48388   0.81560   0.00000  Uiso   1.00
C233   C     0.19592   0.42934   0.83708   0.00000  Uiso   1.00
C234   C     0.24671   0.36388   0.79643   0.00000  Uiso   1.00
C235   C     0.32212   0.24788   0.74865   0.00000  Uiso   1.00
C236   C     0.08621   0.58544   0.81610   0.00000  Uiso   1.00
C237   C     0.01067   0.61630   0.83802   0.00000  Uiso   1.00
C238   C     0.97674   0.63634   0.79779   0.00000  Uiso   1.00
C239   C     0.89591   0.67806   0.75081   0.00000  Uiso   1.00
C240   C     0.18066   0.59629   0.84935   0.00000  Uiso   1.00
C241   C     0.18452   0.63629   0.89922   0.00000  Uiso   1.00
C242   C     0.23010   0.66547   0.88699   0.00000  Uiso   1.00
C243   C     0.29592   0.72403   0.89163   0.00000  Uiso   1.00
C244   C     0.20839   0.54032   0.74184   0.00000  Uiso   1.00
C245   C     0.22708   0.47341   0.75563   0.00000  Uiso   1.00
C246   C     0.27787   0.40800   0.71494   0.00000  Uiso   1.00
C247   C     0.28701   0.35338   0.73636   0.00000  Uiso   1.00
C248   C     0.12644   0.57497   0.75614   0.00000  Uiso   1.00
C249   C     0.09261   0.59496   0.71587   0.00000  Uiso   1.00
C250   C     0.01704   0.62584   0.73772   0.00000  Uiso   1.00
C251   C     0.22089   0.58581   0.78939   0.00000  Uiso   1.00
C252   C     0.26647   0.61494   0.77708   0.00000  Uiso   1.00
C253   C     0.27040   0.65497   0.82692   0.00000  Uiso   1.00
H254   H     0.10300   0.56777   0.89892   0.00000  Uiso   1.00
H255   H     0.16477   0.43747   0.88349   0.00000  Uiso   1.00
H256   H     0.97955   0.62441   0.88443   0.00000  Uiso   1.00
H257   H     0.15338   0.64438   0.94562   0.00000  Uiso   1.00
H258   H     0.25098   0.28839   0.83993   0.00000  Uiso   1.00
H259   H     0.86043   0.68258   0.84191   0.00000  Uiso   1.00
H260   H     0.22698   0.72470   0.97095   0.00000  Uiso   1.00
H261   H     0.23971   0.53217   0.69515   0.00000  Uiso   1.00
H262   H     0.30899   0.39991   0.66854   0.00000  Uiso   1.00
H263   H     0.12376   0.58685   0.66947   0.00000  Uiso   1.00
H264   H     0.29759   0.60682   0.73067   0.00000  Uiso   1.00
H265   H     0.36803   0.25791   0.66547   0.00000  Uiso   1.00
H266   H     0.97747   0.65210   0.66744   0.00000  Uiso   1.00
H267   H     0.34403   0.69422   0.79649   0.00000  Uiso   1.00
O268   O     0.35259   0.18679   0.73886   0.00000  Uiso   1.00
O269   O     0.84020   0.70396   0.74146   0.00000  Uiso   1.00
O270   O     0.32112   0.75922   0.91076   0.00000  Uiso   1.00
N271   N     0.26903   0.29937   0.80253   0.00000  Uiso   1.00
N272   N     0.90389   0.66790   0.80437   0.00000  Uiso   1.00
N273   N     0.24657   0.70730   0.92502   0.00000  Uiso   1.00
N274   N     0.33202   0.28297   0.70865   0.00000  Uiso   1.00
N275   N     0.96687   0.65150   0.71049   0.00000  Uiso   1.00
N276   N     0.30956   0.69089   0.83114   0.00000  Uiso   1.00
C277   C     0.48400   0.90416   0.55347   0.00000  Uiso   1.00
C278   C     0.45061   0.97027   0.53912   0.00000  Uiso   1.00
C279   C     0.42857   0.97612   0.48991   0.00000  Uiso   1.00
C280   C     0.39932   0.04110   0.48480   0.00000  Uiso   1.00
C281   C     0.34850   0.13508   0.45606   0.00000  Uiso   1.00
C282   C     0.43572   0.91874   0.61819   0.00000  Uiso   1.00
C283   C     0.40115   0.88126   0.63547   0.00000  Uiso   1.00
C284   C     0.35937   0.90286   0.69693   0.00000  Uiso   1.00
C285   C     0.28547   0.91681   0.79097   0.00000  Uiso   1.00
C286   C     0.55693   0.89542   0.55683   0.00000  Uiso   1.00
C287   C     0.62429   0.83833   0.52253   0.00000  Uiso   1.00
C288   C     0.68456   0.84029   0.53234   0.00000  Uiso   1.00
C289   C     0.79887   0.81804   0.53110   0.00000  Uiso   1.00
C290   C     0.47127   0.00915   0.63189   0.00000  Uiso   1.00
C291   C     0.44370   0.02729   0.58172   0.00000  Uiso   1.00
C292   C     0.41448   0.09228   0.57668   0.00000  Uiso   1.00
C293   C     0.39239   0.09823   0.52747   0.00000  Uiso   1.00
C294   C     0.42880   0.97577   0.66079   0.00000  Uiso   1.00
C295   C     0.38707   0.99742   0.72224   0.00000  Uiso   1.00
C296   C     0.35245   0.95999   0.73961   0.00000  Uiso   1.00
C297   C     0.55002   0.95245   0.59943   0.00000  Uiso   1.00
C298   C     0.61020   0.95450   0.60930   0.00000  Uiso   1.00
C299   C     0.67764   0.89743   0.57501   0.00000  Uiso   1.00
H300   H     0.48938   0.85976   0.52031   0.00000  Uiso   1.00
H301   H     0.43392   0.93197   0.45696   0.00000  Uiso   1.00
H302   H     0.40652   0.83713   0.60250   0.00000  Uiso   1.00
H303   H     0.62962   0.79421   0.48957   0.00000  Uiso   1.00
H304   H     0.36936   0.03719   0.40553   0.00000  Uiso   1.00
H305   H     0.31160   0.83719   0.71241   0.00000  Uiso   1.00
H306   H     0.78205   0.74668   0.47428   0.00000  Uiso   1.00
H307   H     0.46588   0.05355   0.66505   0.00000  Uiso   1.00
H308   H     0.40914   0.13641   0.60965   0.00000  Uiso   1.00
H309   H     0.38173   0.04156   0.75519   0.00000  Uiso   1.00
H310   H     0.60483   0.99864   0.64226   0.00000  Uiso   1.00
H311   H     0.34924   0.20312   0.52946   0.00000  Uiso   1.00
H312   H     0.29149   0.00311   0.83634   0.00000  Uiso   1.00
H313   H     0.76193   0.91261   0.59821   0.00000  Uiso   1.00
O314   O     0.32237   0.17116   0.42844   0.00000  Uiso   1.00
O315   O     0.24661   0.90876   0.83106   0.00000  Uiso   1.00
O316   O     0.86382   0.79002   0.51864   0.00000  Uiso   1.00
N317   N     0.37242   0.06487   0.44229   0.00000  Uiso   1.00
N318   N     0.31842   0.87788   0.72921   0.00000  Uiso   1.00
N319   N     0.75825   0.79326   0.50659   0.00000  Uiso   1.00
N320   N     0.36160   0.15415   0.50897   0.00000  Uiso   1.00
N321   N     0.30759   0.96717   0.79589   0.00000  Uiso   1.00
N322   N     0.74742   0.88255   0.57327   0.00000  Uiso   1.00
C323   C     0.23309   0.90591   0.44615   0.00000  Uiso   1.00
C324   C     0.17108   0.97759   0.46100   0.00000  Uiso   1.00
C325   C     0.14593   0.03385   0.51269   0.00000  Uiso   1.00
C326   C     0.08868   0.09496   0.51784   0.00000  Uiso   1.00
C327   C     0.99713   0.20557   0.54772   0.00000  Uiso   1.00
C328   C     0.28796   0.88920   0.38370   0.00000  Uiso   1.00
C329   C     0.36107   0.87112   0.37039   0.00000  Uiso   1.00
C330   C     0.40220   0.85780   0.31046   0.00000  Uiso   1.00
C331   C     0.49210   0.83113   0.22032   0.00000  Uiso   1.00
C332   C     0.20121   0.85675   0.43703   0.00000  Uiso   1.00
C333   C     0.20141   0.81138   0.46855   0.00000  Uiso   1.00
C334   C     0.16953   0.77074   0.45351   0.00000  Uiso   1.00
C335   C     0.12475   0.69369   0.44617   0.00000  Uiso   1.00
C336   C     0.17614   0.91440   0.36338   0.00000  Uiso   1.00
C337   C     0.14015   0.98221   0.41604   0.00000  Uiso   1.00
C338   C     0.08292   0.04324   0.42112   0.00000  Uiso   1.00
C339   C     0.05769   0.09958   0.47280   0.00000  Uiso   1.00
C340   C     0.25702   0.89381   0.33874   0.00000  Uiso   1.00
C341   C     0.29806   0.88051   0.27882   0.00000  Uiso   1.00
C342   C     0.37121   0.86242   0.26542   0.00000  Uiso   1.00
C343   C     0.17028   0.86137   0.39207   0.00000  Uiso   1.00
C344   C     0.13840   0.82078   0.37698   0.00000  Uiso   1.00
C345   C     0.13854   0.77536   0.40847   0.00000  Uiso   1.00
H346   H     0.25718   0.90231   0.48114   0.00000  Uiso   1.00
H347   H     0.16989   0.03026   0.54746   0.00000  Uiso   1.00
H348   H     0.38499   0.86754   0.40518   0.00000  Uiso   1.00
H349   H     0.22535   0.80782   0.50333   0.00000  Uiso   1.00
H350   H     0.05949   0.17415   0.60115   0.00000  Uiso   1.00
H351   H     0.51305   0.83104   0.30115   0.00000  Uiso   1.00
H352   H     0.17643   0.70510   0.50811   0.00000  Uiso   1.00
H353   H     0.15206   0.91799   0.32838   0.00000  Uiso   1.00
H354   H     0.05899   0.04680   0.38632   0.00000  Uiso   1.00
H355   H     0.27410   0.88409   0.24404   0.00000  Uiso   1.00
H356   H     0.11446   0.82436   0.34219   0.00000  Uiso   1.00
H357   H     0.96948   0.18758   0.47037   0.00000  Uiso   1.00
H358   H     0.42305   0.84446   0.17035   0.00000  Uiso   1.00
H359   H     0.08642   0.71852   0.37732   0.00000  Uiso   1.00
O360   O     0.95518   0.26532   0.57662   0.00000  Uiso   1.00
O361   O     0.55024   0.81516   0.18302   0.00000  Uiso   1.00
O362   O     0.10859   0.64993   0.45455   0.00000  Uiso   1.00
N363   N     0.05107   0.15963   0.56243   0.00000  Uiso   1.00
N364   N     0.47512   0.83885   0.28194   0.00000  Uiso   1.00
N365   N     0.16042   0.72109   0.47542   0.00000  Uiso   1.00
N366   N     0.00264   0.16685   0.49205   0.00000  Uiso   1.00
N367   N     0.42669   0.84608   0.21156   0.00000  Uiso   1.00
N368   N     0.11199   0.72832   0.40505   0.00000  Uiso   1.00
C369   C     0.94150   0.79243   0.96200   0.00000  Uiso   1.00
C370   C     0.87667   0.86446   0.99328   0.00000  Uiso   1.00
C371   C     0.80928   0.88562   0.98725   0.00000  Uiso   1.00
C372   C     0.75710   0.95364   0.01966   0.00000  Uiso   1.00
C373   C     0.65417   0.05861   0.06261   0.00000  Uiso   1.00
C374   C     0.96188   0.76839   0.01299   0.00000  Uiso   1.00
C375   C     0.96614   0.70875   0.02353   0.00000  Uiso   1.00
C376   C     0.98571   0.69590   0.07253   0.00000  Uiso   1.00
C377   C     0.01512   0.65167   0.14607   0.00000  Uiso   1.00
C378   C     0.00459   0.80146   0.92650   0.00000  Uiso   1.00
C379   C     0.04478   0.76962   0.86433   0.00000  Uiso   1.00
C380   C     0.10031   0.78459   0.84051   0.00000  Uiso   1.00
C381   C     0.19604   0.79171   0.77976   0.00000  Uiso   1.00
C382   C     0.96868   0.87562   0.03026   0.00000  Uiso   1.00
C383   C     0.89143   0.90965   0.03036   0.00000  Uiso   1.00
C384   C     0.83935   0.97766   0.06278   0.00000  Uiso   1.00
C385   C     0.77189   0.99892   0.05680   0.00000  Uiso   1.00
C386   C     0.97664   0.81357   0.05007   0.00000  Uiso   1.00
C387   C     0.99621   0.80080   0.09906   0.00000  Uiso   1.00
C388   C     0.00050   0.74116   0.10968   0.00000  Uiso   1.00
C389   C     0.01935   0.84664   0.96358   0.00000  Uiso   1.00
C390   C     0.07484   0.86167   0.93985   0.00000  Uiso   1.00
C391   C     0.11510   0.82986   0.87765   0.00000  Uiso   1.00
H392   H     0.93001   0.75725   0.93313   0.00000  Uiso   1.00
H393   H     0.79787   0.85063   0.95856   0.00000  Uiso   1.00
H394   H     0.95472   0.67379   0.99483   0.00000  Uiso   1.00
H395   H     0.03334   0.73465   0.83565   0.00000  Uiso   1.00
H396   H     0.65787   0.97408   0.00312   0.00000  Uiso   1.00
H397   H     0.98862   0.60119   0.07959   0.00000  Uiso   1.00
H398   H     0.15440   0.72953   0.74392   0.00000  Uiso   1.00
H399   H     0.98018   0.91081   0.05913   0.00000  Uiso   1.00
H400   H     0.85079   0.01262   0.09147   0.00000  Uiso   1.00
H401   H     0.00764   0.83578   0.12774   0.00000  Uiso   1.00
H402   H     0.08625   0.89664   0.96856   0.00000  Uiso   1.00
H403   H     0.70082   0.10556   0.11099   0.00000  Uiso   1.00
H404   H     0.03157   0.73266   0.18746   0.00000  Uiso   1.00
H405   H     0.19735   0.86100   0.85180   0.00000  Uiso   1.00
O406   O     0.59331   0.10402   0.07607   0.00000  Uiso   1.00
O407   O     0.02726   0.61479   0.17639   0.00000  Uiso   1.00
O408   O     0.24475   0.78317   0.73600   0.00000  Uiso   1.00
N409   N     0.68574   0.99106   0.02406   0.00000  Uiso   1.00
N410   N     0.99496   0.64243   0.09556   0.00000  Uiso   1.00
N411   N     0.14996   0.76240   0.78174   0.00000  Uiso   1.00
N412   N     0.70885   0.06180   0.08210   0.00000  Uiso   1.00
N413   N     0.01807   0.71318   0.15361   0.00000  Uiso   1.00
N414   N     0.17307   0.83314   0.83979   0.00000  Uiso   1.00
C415   C     0.71687   0.32890   0.96495   0.00000  Uiso   1.00
C416   C     0.66834   0.40628   0.98412   0.00000  Uiso   1.00
C417   C     0.60503   0.44588   0.03544   0.00000  Uiso   1.00
C418   C     0.56838   0.51579   0.04497   0.00000  Uiso   1.00
C419   C     0.48907   0.63150   0.08086   0.00000  Uiso   1.00
C420   C     0.72195   0.29843   0.90020   0.00000  Uiso   1.00
C421   C     0.70372   0.24734   0.88097   0.00000  Uiso   1.00
C422   C     0.71221   0.22645   0.81986   0.00000  Uiso   1.00
C423   C     0.71619   0.17467   0.72546   0.00000  Uiso   1.00
C424   C     0.79288   0.31883   0.95958   0.00000  Uiso   1.00
C425   C     0.83430   0.28488   0.99026   0.00000  Uiso   1.00
C426   C     0.90252   0.28116   0.97913   0.00000  Uiso   1.00
C427   C     0.01663   0.26107   0.97693   0.00000  Uiso   1.00
C428   C     0.76437   0.38265   0.89062   0.00000  Uiso   1.00
C429   C     0.69414   0.43547   0.94374   0.00000  Uiso   1.00
C430   C     0.65758   0.50534   0.95320   0.00000  Uiso   1.00
C431   C     0.59422   0.54504   0.00453   0.00000  Uiso   1.00
C432   C     0.74775   0.32762   0.85983   0.00000  Uiso   1.00
C433   C     0.75627   0.30680   0.79873   0.00000  Uiso   1.00
C434   C     0.73806   0.25569   0.77941   0.00000  Uiso   1.00
C435   C     0.81868   0.34802   0.91921   0.00000  Uiso   1.00
C436   C     0.88685   0.34435   0.90802   0.00000  Uiso   1.00
C437   C     0.92837   0.31041   0.93868   0.00000  Uiso   1.00
H438   H     0.69679   0.30617   0.99637   0.00000  Uiso   1.00
H439   H     0.58508   0.42327   0.06667   0.00000  Uiso   1.00
H440   H     0.68376   0.22475   0.91222   0.00000  Uiso   1.00
H441   H     0.81432   0.26230   0.02150   0.00000  Uiso   1.00
H442   H     0.47258   0.56596   0.12678   0.00000  Uiso   1.00
H443   H     0.68070   0.14736   0.80112   0.00000  Uiso   1.00
H444   H     0.95600   0.22653   0.03155   0.00000  Uiso   1.00
H445   H     0.78446   0.40537   0.85918   0.00000  Uiso   1.00
H446   H     0.67756   0.52792   0.92195   0.00000  Uiso   1.00
H447   H     0.77624   0.32940   0.76750   0.00000  Uiso   1.00
H448   H     0.90680   0.36695   0.87678   0.00000  Uiso   1.00
H449   H     0.54764   0.65090   0.00932   0.00000  Uiso   1.00
H450   H     0.75576   0.23229   0.68366   0.00000  Uiso   1.00
H451   H     0.03106   0.31147   0.91409   0.00000  Uiso   1.00
O452   O     0.43819   0.68725   0.11181   0.00000  Uiso   1.00
O453   O     0.71124   0.13805   0.68455   0.00000  Uiso   1.00
O454   O     0.07243   0.24193   0.98687   0.00000  Uiso   1.00
N455   N     0.50493   0.56914   0.09053   0.00000  Uiso   1.00
N456   N     0.69949   0.17777   0.78606   0.00000  Uiso   1.00
N457   N     0.95689   0.25178   0.00148   0.00000  Uiso   1.00
N458   N     0.54532   0.61484   0.02733   0.00000  Uiso   1.00
N459   N     0.73988   0.22348   0.72286   0.00000  Uiso   1.00
N460   N     0.99728   0.29748   0.93827   0.00000  Uiso   1.00
C461   C     0.65905   0.33482   0.43848   0.00000  Uiso   1.00
C462   C     0.62856   0.40811   0.43706   0.00000  Uiso   1.00
C463   C     0.63838   0.46029   0.46889   0.00000  Uiso   1.00
C464   C     0.60605   0.52377   0.46151   0.00000  Uiso   1.00
C465   C     0.56486   0.63594   0.46509   0.00000  Uiso   1.00
C466   C     0.59368   0.32219   0.45835   0.00000  Uiso   1.00
C467   C     0.57419   0.30211   0.50807   0.00000  Uiso   1.00
C468   C     0.51250   0.29326   0.51860   0.00000  Uiso   1.00
C469   C     0.41720   0.27198   0.55520   0.00000  Uiso   1.00
C470   C     0.70358   0.28783   0.37227   0.00000  Uiso   1.00
C471   C     0.77650   0.23884   0.34963   0.00000  Uiso   1.00
C472   C     0.80734   0.20104   0.28769   0.00000  Uiso   1.00
C473   C     0.88267   0.12641   0.19065   0.00000  Uiso   1.00
C474   C     0.58416   0.35477   0.36877   0.00000  Uiso   1.00
C475   C     0.58788   0.41895   0.39920   0.00000  Uiso   1.00
C476   C     0.55552   0.48237   0.39176   0.00000  Uiso   1.00
C477   C     0.56530   0.53463   0.42358   0.00000  Uiso   1.00
C478   C     0.55300   0.33303   0.42048   0.00000  Uiso   1.00
C479   C     0.49133   0.32419   0.43094   0.00000  Uiso   1.00
C480   C     0.47175   0.30411   0.48067   0.00000  Uiso   1.00
C481   C     0.66290   0.29866   0.33441   0.00000  Uiso   1.00
C482   C     0.69363   0.26092   0.27250   0.00000  Uiso   1.00
C483   C     0.76658   0.21190   0.24976   0.00000  Uiso   1.00
H484   H     0.69072   0.32638   0.46797   0.00000  Uiso   1.00
H485   H     0.66986   0.45188   0.49820   0.00000  Uiso   1.00
H486   H     0.60569   0.29373   0.53736   0.00000  Uiso   1.00
H487   H     0.80796   0.23047   0.37894   0.00000  Uiso   1.00
H488   H     0.62878   0.59582   0.51503   0.00000  Uiso   1.00
H489   H     0.49347   0.26231   0.59760   0.00000  Uiso   1.00
H490   H     0.92001   0.12892   0.26355   0.00000  Uiso   1.00
H491   H     0.55248   0.36321   0.33929   0.00000  Uiso   1.00
H492   H     0.52405   0.49074   0.36246   0.00000  Uiso   1.00
H493   H     0.45987   0.33258   0.40162   0.00000  Uiso   1.00
H494   H     0.66214   0.26932   0.24321   0.00000  Uiso   1.00
H495   H     0.51043   0.62736   0.40486   0.00000  Uiso   1.00
H496   H     0.37512   0.29384   0.48743   0.00000  Uiso   1.00
H497   H     0.80165   0.16045   0.15338   0.00000  Uiso   1.00
O498   O     0.55337   0.69482   0.47753   0.00000  Uiso   1.00
O499   O     0.37586   0.25726   0.58585   0.00000  Uiso   1.00
O500   O     0.93546   0.08226   0.14758   0.00000  Uiso   1.00
N501   N     0.60484   0.58573   0.48591   0.00000  Uiso   1.00
N502   N     0.47833   0.27393   0.56312   0.00000  Uiso   1.00
N503   N     0.87710   0.14921   0.25081   0.00000  Uiso   1.00
N504   N     0.54116   0.60270   0.42663   0.00000  Uiso   1.00
N505   N     0.41465   0.29090   0.50384   0.00000  Uiso   1.00
N506   N     0.81341   0.16618   0.19153   0.00000  Uiso   1.00
C507   C     0.38776   0.34525   0.97981   0.00000  Uiso   1.00
C508   C     0.33497   0.42218   0.00453   0.00000  Uiso   1.00
C509   C     0.34277   0.47059   0.97981   0.00000  Uiso   1.00
C510   C     0.28855   0.53841   0.00916   0.00000  Uiso   1.00
C511   C     0.21570   0.65502   0.03962   0.00000  Uiso   1.00
C512   C     0.40993   0.32778   0.03245   0.00000  Uiso   1.00
C513   C     0.48076   0.29681   0.03119   0.00000  Uiso   1.00
C514   C     0.48964   0.28516   0.08404   0.00000  Uiso   1.00
C515   C     0.53317   0.25518   0.15783   0.00000  Uiso   1.00
C516   C     0.34289   0.30934   0.96830   0.00000  Uiso   1.00
C517   C     0.35736   0.26285   0.91311   0.00000  Uiso   1.00
C518   C     0.30981   0.23566   0.91196   0.00000  Uiso   1.00
C519   C     0.24924   0.17704   0.88614   0.00000  Uiso   1.00
C520   C     0.27758   0.37962   0.07588   0.00000  Uiso   1.00
C521   C     0.27513   0.44085   0.05671   0.00000  Uiso   1.00
C522   C     0.22087   0.50861   0.08610   0.00000  Uiso   1.00
C523   C     0.22860   0.55711   0.06143   0.00000  Uiso   1.00
C524   C     0.35009   0.34645   0.08463   0.00000  Uiso   1.00
C525   C     0.35886   0.33484   0.13749   0.00000  Uiso   1.00
C526   C     0.42969   0.30386   0.13632   0.00000  Uiso   1.00
C527   C     0.28304   0.32801   0.02048   0.00000  Uiso   1.00
C528   C     0.23546   0.30088   0.01941   0.00000  Uiso   1.00
C529   C     0.24985   0.25435   0.96423   0.00000  Uiso   1.00
H530   H     0.43436   0.33072   0.93919   0.00000  Uiso   1.00
H531   H     0.38910   0.45612   0.93943   0.00000  Uiso   1.00
H532   H     0.52706   0.28237   0.99080   0.00000  Uiso   1.00
H533   H     0.40368   0.24841   0.87274   0.00000  Uiso   1.00
H534   H     0.31254   0.60339   0.96273   0.00000  Uiso   1.00
H535   H     0.60345   0.23700   0.07104   0.00000  Uiso   1.00
H536   H     0.34328   0.16540   0.82209   0.00000  Uiso   1.00
H537   H     0.23099   0.39415   0.11651   0.00000  Uiso   1.00
H538   H     0.17457   0.52304   0.12649   0.00000  Uiso   1.00
H539   H     0.31254   0.34929   0.17786   0.00000  Uiso   1.00
H540   H     0.18915   0.31533   0.05980   0.00000  Uiso   1.00
H541   H     0.13842   0.65771   0.11455   0.00000  Uiso   1.00
H542   H     0.42934   0.29131   0.22286   0.00000  Uiso   1.00
H543   H     0.16916   0.21972   0.97391   0.00000  Uiso   1.00
O544   O     0.19205   0.71419   0.04201   0.00000  Uiso   1.00
O545   O     0.57371   0.23349   0.18411   0.00000  Uiso   1.00
O546   O     0.23236   0.13956   0.85749   0.00000  Uiso   1.00
N547   N     0.27930   0.59848   0.99708   0.00000  Uiso   1.00
N548   N     0.55128   0.25594   0.09835   0.00000  Uiso   1.00
N549   N     0.30805   0.18899   0.86561   0.00000  Uiso   1.00
N550   N     0.18561   0.62771   0.07878   0.00000  Uiso   1.00
N551   N     0.45759   0.28516   0.18005   0.00000  Uiso   1.00
N552   N     0.21436   0.21821   0.94730   0.00000  Uiso   1.00
