data_job_02440
_audit_creation_date              2018-12-19
_audit_creation_method            'Materials Studio'
_symmetry_space_group_name_H-M    'P1'
_symmetry_Int_Tables_number       1
_symmetry_cell_setting            triclinic
loop_
_symmetry_equiv_pos_as_xyz
  x,y,z
_cell_length_a                    15.1743
_cell_length_b                    16.8256
_cell_length_c                    23.2090
_cell_angle_alpha                 90.0000
_cell_angle_beta                  112.1628
_cell_angle_gamma                 90.0000
loop_
_atom_site_label
_atom_site_type_symbol
_atom_site_fract_x
_atom_site_fract_y
_atom_site_fract_z
_atom_site_U_iso_or_equiv
_atom_site_adp_type
_atom_site_occupancy
C1     C     0.23170   0.12313   0.80105   0.00000  Uiso   1.00
C2     C     0.32856   0.13110   0.85399   0.00000  Uiso   1.00
C3     C     0.36679   0.20070   0.88564   0.00000  Uiso   1.00
C4     C     0.45644   0.19562   0.93261   0.00000  Uiso   1.00
C5     C     0.59933   0.21898   0.01255   0.00000  Uiso   1.00
C6     C     0.25089   0.08799   0.74634   0.00000  Uiso   1.00
C7     C     0.22379   0.12133   0.68749   0.00000  Uiso   1.00
C8     C     0.24805   0.07995   0.64384   0.00000  Uiso   1.00
C9     C     0.27028   0.03634   0.55664   0.00000  Uiso   1.00
C10    C     0.17819   0.05931   0.82141   0.00000  Uiso   1.00
C11    C     0.08995   0.06854   0.82565   0.00000  Uiso   1.00
C12    C     0.05299   0.00300   0.84519   0.00000  Uiso   1.00
C13    C     0.96234   0.91487   0.87455   0.00000  Uiso   1.00
C14    C     0.32295   0.99035   0.82819   0.00000  Uiso   1.00
C15    C     0.37813   0.05898   0.86873   0.00000  Uiso   1.00
C16    C     0.46775   0.05379   0.91567   0.00000  Uiso   1.00
C17    C     0.50610   0.12337   0.94738   0.00000  Uiso   1.00
C18    C     0.30045   0.01586   0.76108   0.00000  Uiso   1.00
C19    C     0.32475   0.97442   0.71751   0.00000  Uiso   1.00
C20    C     0.29770   0.00770   0.65861   0.00000  Uiso   1.00
C21    C     0.22775   0.98719   0.83615   0.00000  Uiso   1.00
C22    C     0.19091   0.92163   0.85568   0.00000  Uiso   1.00
C23    C     0.10264   0.93075   0.85996   0.00000  Uiso   1.00
H24    H     0.19311   0.17928   0.78957   0.00000  Uiso   1.00
H25    H     0.32841   0.25651   0.87421   0.00000  Uiso   1.00
H26    H     0.18543   0.17714   0.67609   0.00000  Uiso   1.00
H27    H     0.05161   0.12436   0.81424   0.00000  Uiso   1.00
H28    H     0.50029   0.31032   0.97454   0.00000  Uiso   1.00
H29    H     0.19877   0.14297   0.55678   0.00000  Uiso   1.00
H30    H     0.91659   0.03166   0.84810   0.00000  Uiso   1.00
H31    H     0.36154   0.93419   0.83966   0.00000  Uiso   1.00
H32    H     0.50609   0.99797   0.92706   0.00000  Uiso   1.00
H33    H     0.36310   0.91861   0.72894   0.00000  Uiso   1.00
H34    H     0.22929   0.86582   0.86709   0.00000  Uiso   1.00
H35    H     0.64450   0.10049   0.01743   0.00000  Uiso   1.00
H36    H     0.34297   0.93313   0.59967   0.00000  Uiso   1.00
H37    H     0.06080   0.82182   0.89099   0.00000  Uiso   1.00
O38    O     0.66445   0.25179   0.05256   0.00000  Uiso   1.00
O39    O     0.26885   0.03222   0.50448   0.00000  Uiso   1.00
O40    O     0.89865   0.88619   0.88668   0.00000  Uiso   1.00
N41    N     0.51438   0.25218   0.97265   0.00000  Uiso   1.00
N42    N     0.23249   0.09572   0.58207   0.00000  Uiso   1.00
N43    N     0.96867   0.99165   0.85441   0.00000  Uiso   1.00
N44    N     0.59198   0.13927   0.99573   0.00000  Uiso   1.00
N45    N     0.31009   0.98281   0.60515   0.00000  Uiso   1.00
N46    N     0.04627   0.87874   0.87749   0.00000  Uiso   1.00
C47    C     0.73170   0.62313   0.80105   0.00000  Uiso   1.00
C48    C     0.82856   0.63110   0.85399   0.00000  Uiso   1.00
C49    C     0.86679   0.70070   0.88564   0.00000  Uiso   1.00
C50    C     0.95644   0.69562   0.93261   0.00000  Uiso   1.00
C51    C     0.09933   0.71898   0.01255   0.00000  Uiso   1.00
C52    C     0.75089   0.58799   0.74634   0.00000  Uiso   1.00
C53    C     0.72379   0.62133   0.68749   0.00000  Uiso   1.00
C54    C     0.74805   0.57995   0.64384   0.00000  Uiso   1.00
C55    C     0.77028   0.53634   0.55664   0.00000  Uiso   1.00
C56    C     0.67819   0.55931   0.82141   0.00000  Uiso   1.00
C57    C     0.58995   0.56854   0.82565   0.00000  Uiso   1.00
C58    C     0.55299   0.50300   0.84519   0.00000  Uiso   1.00
C59    C     0.46234   0.41487   0.87455   0.00000  Uiso   1.00
C60    C     0.82295   0.49035   0.82819   0.00000  Uiso   1.00
C61    C     0.87813   0.55898   0.86873   0.00000  Uiso   1.00
C62    C     0.96775   0.55379   0.91567   0.00000  Uiso   1.00
C63    C     0.00610   0.62337   0.94738   0.00000  Uiso   1.00
C64    C     0.80045   0.51586   0.76108   0.00000  Uiso   1.00
C65    C     0.82475   0.47442   0.71751   0.00000  Uiso   1.00
C66    C     0.79770   0.50770   0.65861   0.00000  Uiso   1.00
C67    C     0.72775   0.48719   0.83615   0.00000  Uiso   1.00
C68    C     0.69091   0.42163   0.85568   0.00000  Uiso   1.00
C69    C     0.60264   0.43075   0.85996   0.00000  Uiso   1.00
H70    H     0.69311   0.67928   0.78957   0.00000  Uiso   1.00
H71    H     0.82841   0.75651   0.87421   0.00000  Uiso   1.00
H72    H     0.68543   0.67714   0.67609   0.00000  Uiso   1.00
H73    H     0.55161   0.62436   0.81424   0.00000  Uiso   1.00
H74    H     0.00029   0.81032   0.97454   0.00000  Uiso   1.00
H75    H     0.69877   0.64297   0.55678   0.00000  Uiso   1.00
H76    H     0.41659   0.53166   0.84810   0.00000  Uiso   1.00
H77    H     0.86154   0.43419   0.83966   0.00000  Uiso   1.00
H78    H     0.00609   0.49797   0.92706   0.00000  Uiso   1.00
H79    H     0.86310   0.41861   0.72894   0.00000  Uiso   1.00
H80    H     0.72929   0.36582   0.86709   0.00000  Uiso   1.00
H81    H     0.14450   0.60049   0.01743   0.00000  Uiso   1.00
H82    H     0.84297   0.43313   0.59967   0.00000  Uiso   1.00
H83    H     0.56080   0.32182   0.89099   0.00000  Uiso   1.00
O84    O     0.16445   0.75179   0.05256   0.00000  Uiso   1.00
O85    O     0.76885   0.53222   0.50448   0.00000  Uiso   1.00
O86    O     0.39865   0.38619   0.88668   0.00000  Uiso   1.00
N87    N     0.01438   0.75218   0.97265   0.00000  Uiso   1.00
N88    N     0.73249   0.59572   0.58207   0.00000  Uiso   1.00
N89    N     0.46867   0.49165   0.85441   0.00000  Uiso   1.00
N90    N     0.09198   0.63927   0.99573   0.00000  Uiso   1.00
N91    N     0.81009   0.48281   0.60515   0.00000  Uiso   1.00
N92    N     0.54627   0.37874   0.87749   0.00000  Uiso   1.00
C93    C     0.76830   0.12313   0.69895   0.00000  Uiso   1.00
C94    C     0.67144   0.13110   0.64601   0.00000  Uiso   1.00
C95    C     0.63321   0.20070   0.61436   0.00000  Uiso   1.00
C96    C     0.54356   0.19562   0.56739   0.00000  Uiso   1.00
C97    C     0.40067   0.21898   0.48745   0.00000  Uiso   1.00
C98    C     0.74911   0.08799   0.75366   0.00000  Uiso   1.00
C99    C     0.77621   0.12133   0.81251   0.00000  Uiso   1.00
C100   C     0.75195   0.07995   0.85616   0.00000  Uiso   1.00
C101   C     0.72972   0.03634   0.94336   0.00000  Uiso   1.00
C102   C     0.82181   0.05931   0.67859   0.00000  Uiso   1.00
C103   C     0.91005   0.06854   0.67435   0.00000  Uiso   1.00
C104   C     0.94701   0.00300   0.65481   0.00000  Uiso   1.00
C105   C     0.03766   0.91487   0.62545   0.00000  Uiso   1.00
C106   C     0.67705   0.99035   0.67181   0.00000  Uiso   1.00
C107   C     0.62187   0.05898   0.63127   0.00000  Uiso   1.00
C108   C     0.53225   0.05379   0.58433   0.00000  Uiso   1.00
C109   C     0.49390   0.12337   0.55262   0.00000  Uiso   1.00
C110   C     0.69955   0.01586   0.73892   0.00000  Uiso   1.00
C111   C     0.67525   0.97442   0.78249   0.00000  Uiso   1.00
C112   C     0.70230   0.00770   0.84139   0.00000  Uiso   1.00
C113   C     0.77225   0.98719   0.66385   0.00000  Uiso   1.00
C114   C     0.80909   0.92163   0.64432   0.00000  Uiso   1.00
C115   C     0.89736   0.93075   0.64004   0.00000  Uiso   1.00
H116   H     0.80689   0.17928   0.71043   0.00000  Uiso   1.00
H117   H     0.67159   0.25651   0.62579   0.00000  Uiso   1.00
H118   H     0.81457   0.17714   0.82391   0.00000  Uiso   1.00
H119   H     0.94839   0.12436   0.68576   0.00000  Uiso   1.00
H120   H     0.49971   0.31032   0.52546   0.00000  Uiso   1.00
H121   H     0.80123   0.14297   0.94322   0.00000  Uiso   1.00
H122   H     0.08341   0.03166   0.65190   0.00000  Uiso   1.00
H123   H     0.63846   0.93419   0.66034   0.00000  Uiso   1.00
H124   H     0.49391   0.99797   0.57294   0.00000  Uiso   1.00
H125   H     0.63690   0.91861   0.77106   0.00000  Uiso   1.00
H126   H     0.77071   0.86582   0.63291   0.00000  Uiso   1.00
H127   H     0.35550   0.10049   0.48257   0.00000  Uiso   1.00
H128   H     0.65703   0.93313   0.90033   0.00000  Uiso   1.00
H129   H     0.93920   0.82182   0.60901   0.00000  Uiso   1.00
O130   O     0.33555   0.25179   0.44744   0.00000  Uiso   1.00
O131   O     0.73115   0.03222   0.99552   0.00000  Uiso   1.00
O132   O     0.10135   0.88619   0.61332   0.00000  Uiso   1.00
N133   N     0.48562   0.25218   0.52735   0.00000  Uiso   1.00
N134   N     0.76751   0.09572   0.91793   0.00000  Uiso   1.00
N135   N     0.03133   0.99165   0.64559   0.00000  Uiso   1.00
N136   N     0.40802   0.13927   0.50427   0.00000  Uiso   1.00
N137   N     0.68991   0.98281   0.89485   0.00000  Uiso   1.00
N138   N     0.95373   0.87874   0.62251   0.00000  Uiso   1.00
C139   C     0.26830   0.62313   0.69895   0.00000  Uiso   1.00
C140   C     0.17144   0.63110   0.64601   0.00000  Uiso   1.00
C141   C     0.13321   0.70070   0.61436   0.00000  Uiso   1.00
C142   C     0.04356   0.69562   0.56739   0.00000  Uiso   1.00
C143   C     0.90067   0.71898   0.48745   0.00000  Uiso   1.00
C144   C     0.24911   0.58799   0.75366   0.00000  Uiso   1.00
C145   C     0.27621   0.62133   0.81251   0.00000  Uiso   1.00
C146   C     0.25195   0.57995   0.85616   0.00000  Uiso   1.00
C147   C     0.22972   0.53634   0.94336   0.00000  Uiso   1.00
C148   C     0.32181   0.55931   0.67859   0.00000  Uiso   1.00
C149   C     0.41005   0.56854   0.67435   0.00000  Uiso   1.00
C150   C     0.44701   0.50300   0.65481   0.00000  Uiso   1.00
C151   C     0.53766   0.41487   0.62545   0.00000  Uiso   1.00
C152   C     0.17705   0.49035   0.67181   0.00000  Uiso   1.00
C153   C     0.12187   0.55898   0.63127   0.00000  Uiso   1.00
C154   C     0.03225   0.55379   0.58433   0.00000  Uiso   1.00
C155   C     0.99390   0.62337   0.55262   0.00000  Uiso   1.00
C156   C     0.19955   0.51586   0.73892   0.00000  Uiso   1.00
C157   C     0.17525   0.47442   0.78249   0.00000  Uiso   1.00
C158   C     0.20230   0.50770   0.84139   0.00000  Uiso   1.00
C159   C     0.27225   0.48719   0.66385   0.00000  Uiso   1.00
C160   C     0.30909   0.42163   0.64432   0.00000  Uiso   1.00
C161   C     0.39736   0.43075   0.64004   0.00000  Uiso   1.00
H162   H     0.30689   0.67928   0.71043   0.00000  Uiso   1.00
H163   H     0.17159   0.75651   0.62579   0.00000  Uiso   1.00
H164   H     0.31457   0.67714   0.82391   0.00000  Uiso   1.00
H165   H     0.44839   0.62436   0.68576   0.00000  Uiso   1.00
H166   H     0.99971   0.81032   0.52546   0.00000  Uiso   1.00
H167   H     0.30123   0.64297   0.94322   0.00000  Uiso   1.00
H168   H     0.58341   0.53166   0.65190   0.00000  Uiso   1.00
H169   H     0.13846   0.43419   0.66034   0.00000  Uiso   1.00
H170   H     0.99391   0.49797   0.57294   0.00000  Uiso   1.00
H171   H     0.13690   0.41861   0.77106   0.00000  Uiso   1.00
H172   H     0.27071   0.36582   0.63291   0.00000  Uiso   1.00
H173   H     0.85550   0.60049   0.48257   0.00000  Uiso   1.00
H174   H     0.15703   0.43313   0.90033   0.00000  Uiso   1.00
H175   H     0.43920   0.32182   0.60901   0.00000  Uiso   1.00
O176   O     0.83555   0.75179   0.44744   0.00000  Uiso   1.00
O177   O     0.23115   0.53222   0.99552   0.00000  Uiso   1.00
O178   O     0.60135   0.38619   0.61332   0.00000  Uiso   1.00
N179   N     0.98562   0.75218   0.52735   0.00000  Uiso   1.00
N180   N     0.26751   0.59572   0.91793   0.00000  Uiso   1.00
N181   N     0.53133   0.49165   0.64559   0.00000  Uiso   1.00
N182   N     0.90802   0.63927   0.50427   0.00000  Uiso   1.00
N183   N     0.18991   0.48281   0.89485   0.00000  Uiso   1.00
N184   N     0.45373   0.37874   0.62251   0.00000  Uiso   1.00
C185   C     0.76830   0.87687   0.19895   0.00000  Uiso   1.00
C186   C     0.67144   0.86890   0.14601   0.00000  Uiso   1.00
C187   C     0.63321   0.79930   0.11436   0.00000  Uiso   1.00
C188   C     0.54356   0.80438   0.06739   0.00000  Uiso   1.00
C189   C     0.40067   0.78102   0.98745   0.00000  Uiso   1.00
C190   C     0.74911   0.91201   0.25366   0.00000  Uiso   1.00
C191   C     0.77621   0.87867   0.31251   0.00000  Uiso   1.00
C192   C     0.75195   0.92005   0.35616   0.00000  Uiso   1.00
C193   C     0.72972   0.96366   0.44336   0.00000  Uiso   1.00
C194   C     0.82181   0.94069   0.17859   0.00000  Uiso   1.00
C195   C     0.91005   0.93146   0.17435   0.00000  Uiso   1.00
C196   C     0.94701   0.99700   0.15481   0.00000  Uiso   1.00
C197   C     0.03766   0.08513   0.12545   0.00000  Uiso   1.00
C198   C     0.67705   0.00965   0.17181   0.00000  Uiso   1.00
C199   C     0.62187   0.94102   0.13127   0.00000  Uiso   1.00
C200   C     0.53225   0.94621   0.08433   0.00000  Uiso   1.00
C201   C     0.49390   0.87663   0.05262   0.00000  Uiso   1.00
C202   C     0.69955   0.98414   0.23892   0.00000  Uiso   1.00
C203   C     0.67525   0.02558   0.28249   0.00000  Uiso   1.00
C204   C     0.70230   0.99230   0.34139   0.00000  Uiso   1.00
C205   C     0.77225   0.01281   0.16385   0.00000  Uiso   1.00
C206   C     0.80909   0.07837   0.14432   0.00000  Uiso   1.00
C207   C     0.89736   0.06925   0.14004   0.00000  Uiso   1.00
H208   H     0.80689   0.82072   0.21043   0.00000  Uiso   1.00
H209   H     0.67159   0.74349   0.12579   0.00000  Uiso   1.00
H210   H     0.81457   0.82286   0.32391   0.00000  Uiso   1.00
H211   H     0.94839   0.87564   0.18576   0.00000  Uiso   1.00
H212   H     0.49971   0.68968   0.02546   0.00000  Uiso   1.00
H213   H     0.80123   0.85703   0.44322   0.00000  Uiso   1.00
H214   H     0.08341   0.96834   0.15190   0.00000  Uiso   1.00
H215   H     0.63846   0.06581   0.16034   0.00000  Uiso   1.00
H216   H     0.49391   0.00203   0.07294   0.00000  Uiso   1.00
H217   H     0.63690   0.08139   0.27106   0.00000  Uiso   1.00
H218   H     0.77071   0.13418   0.13291   0.00000  Uiso   1.00
H219   H     0.35550   0.89951   0.98257   0.00000  Uiso   1.00
H220   H     0.65703   0.06687   0.40033   0.00000  Uiso   1.00
H221   H     0.93920   0.17818   0.10901   0.00000  Uiso   1.00
O222   O     0.33555   0.74821   0.94744   0.00000  Uiso   1.00
O223   O     0.73115   0.96778   0.49552   0.00000  Uiso   1.00
O224   O     0.10135   0.11381   0.11332   0.00000  Uiso   1.00
N225   N     0.48562   0.74782   0.02735   0.00000  Uiso   1.00
N226   N     0.76751   0.90428   0.41793   0.00000  Uiso   1.00
N227   N     0.03133   0.00835   0.14559   0.00000  Uiso   1.00
N228   N     0.40802   0.86073   0.00427   0.00000  Uiso   1.00
N229   N     0.68991   0.01719   0.39485   0.00000  Uiso   1.00
N230   N     0.95373   0.12126   0.12251   0.00000  Uiso   1.00
C231   C     0.26830   0.37687   0.19895   0.00000  Uiso   1.00
C232   C     0.17144   0.36890   0.14601   0.00000  Uiso   1.00
C233   C     0.13321   0.29930   0.11436   0.00000  Uiso   1.00
C234   C     0.04356   0.30438   0.06739   0.00000  Uiso   1.00
C235   C     0.90067   0.28102   0.98745   0.00000  Uiso   1.00
C236   C     0.24911   0.41201   0.25366   0.00000  Uiso   1.00
C237   C     0.27621   0.37867   0.31251   0.00000  Uiso   1.00
C238   C     0.25195   0.42005   0.35616   0.00000  Uiso   1.00
C239   C     0.22972   0.46366   0.44336   0.00000  Uiso   1.00
C240   C     0.32181   0.44069   0.17859   0.00000  Uiso   1.00
C241   C     0.41005   0.43146   0.17435   0.00000  Uiso   1.00
C242   C     0.44701   0.49700   0.15481   0.00000  Uiso   1.00
C243   C     0.53766   0.58513   0.12545   0.00000  Uiso   1.00
C244   C     0.17705   0.50965   0.17181   0.00000  Uiso   1.00
C245   C     0.12187   0.44102   0.13127   0.00000  Uiso   1.00
C246   C     0.03225   0.44621   0.08433   0.00000  Uiso   1.00
C247   C     0.99390   0.37663   0.05262   0.00000  Uiso   1.00
C248   C     0.19955   0.48414   0.23892   0.00000  Uiso   1.00
C249   C     0.17525   0.52558   0.28249   0.00000  Uiso   1.00
C250   C     0.20230   0.49230   0.34139   0.00000  Uiso   1.00
C251   C     0.27225   0.51281   0.16385   0.00000  Uiso   1.00
C252   C     0.30909   0.57837   0.14432   0.00000  Uiso   1.00
C253   C     0.39736   0.56925   0.14004   0.00000  Uiso   1.00
H254   H     0.30689   0.32072   0.21043   0.00000  Uiso   1.00
H255   H     0.17159   0.24349   0.12579   0.00000  Uiso   1.00
H256   H     0.31457   0.32286   0.32391   0.00000  Uiso   1.00
H257   H     0.44839   0.37564   0.18576   0.00000  Uiso   1.00
H258   H     0.99971   0.18968   0.02546   0.00000  Uiso   1.00
H259   H     0.30123   0.35703   0.44322   0.00000  Uiso   1.00
H260   H     0.58341   0.46834   0.15190   0.00000  Uiso   1.00
H261   H     0.13846   0.56581   0.16034   0.00000  Uiso   1.00
H262   H     0.99391   0.50203   0.07294   0.00000  Uiso   1.00
H263   H     0.13690   0.58139   0.27106   0.00000  Uiso   1.00
H264   H     0.27071   0.63418   0.13291   0.00000  Uiso   1.00
H265   H     0.85550   0.39951   0.98257   0.00000  Uiso   1.00
H266   H     0.15703   0.56687   0.40033   0.00000  Uiso   1.00
H267   H     0.43920   0.67818   0.10901   0.00000  Uiso   1.00
O268   O     0.83555   0.24821   0.94744   0.00000  Uiso   1.00
O269   O     0.23115   0.46778   0.49552   0.00000  Uiso   1.00
O270   O     0.60135   0.61381   0.11332   0.00000  Uiso   1.00
N271   N     0.98562   0.24782   0.02735   0.00000  Uiso   1.00
N272   N     0.26751   0.40428   0.41793   0.00000  Uiso   1.00
N273   N     0.53133   0.50835   0.14559   0.00000  Uiso   1.00
N274   N     0.90802   0.36073   0.00427   0.00000  Uiso   1.00
N275   N     0.18991   0.51719   0.39485   0.00000  Uiso   1.00
N276   N     0.45373   0.62126   0.12251   0.00000  Uiso   1.00
C277   C     0.23170   0.87687   0.30105   0.00000  Uiso   1.00
C278   C     0.32856   0.86890   0.35399   0.00000  Uiso   1.00
C279   C     0.36679   0.79930   0.38564   0.00000  Uiso   1.00
C280   C     0.45644   0.80438   0.43261   0.00000  Uiso   1.00
C281   C     0.59933   0.78102   0.51255   0.00000  Uiso   1.00
C282   C     0.25089   0.91201   0.24634   0.00000  Uiso   1.00
C283   C     0.22379   0.87867   0.18749   0.00000  Uiso   1.00
C284   C     0.24805   0.92005   0.14384   0.00000  Uiso   1.00
C285   C     0.27028   0.96366   0.05664   0.00000  Uiso   1.00
C286   C     0.17819   0.94069   0.32141   0.00000  Uiso   1.00
C287   C     0.08995   0.93146   0.32565   0.00000  Uiso   1.00
C288   C     0.05299   0.99700   0.34519   0.00000  Uiso   1.00
C289   C     0.96234   0.08513   0.37455   0.00000  Uiso   1.00
C290   C     0.32295   0.00965   0.32819   0.00000  Uiso   1.00
C291   C     0.37813   0.94102   0.36873   0.00000  Uiso   1.00
C292   C     0.46775   0.94621   0.41567   0.00000  Uiso   1.00
C293   C     0.50610   0.87663   0.44738   0.00000  Uiso   1.00
C294   C     0.30045   0.98414   0.26108   0.00000  Uiso   1.00
C295   C     0.32475   0.02558   0.21751   0.00000  Uiso   1.00
C296   C     0.29770   0.99230   0.15861   0.00000  Uiso   1.00
C297   C     0.22775   0.01281   0.33615   0.00000  Uiso   1.00
C298   C     0.19091   0.07837   0.35568   0.00000  Uiso   1.00
C299   C     0.10264   0.06925   0.35996   0.00000  Uiso   1.00
H300   H     0.19311   0.82072   0.28957   0.00000  Uiso   1.00
H301   H     0.32841   0.74349   0.37421   0.00000  Uiso   1.00
H302   H     0.18543   0.82286   0.17609   0.00000  Uiso   1.00
H303   H     0.05161   0.87564   0.31424   0.00000  Uiso   1.00
H304   H     0.50029   0.68968   0.47454   0.00000  Uiso   1.00
H305   H     0.19877   0.85703   0.05678   0.00000  Uiso   1.00
H306   H     0.91659   0.96834   0.34810   0.00000  Uiso   1.00
H307   H     0.36154   0.06581   0.33966   0.00000  Uiso   1.00
H308   H     0.50609   0.00203   0.42706   0.00000  Uiso   1.00
H309   H     0.36310   0.08139   0.22894   0.00000  Uiso   1.00
H310   H     0.22929   0.13418   0.36709   0.00000  Uiso   1.00
H311   H     0.64450   0.89951   0.51743   0.00000  Uiso   1.00
H312   H     0.34297   0.06687   0.09967   0.00000  Uiso   1.00
H313   H     0.06080   0.17818   0.39099   0.00000  Uiso   1.00
O314   O     0.66445   0.74821   0.55256   0.00000  Uiso   1.00
O315   O     0.26885   0.96778   0.00448   0.00000  Uiso   1.00
O316   O     0.89865   0.11381   0.38668   0.00000  Uiso   1.00
N317   N     0.51438   0.74782   0.47265   0.00000  Uiso   1.00
N318   N     0.23249   0.90428   0.08207   0.00000  Uiso   1.00
N319   N     0.96867   0.00835   0.35441   0.00000  Uiso   1.00
N320   N     0.59198   0.86073   0.49573   0.00000  Uiso   1.00
N321   N     0.31009   0.01719   0.10515   0.00000  Uiso   1.00
N322   N     0.04627   0.12126   0.37749   0.00000  Uiso   1.00
C323   C     0.73170   0.37687   0.30105   0.00000  Uiso   1.00
C324   C     0.82856   0.36890   0.35399   0.00000  Uiso   1.00
C325   C     0.86679   0.29930   0.38564   0.00000  Uiso   1.00
C326   C     0.95644   0.30438   0.43261   0.00000  Uiso   1.00
C327   C     0.09933   0.28102   0.51255   0.00000  Uiso   1.00
C328   C     0.75089   0.41201   0.24634   0.00000  Uiso   1.00
C329   C     0.72379   0.37867   0.18749   0.00000  Uiso   1.00
C330   C     0.74805   0.42005   0.14384   0.00000  Uiso   1.00
C331   C     0.77028   0.46366   0.05664   0.00000  Uiso   1.00
C332   C     0.67819   0.44069   0.32141   0.00000  Uiso   1.00
C333   C     0.58995   0.43146   0.32565   0.00000  Uiso   1.00
C334   C     0.55299   0.49700   0.34519   0.00000  Uiso   1.00
C335   C     0.46234   0.58513   0.37455   0.00000  Uiso   1.00
C336   C     0.82295   0.50965   0.32819   0.00000  Uiso   1.00
C337   C     0.87813   0.44102   0.36873   0.00000  Uiso   1.00
C338   C     0.96775   0.44621   0.41567   0.00000  Uiso   1.00
C339   C     0.00610   0.37663   0.44738   0.00000  Uiso   1.00
C340   C     0.80045   0.48414   0.26108   0.00000  Uiso   1.00
C341   C     0.82475   0.52558   0.21751   0.00000  Uiso   1.00
C342   C     0.79770   0.49230   0.15861   0.00000  Uiso   1.00
C343   C     0.72775   0.51281   0.33615   0.00000  Uiso   1.00
C344   C     0.69091   0.57837   0.35568   0.00000  Uiso   1.00
C345   C     0.60264   0.56925   0.35996   0.00000  Uiso   1.00
H346   H     0.69311   0.32072   0.28957   0.00000  Uiso   1.00
H347   H     0.82841   0.24349   0.37421   0.00000  Uiso   1.00
H348   H     0.68543   0.32286   0.17609   0.00000  Uiso   1.00
H349   H     0.55161   0.37564   0.31424   0.00000  Uiso   1.00
H350   H     0.00029   0.18968   0.47454   0.00000  Uiso   1.00
H351   H     0.69877   0.35703   0.05678   0.00000  Uiso   1.00
H352   H     0.41659   0.46834   0.34810   0.00000  Uiso   1.00
H353   H     0.86154   0.56581   0.33966   0.00000  Uiso   1.00
H354   H     0.00609   0.50203   0.42706   0.00000  Uiso   1.00
H355   H     0.86310   0.58139   0.22894   0.00000  Uiso   1.00
H356   H     0.72929   0.63418   0.36709   0.00000  Uiso   1.00
H357   H     0.14450   0.39951   0.51743   0.00000  Uiso   1.00
H358   H     0.84297   0.56687   0.09967   0.00000  Uiso   1.00
H359   H     0.56080   0.67818   0.39099   0.00000  Uiso   1.00
O360   O     0.16445   0.24821   0.55256   0.00000  Uiso   1.00
O361   O     0.76885   0.46778   0.00448   0.00000  Uiso   1.00
O362   O     0.39865   0.61381   0.38668   0.00000  Uiso   1.00
N363   N     0.01438   0.24782   0.47265   0.00000  Uiso   1.00
N364   N     0.73249   0.40428   0.08207   0.00000  Uiso   1.00
N365   N     0.46867   0.50835   0.35441   0.00000  Uiso   1.00
N366   N     0.09198   0.36073   0.49573   0.00000  Uiso   1.00
N367   N     0.81009   0.51719   0.10515   0.00000  Uiso   1.00
N368   N     0.54627   0.62126   0.37749   0.00000  Uiso   1.00
