data_job_06846
_audit_creation_date              2018-12-19
_audit_creation_method            'Materials Studio'
_symmetry_space_group_name_H-M    'P1'
_symmetry_Int_Tables_number       1
_symmetry_cell_setting            triclinic
loop_
_symmetry_equiv_pos_as_xyz
  x,y,z
_cell_length_a                    17.2750
_cell_length_b                    22.1275
_cell_length_c                    26.1194
_cell_angle_alpha                 114.9673
_cell_angle_beta                  93.7103
_cell_angle_gamma                 98.9371
loop_
_atom_site_label
_atom_site_type_symbol
_atom_site_fract_x
_atom_site_fract_y
_atom_site_fract_z
_atom_site_U_iso_or_equiv
_atom_site_adp_type
_atom_site_occupancy
C1     C     0.70403   0.04821   0.28433   0.00000  Uiso   1.00
C2     C     0.68745   0.03398   0.22181   0.00000  Uiso   1.00
C3     C     0.73532   0.00697   0.18058   0.00000  Uiso   1.00
C4     C     0.70977   0.99782   0.12582   0.00000  Uiso   1.00
C5     C     0.69482   0.97312   0.03072   0.00000  Uiso   1.00
C6     C     0.70329   0.12342   0.31898   0.00000  Uiso   1.00
C7     C     0.76449   0.17162   0.35947   0.00000  Uiso   1.00
C8     C     0.75228   0.23776   0.38652   0.00000  Uiso   1.00
C9     C     0.76190   0.35192   0.44232   0.00000  Uiso   1.00
C10    C     0.63194   0.00901   0.29579   0.00000  Uiso   1.00
C11    C     0.63313   0.96102   0.31680   0.00000  Uiso   1.00
C12    C     0.56084   0.93084   0.32433   0.00000  Uiso   1.00
C13    C     0.45968   0.86735   0.34413   0.00000  Uiso   1.00
C14    C     0.57354   0.07997   0.26038   0.00000  Uiso   1.00
C15    C     0.61657   0.05122   0.20880   0.00000  Uiso   1.00
C16    C     0.59094   0.04210   0.15409   0.00000  Uiso   1.00
C17    C     0.63876   0.01509   0.11279   0.00000  Uiso   1.00
C18    C     0.63242   0.14067   0.30598   0.00000  Uiso   1.00
C19    C     0.62011   0.20675   0.33297   0.00000  Uiso   1.00
C20    C     0.68127   0.25504   0.37349   0.00000  Uiso   1.00
C21    C     0.56105   0.02625   0.28279   0.00000  Uiso   1.00
C22    C     0.48875   0.99615   0.29030   0.00000  Uiso   1.00
C23    C     0.48983   0.94812   0.31130   0.00000  Uiso   1.00
H24    H     0.75922   0.03479   0.29446   0.00000  Uiso   1.00
H25    H     0.79017   0.99364   0.19067   0.00000  Uiso   1.00
H26    H     0.81933   0.15826   0.36953   0.00000  Uiso   1.00
H27    H     0.68799   0.94769   0.32686   0.00000  Uiso   1.00
H28    H     0.79324   0.95565   0.06986   0.00000  Uiso   1.00
H29    H     0.85472   0.30275   0.44702   0.00000  Uiso   1.00
H30    H     0.57777   0.85872   0.35704   0.00000  Uiso   1.00
H31    H     0.51835   0.09339   0.25026   0.00000  Uiso   1.00
H32    H     0.53608   0.05546   0.14403   0.00000  Uiso   1.00
H33    H     0.56525   0.22008   0.32290   0.00000  Uiso   1.00
H34    H     0.43391   0.00951   0.28023   0.00000  Uiso   1.00
H35    H     0.58702   0.00582   0.03201   0.00000  Uiso   1.00
H36    H     0.64849   0.35293   0.40917   0.00000  Uiso   1.00
H37    H     0.37154   0.90889   0.31919   0.00000  Uiso   1.00
O38    O     0.70616   0.95474   0.98186   0.00000  Uiso   1.00
O39    O     0.78680   0.41012   0.47668   0.00000  Uiso   1.00
O40    O     0.42345   0.82756   0.35863   0.00000  Uiso   1.00
N41    N     0.74227   0.97265   0.07553   0.00000  Uiso   1.00
N42    N     0.79975   0.29717   0.42814   0.00000  Uiso   1.00
N43    N     0.54083   0.88205   0.34403   0.00000  Uiso   1.00
N44    N     0.63130   0.99965   0.05516   0.00000  Uiso   1.00
N45    N     0.68878   0.32417   0.40777   0.00000  Uiso   1.00
N46    N     0.42986   0.90905   0.32366   0.00000  Uiso   1.00
C47    C     0.85132   0.17008   0.86603   0.00000  Uiso   1.00
C48    C     0.87964   0.24480   0.90806   0.00000  Uiso   1.00
C49    C     0.95368   0.27368   0.94107   0.00000  Uiso   1.00
C50    C     0.96811   0.34296   0.97690   0.00000  Uiso   1.00
C51    C     0.02084   0.45306   0.04177   0.00000  Uiso   1.00
C52    C     0.77583   0.14528   0.88470   0.00000  Uiso   1.00
C53    C     0.76258   0.09047   0.89806   0.00000  Uiso   1.00
C54    C     0.68960   0.07596   0.91421   0.00000  Uiso   1.00
C55    C     0.58114   0.03152   0.94278   0.00000  Uiso   1.00
C56    C     0.82581   0.16926   0.80871   0.00000  Uiso   1.00
C57    C     0.85457   0.13460   0.75817   0.00000  Uiso   1.00
C58    C     0.82367   0.14026   0.71034   0.00000  Uiso   1.00
C59    C     0.79281   0.13305   0.62092   0.00000  Uiso   1.00
C60    C     0.74528   0.24174   0.87095   0.00000  Uiso   1.00
C61    C     0.82205   0.28373   0.91073   0.00000  Uiso   1.00
C62    C     0.83637   0.35298   0.94652   0.00000  Uiso   1.00
C63    C     0.91042   0.38195   0.97958   0.00000  Uiso   1.00
C64    C     0.71823   0.18420   0.88737   0.00000  Uiso   1.00
C65    C     0.64526   0.16977   0.90351   0.00000  Uiso   1.00
C66    C     0.63190   0.11496   0.91689   0.00000  Uiso   1.00
C67    C     0.76822   0.20818   0.81138   0.00000  Uiso   1.00
C68    C     0.73726   0.21390   0.76362   0.00000  Uiso   1.00
C69    C     0.76597   0.17926   0.71302   0.00000  Uiso   1.00
H70    H     0.89615   0.13977   0.86394   0.00000  Uiso   1.00
H71    H     0.99824   0.24354   0.93899   0.00000  Uiso   1.00
H72    H     0.80716   0.06036   0.89598   0.00000  Uiso   1.00
H73    H     0.89914   0.10448   0.75611   0.00000  Uiso   1.00
H74    H     0.08601   0.37575   0.02339   0.00000  Uiso   1.00
H75    H     0.68309   0.98949   0.93268   0.00000  Uiso   1.00
H76    H     0.87706   0.08253   0.63774   0.00000  Uiso   1.00
H77    H     0.70044   0.27205   0.87303   0.00000  Uiso   1.00
H78    H     0.79178   0.38309   0.94858   0.00000  Uiso   1.00
H79    H     0.60070   0.19990   0.90557   0.00000  Uiso   1.00
H80    H     0.69269   0.24402   0.76571   0.00000  Uiso   1.00
H81    H     0.91844   0.48901   0.03117   0.00000  Uiso   1.00
H82    H     0.51552   0.10274   0.94046   0.00000  Uiso   1.00
H83    H     0.70949   0.19579   0.64553   0.00000  Uiso   1.00
O84    O     0.06584   0.50304   0.07683   0.00000  Uiso   1.00
O85    O     0.53723   0.99626   0.95781   0.00000  Uiso   1.00
O86    O     0.79170   0.11833   0.57087   0.00000  Uiso   1.00
N87    N     0.03404   0.38717   0.01484   0.00000  Uiso   1.00
N88    N     0.65734   0.02604   0.93004   0.00000  Uiso   1.00
N89    N     0.83867   0.11301   0.65430   0.00000  Uiso   1.00
N90    N     0.94387   0.44812   0.01903   0.00000  Uiso   1.00
N91    N     0.56718   0.08699   0.93423   0.00000  Uiso   1.00
N92    N     0.74850   0.17396   0.65849   0.00000  Uiso   1.00
C93    C     0.10944   0.58715   0.35068   0.00000  Uiso   1.00
C94    C     0.06561   0.54219   0.37496   0.00000  Uiso   1.00
C95    C     0.08735   0.48477   0.37576   0.00000  Uiso   1.00
C96    C     0.03946   0.45059   0.39986   0.00000  Uiso   1.00
C97    C     0.98161   0.37735   0.43412   0.00000  Uiso   1.00
C98    C     0.04887   0.58860   0.30629   0.00000  Uiso   1.00
C99    C     0.05654   0.57020   0.24935   0.00000  Uiso   1.00
C100   C     0.99456   0.57510   0.21565   0.00000  Uiso   1.00
C101   C     0.91074   0.57395   0.14329   0.00000  Uiso   1.00
C102   C     0.12906   0.65904   0.39916   0.00000  Uiso   1.00
C103   C     0.20416   0.69987   0.42030   0.00000  Uiso   1.00
C104   C     0.20969   0.76409   0.46478   0.00000  Uiso   1.00
C105   C     0.25037   0.87230   0.53663   0.00000  Uiso   1.00
C106   C     0.98574   0.62858   0.39207   0.00000  Uiso   1.00
C107   C     0.99842   0.56470   0.39744   0.00000  Uiso   1.00
C108   C     0.95048   0.53061   0.42155   0.00000  Uiso   1.00
C109   C     0.97215   0.47314   0.42239   0.00000  Uiso   1.00
C110   C     0.98168   0.61110   0.32877   0.00000  Uiso   1.00
C111   C     0.91968   0.61604   0.29514   0.00000  Uiso   1.00
C112   C     0.92725   0.59765   0.23817   0.00000  Uiso   1.00
C113   C     0.06187   0.68155   0.42164   0.00000  Uiso   1.00
C114   C     0.06728   0.74571   0.46610   0.00000  Uiso   1.00
C115   C     0.14237   0.78664   0.48731   0.00000  Uiso   1.00
H116   H     0.16175   0.56962   0.33317   0.00000  Uiso   1.00
H117   H     0.13935   0.46736   0.35835   0.00000  Uiso   1.00
H118   H     0.10855   0.55279   0.23196   0.00000  Uiso   1.00
H119   H     0.25614   0.68244   0.40289   0.00000  Uiso   1.00
H120   H     0.08487   0.36389   0.39616   0.00000  Uiso   1.00
H121   H     0.01994   0.54404   0.12967   0.00000  Uiso   1.00
H122   H     0.33115   0.81744   0.49010   0.00000  Uiso   1.00
H123   H     0.93342   0.64611   0.40958   0.00000  Uiso   1.00
H124   H     0.89849   0.54804   0.43895   0.00000  Uiso   1.00
H125   H     0.86769   0.63346   0.31256   0.00000  Uiso   1.00
H126   H     0.01527   0.76311   0.48349   0.00000  Uiso   1.00
H127   H     0.88937   0.42937   0.46157   0.00000  Uiso   1.00
H128   H     0.82444   0.60952   0.19508   0.00000  Uiso   1.00
H129   H     0.13566   0.88292   0.55551   0.00000  Uiso   1.00
O130   O     0.96825   0.33073   0.44679   0.00000  Uiso   1.00
O131   O     0.88307   0.56709   0.09717   0.00000  Uiso   1.00
O132   O     0.29137   0.92577   0.57005   0.00000  Uiso   1.00
N133   N     0.04366   0.39277   0.40753   0.00000  Uiso   1.00
N134   N     0.98295   0.56119   0.15838   0.00000  Uiso   1.00
N135   N     0.27391   0.81680   0.49534   0.00000  Uiso   1.00
N136   N     0.93847   0.42801   0.44273   0.00000  Uiso   1.00
N137   N     0.87775   0.59642   0.19358   0.00000  Uiso   1.00
N138   N     0.16871   0.85203   0.53054   0.00000  Uiso   1.00
C139   C     0.20202   0.11270   0.38804   0.00000  Uiso   1.00
C140   C     0.16878   0.09334   0.43296   0.00000  Uiso   1.00
C141   C     0.19347   0.04742   0.45048   0.00000  Uiso   1.00
C142   C     0.15563   0.03668   0.49211   0.00000  Uiso   1.00
C143   C     0.11323   0.00146   0.55835   0.00000  Uiso   1.00
C144   C     0.22959   0.18988   0.41723   0.00000  Uiso   1.00
C145   C     0.30541   0.22512   0.42151   0.00000  Uiso   1.00
C146   C     0.31875   0.29565   0.44988   0.00000  Uiso   1.00
C147   C     0.37074   0.41032   0.49166   0.00000  Uiso   1.00
C148   C     0.13155   0.09779   0.34323   0.00000  Uiso   1.00
C149   C     0.12494   0.05563   0.28530   0.00000  Uiso   1.00
C150   C     0.05575   0.04864   0.25137   0.00000  Uiso   1.00
C151   C     0.95552   0.02033   0.17826   0.00000  Uiso   1.00
C152   C     0.09091   0.17529   0.43080   0.00000  Uiso   1.00
C153   C     0.10843   0.12734   0.45619   0.00000  Uiso   1.00
C154   C     0.07054   0.11666   0.49780   0.00000  Uiso   1.00
C155   C     0.09517   0.07073   0.51538   0.00000  Uiso   1.00
C156   C     0.16924   0.22387   0.44045   0.00000  Uiso   1.00
C157   C     0.18248   0.29437   0.46882   0.00000  Uiso   1.00
C158   C     0.25829   0.32971   0.47315   0.00000  Uiso   1.00
C159   C     0.07120   0.13179   0.36646   0.00000  Uiso   1.00
C160   C     0.00201   0.12487   0.33261   0.00000  Uiso   1.00
C161   C     0.99529   0.08270   0.27464   0.00000  Uiso   1.00
H162   H     0.24901   0.08624   0.36995   0.00000  Uiso   1.00
H163   H     0.24019   0.02112   0.43250   0.00000  Uiso   1.00
H164   H     0.35210   0.19880   0.40353   0.00000  Uiso   1.00
H165   H     0.17166   0.02933   0.26734   0.00000  Uiso   1.00
H166   H     0.20381   0.96394   0.51210   0.00000  Uiso   1.00
H167   H     0.43978   0.33858   0.45100   0.00000  Uiso   1.00
H168   H     0.05928   0.98122   0.16381   0.00000  Uiso   1.00
H169   H     0.04392   0.20176   0.44888   0.00000  Uiso   1.00
H170   H     0.02384   0.14298   0.51576   0.00000  Uiso   1.00
H171   H     0.13576   0.32066   0.48679   0.00000  Uiso   1.00
H172   H     0.95532   0.15119   0.35060   0.00000  Uiso   1.00
H173   H     0.02821   0.06284   0.57968   0.00000  Uiso   1.00
H174   H     0.26418   0.43749   0.51857   0.00000  Uiso   1.00
H175   H     0.88369   0.08013   0.23139   0.00000  Uiso   1.00
O176   O     0.10652   0.97265   0.58848   0.00000  Uiso   1.00
O177   O     0.41610   0.46417   0.50830   0.00000  Uiso   1.00
O178   O     0.91690   0.99532   0.13152   0.00000  Uiso   1.00
N179   N     0.16523   0.99527   0.51882   0.00000  Uiso   1.00
N180   N     0.38585   0.34554   0.46170   0.00000  Uiso   1.00
N181   N     0.03013   0.01145   0.19320   0.00000  Uiso   1.00
N182   N     0.07074   0.04849   0.55519   0.00000  Uiso   1.00
N183   N     0.29136   0.39876   0.49806   0.00000  Uiso   1.00
N184   N     0.93564   0.06467   0.22957   0.00000  Uiso   1.00
C185   C     0.30731   0.21773   0.88715   0.00000  Uiso   1.00
C186   C     0.35453   0.28780   0.89943   0.00000  Uiso   1.00
C187   C     0.43302   0.30224   0.89221   0.00000  Uiso   1.00
C188   C     0.46550   0.36956   0.90583   0.00000  Uiso   1.00
C189   C     0.54557   0.47060   0.92181   0.00000  Uiso   1.00
C190   C     0.23447   0.20467   0.84484   0.00000  Uiso   1.00
C191   C     0.21203   0.14922   0.79173   0.00000  Uiso   1.00
C192   C     0.14344   0.14657   0.75940   0.00000  Uiso   1.00
C193   C     0.03709   0.11852   0.69064   0.00000  Uiso   1.00
C194   C     0.27679   0.22505   0.94255   0.00000  Uiso   1.00
C195   C     0.28990   0.18672   0.97158   0.00000  Uiso   1.00
C196   C     0.25692   0.20121   0.02150   0.00000  Uiso   1.00
C197   C     0.21627   0.20481   0.10445   0.00000  Uiso   1.00
C198   C     0.22539   0.31161   0.92418   0.00000  Uiso   1.00
C199   C     0.31003   0.33879   0.91954   0.00000  Uiso   1.00
C200   C     0.34239   0.40611   0.93318   0.00000  Uiso   1.00
C201   C     0.42092   0.42065   0.92598   0.00000  Uiso   1.00
C202   C     0.18998   0.25566   0.86495   0.00000  Uiso   1.00
C203   C     0.12140   0.25309   0.83269   0.00000  Uiso   1.00
C204   C     0.09886   0.19765   0.77954   0.00000  Uiso   1.00
C205   C     0.23229   0.27604   0.96266   0.00000  Uiso   1.00
C206   C     0.19927   0.29059   0.01255   0.00000  Uiso   1.00
C207   C     0.21234   0.25229   0.04165   0.00000  Uiso   1.00
H208   H     0.34195   0.17803   0.87149   0.00000  Uiso   1.00
H209   H     0.46744   0.26276   0.87664   0.00000  Uiso   1.00
H210   H     0.24647   0.10976   0.77618   0.00000  Uiso   1.00
H211   H     0.32434   0.14726   0.95600   0.00000  Uiso   1.00
H212   H     0.58693   0.37919   0.89120   0.00000  Uiso   1.00
H213   H     0.12100   0.05657   0.67937   0.00000  Uiso   1.00
H214   H     0.28520   0.13564   0.05857   0.00000  Uiso   1.00
H215   H     0.19075   0.35131   0.93984   0.00000  Uiso   1.00
H216   H     0.30794   0.44556   0.94874   0.00000  Uiso   1.00
H217   H     0.08698   0.29255   0.84827   0.00000  Uiso   1.00
H218   H     0.16485   0.33005   0.02810   0.00000  Uiso   1.00
H219   H     0.45748   0.52755   0.94972   0.00000  Uiso   1.00
H220   H     0.99155   0.20493   0.73789   0.00000  Uiso   1.00
H221   H     0.15575   0.28400   0.11709   0.00000  Uiso   1.00
O222   O     0.60202   0.51224   0.92507   0.00000  Uiso   1.00
O223   O     0.99074   0.08897   0.64716   0.00000  Uiso   1.00
O224   O     0.20616   0.19271   0.14466   0.00000  Uiso   1.00
N225   N     0.54039   0.40118   0.90376   0.00000  Uiso   1.00
N226   N     0.10478   0.09955   0.70571   0.00000  Uiso   1.00
N227   N     0.25827   0.17346   0.06022   0.00000  Uiso   1.00
N228   N     0.47073   0.48101   0.93525   0.00000  Uiso   1.00
N229   N     0.03512   0.17938   0.73720   0.00000  Uiso   1.00
N230   N     0.18861   0.25329   0.09171   0.00000  Uiso   1.00
C231   C     0.74906   0.56033   0.75409   0.00000  Uiso   1.00
C232   C     0.70037   0.52551   0.69475   0.00000  Uiso   1.00
C233   C     0.68643   0.45643   0.65848   0.00000  Uiso   1.00
C234   C     0.64037   0.43458   0.60597   0.00000  Uiso   1.00
C235   C     0.56944   0.37358   0.51621   0.00000  Uiso   1.00
C236   C     0.69448   0.59763   0.79465   0.00000  Uiso   1.00
C237   C     0.67560   0.58918   0.84239   0.00000  Uiso   1.00
C238   C     0.62459   0.62806   0.87398   0.00000  Uiso   1.00
C239   C     0.54457   0.67905   0.93935   0.00000  Uiso   1.00
C240   C     0.81324   0.61544   0.75317   0.00000  Uiso   1.00
C241   C     0.89422   0.62198   0.76604   0.00000  Uiso   1.00
C242   C     0.94319   0.67585   0.76272   0.00000  Uiso   1.00
C243   C     0.04756   0.75449   0.76368   0.00000  Uiso   1.00
C244   C     0.69203   0.64439   0.72533   0.00000  Uiso   1.00
C245   C     0.66939   0.57117   0.67913   0.00000  Uiso   1.00
C246   C     0.62334   0.54943   0.62666   0.00000  Uiso   1.00
C247   C     0.60934   0.48032   0.59032   0.00000  Uiso   1.00
C248   C     0.66351   0.64329   0.77903   0.00000  Uiso   1.00
C249   C     0.61252   0.68218   0.81056   0.00000  Uiso   1.00
C250   C     0.59356   0.67380   0.85833   0.00000  Uiso   1.00
C251   C     0.78227   0.66110   0.73754   0.00000  Uiso   1.00
C252   C     0.83113   0.71497   0.73421   0.00000  Uiso   1.00
C253   C     0.91216   0.72159   0.74707   0.00000  Uiso   1.00
H254   H     0.77317   0.52478   0.76626   0.00000  Uiso   1.00
H255   H     0.71040   0.42111   0.67059   0.00000  Uiso   1.00
H256   H     0.69959   0.55385   0.85447   0.00000  Uiso   1.00
H257   H     0.91816   0.58664   0.77813   0.00000  Uiso   1.00
H258   H     0.62714   0.32630   0.55764   0.00000  Uiso   1.00
H259   H     0.60435   0.60621   0.94537   0.00000  Uiso   1.00
H260   H     0.06526   0.67534   0.78439   0.00000  Uiso   1.00
H261   H     0.66792   0.67993   0.71317   0.00000  Uiso   1.00
H262   H     0.59938   0.58477   0.61458   0.00000  Uiso   1.00
H263   H     0.58856   0.71751   0.79846   0.00000  Uiso   1.00
H264   H     0.80714   0.75030   0.72212   0.00000  Uiso   1.00
H265   H     0.53702   0.45913   0.51218   0.00000  Uiso   1.00
H266   H     0.51424   0.73905   0.89991   0.00000  Uiso   1.00
H267   H     0.97515   0.80818   0.73893   0.00000  Uiso   1.00
O268   O     0.53887   0.32732   0.47102   0.00000  Uiso   1.00
O269   O     0.50899   0.69456   0.97972   0.00000  Uiso   1.00
O270   O     0.11369   0.78525   0.76851   0.00000  Uiso   1.00
N271   N     0.61535   0.37062   0.56047   0.00000  Uiso   1.00
N272   N     0.59403   0.63232   0.92297   0.00000  Uiso   1.00
N273   N     0.02495   0.69696   0.77248   0.00000  Uiso   1.00
N274   N     0.56686   0.44210   0.53600   0.00000  Uiso   1.00
N275   N     0.54554   0.70379   0.89850   0.00000  Uiso   1.00
N276   N     0.97646   0.76844   0.74802   0.00000  Uiso   1.00
C277   C     0.29597   0.95179   0.71567   0.00000  Uiso   1.00
C278   C     0.31255   0.96602   0.77819   0.00000  Uiso   1.00
C279   C     0.26468   0.99303   0.81942   0.00000  Uiso   1.00
C280   C     0.29023   0.00218   0.87418   0.00000  Uiso   1.00
C281   C     0.30518   0.02688   0.96928   0.00000  Uiso   1.00
C282   C     0.29671   0.87658   0.68102   0.00000  Uiso   1.00
C283   C     0.23551   0.82838   0.64053   0.00000  Uiso   1.00
C284   C     0.24772   0.76224   0.61348   0.00000  Uiso   1.00
C285   C     0.23810   0.64808   0.55768   0.00000  Uiso   1.00
C286   C     0.36806   0.99099   0.70421   0.00000  Uiso   1.00
C287   C     0.36687   0.03898   0.68320   0.00000  Uiso   1.00
C288   C     0.43916   0.06916   0.67567   0.00000  Uiso   1.00
C289   C     0.54032   0.13265   0.65587   0.00000  Uiso   1.00
C290   C     0.42646   0.92003   0.73962   0.00000  Uiso   1.00
C291   C     0.38343   0.94878   0.79120   0.00000  Uiso   1.00
C292   C     0.40906   0.95790   0.84591   0.00000  Uiso   1.00
C293   C     0.36124   0.98491   0.88721   0.00000  Uiso   1.00
C294   C     0.36758   0.85933   0.69402   0.00000  Uiso   1.00
C295   C     0.37989   0.79325   0.66703   0.00000  Uiso   1.00
C296   C     0.31873   0.74496   0.62651   0.00000  Uiso   1.00
C297   C     0.43895   0.97375   0.71721   0.00000  Uiso   1.00
C298   C     0.51125   0.00385   0.70970   0.00000  Uiso   1.00
C299   C     0.51017   0.05188   0.68870   0.00000  Uiso   1.00
H300   H     0.24078   0.96521   0.70554   0.00000  Uiso   1.00
H301   H     0.20983   0.00636   0.80933   0.00000  Uiso   1.00
H302   H     0.18067   0.84174   0.63047   0.00000  Uiso   1.00
H303   H     0.31201   0.05231   0.67314   0.00000  Uiso   1.00
H304   H     0.20676   0.04435   0.93014   0.00000  Uiso   1.00
H305   H     0.14528   0.69725   0.55298   0.00000  Uiso   1.00
H306   H     0.42223   0.14128   0.64296   0.00000  Uiso   1.00
H307   H     0.48165   0.90661   0.74974   0.00000  Uiso   1.00
H308   H     0.46392   0.94454   0.85597   0.00000  Uiso   1.00
H309   H     0.43475   0.77992   0.67710   0.00000  Uiso   1.00
H310   H     0.56609   0.99049   0.71977   0.00000  Uiso   1.00
H311   H     0.41298   0.99418   0.96799   0.00000  Uiso   1.00
H312   H     0.35151   0.64707   0.59083   0.00000  Uiso   1.00
H313   H     0.62846   0.09111   0.68081   0.00000  Uiso   1.00
O314   O     0.29384   0.04526   0.01814   0.00000  Uiso   1.00
O315   O     0.21320   0.58988   0.52332   0.00000  Uiso   1.00
O316   O     0.57655   0.17244   0.64137   0.00000  Uiso   1.00
N317   N     0.25773   0.02735   0.92447   0.00000  Uiso   1.00
N318   N     0.20025   0.70283   0.57186   0.00000  Uiso   1.00
N319   N     0.45917   0.11795   0.65597   0.00000  Uiso   1.00
N320   N     0.36870   0.00035   0.94484   0.00000  Uiso   1.00
N321   N     0.31122   0.67583   0.59223   0.00000  Uiso   1.00
N322   N     0.57014   0.09095   0.67634   0.00000  Uiso   1.00
C323   C     0.14868   0.82992   0.13397   0.00000  Uiso   1.00
C324   C     0.12036   0.75520   0.09194   0.00000  Uiso   1.00
C325   C     0.04632   0.72632   0.05893   0.00000  Uiso   1.00
C326   C     0.03189   0.65704   0.02310   0.00000  Uiso   1.00
C327   C     0.97916   0.54694   0.95823   0.00000  Uiso   1.00
C328   C     0.22417   0.85472   0.11530   0.00000  Uiso   1.00
C329   C     0.23742   0.90953   0.10194   0.00000  Uiso   1.00
C330   C     0.31040   0.92404   0.08579   0.00000  Uiso   1.00
C331   C     0.41886   0.96848   0.05722   0.00000  Uiso   1.00
C332   C     0.17419   0.83074   0.19129   0.00000  Uiso   1.00
C333   C     0.14543   0.86540   0.24183   0.00000  Uiso   1.00
C334   C     0.17633   0.85974   0.28966   0.00000  Uiso   1.00
C335   C     0.20719   0.86695   0.37908   0.00000  Uiso   1.00
C336   C     0.25472   0.75826   0.12905   0.00000  Uiso   1.00
C337   C     0.17795   0.71627   0.08927   0.00000  Uiso   1.00
C338   C     0.16363   0.64702   0.05348   0.00000  Uiso   1.00
C339   C     0.08958   0.61805   0.02042   0.00000  Uiso   1.00
C340   C     0.28177   0.81580   0.11263   0.00000  Uiso   1.00
C341   C     0.35474   0.83023   0.09649   0.00000  Uiso   1.00
C342   C     0.36810   0.88504   0.08311   0.00000  Uiso   1.00
C343   C     0.23178   0.79182   0.18862   0.00000  Uiso   1.00
C344   C     0.26274   0.78610   0.23638   0.00000  Uiso   1.00
C345   C     0.23403   0.82074   0.28698   0.00000  Uiso   1.00
H346   H     0.10385   0.86023   0.13606   0.00000  Uiso   1.00
H347   H     0.00176   0.75646   0.06101   0.00000  Uiso   1.00
H348   H     0.19284   0.93964   0.10402   0.00000  Uiso   1.00
H349   H     0.10086   0.89552   0.24389   0.00000  Uiso   1.00
H350   H     0.91399   0.62425   0.97661   0.00000  Uiso   1.00
H351   H     0.31691   0.01051   0.06732   0.00000  Uiso   1.00
H352   H     0.12294   0.91747   0.36226   0.00000  Uiso   1.00
H353   H     0.29956   0.72795   0.12697   0.00000  Uiso   1.00
H354   H     0.20822   0.61691   0.05142   0.00000  Uiso   1.00
H355   H     0.39930   0.80010   0.09443   0.00000  Uiso   1.00
H356   H     0.30731   0.75598   0.23429   0.00000  Uiso   1.00
H357   H     0.08156   0.51099   0.96883   0.00000  Uiso   1.00
H358   H     0.48448   0.89726   0.05954   0.00000  Uiso   1.00
H359   H     0.29051   0.80421   0.35447   0.00000  Uiso   1.00
O360   O     0.93416   0.49696   0.92317   0.00000  Uiso   1.00
O361   O     0.46277   0.00374   0.04219   0.00000  Uiso   1.00
O362   O     0.20830   0.88167   0.42913   0.00000  Uiso   1.00
N363   N     0.96596   0.61283   0.98516   0.00000  Uiso   1.00
N364   N     0.34266   0.97396   0.06996   0.00000  Uiso   1.00
N365   N     0.16133   0.88699   0.34570   0.00000  Uiso   1.00
N366   N     0.05613   0.55188   0.98097   0.00000  Uiso   1.00
N367   N     0.43282   0.91301   0.06577   0.00000  Uiso   1.00
N368   N     0.25150   0.82604   0.34151   0.00000  Uiso   1.00
C369   C     0.89056   0.41285   0.64932   0.00000  Uiso   1.00
C370   C     0.93439   0.45781   0.62504   0.00000  Uiso   1.00
C371   C     0.91265   0.51523   0.62424   0.00000  Uiso   1.00
C372   C     0.96054   0.54941   0.60014   0.00000  Uiso   1.00
C373   C     0.01839   0.62265   0.56588   0.00000  Uiso   1.00
C374   C     0.95113   0.41140   0.69371   0.00000  Uiso   1.00
C375   C     0.94346   0.42980   0.75065   0.00000  Uiso   1.00
C376   C     0.00544   0.42490   0.78435   0.00000  Uiso   1.00
C377   C     0.08926   0.42605   0.85671   0.00000  Uiso   1.00
C378   C     0.87094   0.34096   0.60084   0.00000  Uiso   1.00
C379   C     0.79584   0.30013   0.57970   0.00000  Uiso   1.00
C380   C     0.79031   0.23591   0.53522   0.00000  Uiso   1.00
C381   C     0.74963   0.12770   0.46337   0.00000  Uiso   1.00
C382   C     0.01426   0.37142   0.60793   0.00000  Uiso   1.00
C383   C     0.00158   0.43530   0.60256   0.00000  Uiso   1.00
C384   C     0.04952   0.46939   0.57845   0.00000  Uiso   1.00
C385   C     0.02785   0.52686   0.57761   0.00000  Uiso   1.00
C386   C     0.01832   0.38890   0.67123   0.00000  Uiso   1.00
C387   C     0.08032   0.38396   0.70486   0.00000  Uiso   1.00
C388   C     0.07275   0.40235   0.76183   0.00000  Uiso   1.00
C389   C     0.93813   0.31845   0.57836   0.00000  Uiso   1.00
C390   C     0.93272   0.25429   0.53390   0.00000  Uiso   1.00
C391   C     0.85763   0.21336   0.51269   0.00000  Uiso   1.00
H392   H     0.83825   0.43038   0.66683   0.00000  Uiso   1.00
H393   H     0.86065   0.53264   0.64165   0.00000  Uiso   1.00
H394   H     0.89145   0.44721   0.76804   0.00000  Uiso   1.00
H395   H     0.74386   0.31756   0.59711   0.00000  Uiso   1.00
H396   H     0.91513   0.63611   0.60384   0.00000  Uiso   1.00
H397   H     0.98006   0.45596   0.87033   0.00000  Uiso   1.00
H398   H     0.66885   0.18256   0.50990   0.00000  Uiso   1.00
H399   H     0.06658   0.35389   0.59042   0.00000  Uiso   1.00
H400   H     0.10151   0.45196   0.56105   0.00000  Uiso   1.00
H401   H     0.13231   0.36654   0.68744   0.00000  Uiso   1.00
H402   H     0.98473   0.23689   0.51651   0.00000  Uiso   1.00
H403   H     0.11063   0.57063   0.53843   0.00000  Uiso   1.00
H404   H     0.17556   0.39048   0.80492   0.00000  Uiso   1.00
H405   H     0.86434   0.11708   0.44449   0.00000  Uiso   1.00
O406   O     0.03175   0.66927   0.55321   0.00000  Uiso   1.00
O407   O     0.11693   0.43291   0.90283   0.00000  Uiso   1.00
O408   O     0.70863   0.07423   0.42995   0.00000  Uiso   1.00
N409   N     0.95634   0.60723   0.59247   0.00000  Uiso   1.00
N410   N     0.01705   0.43881   0.84162   0.00000  Uiso   1.00
N411   N     0.72609   0.18320   0.50466   0.00000  Uiso   1.00
N412   N     0.06153   0.57199   0.55727   0.00000  Uiso   1.00
N413   N     0.12225   0.40358   0.80642   0.00000  Uiso   1.00
N414   N     0.83129   0.14797   0.46946   0.00000  Uiso   1.00
C415   C     0.79798   0.88730   0.61196   0.00000  Uiso   1.00
C416   C     0.83122   0.90666   0.56704   0.00000  Uiso   1.00
C417   C     0.80653   0.95258   0.54952   0.00000  Uiso   1.00
C418   C     0.84437   0.96332   0.50789   0.00000  Uiso   1.00
C419   C     0.88677   0.99854   0.44165   0.00000  Uiso   1.00
C420   C     0.77041   0.81012   0.58277   0.00000  Uiso   1.00
C421   C     0.69459   0.77488   0.57849   0.00000  Uiso   1.00
C422   C     0.68125   0.70435   0.55012   0.00000  Uiso   1.00
C423   C     0.62926   0.58968   0.50834   0.00000  Uiso   1.00
C424   C     0.86845   0.90221   0.65677   0.00000  Uiso   1.00
C425   C     0.87506   0.94437   0.71470   0.00000  Uiso   1.00
C426   C     0.94425   0.95136   0.74863   0.00000  Uiso   1.00
C427   C     0.04448   0.97967   0.82174   0.00000  Uiso   1.00
C428   C     0.90909   0.82471   0.56920   0.00000  Uiso   1.00
C429   C     0.89157   0.87266   0.54381   0.00000  Uiso   1.00
C430   C     0.92946   0.88334   0.50220   0.00000  Uiso   1.00
C431   C     0.90483   0.92927   0.48462   0.00000  Uiso   1.00
C432   C     0.83076   0.77613   0.55955   0.00000  Uiso   1.00
C433   C     0.81752   0.70563   0.53118   0.00000  Uiso   1.00
C434   C     0.74171   0.67029   0.52685   0.00000  Uiso   1.00
C435   C     0.92880   0.86821   0.63354   0.00000  Uiso   1.00
C436   C     0.99799   0.87513   0.66739   0.00000  Uiso   1.00
C437   C     0.00471   0.91730   0.72536   0.00000  Uiso   1.00
H438   H     0.75099   0.91376   0.63005   0.00000  Uiso   1.00
H439   H     0.75981   0.97888   0.56750   0.00000  Uiso   1.00
H440   H     0.64790   0.80120   0.59647   0.00000  Uiso   1.00
H441   H     0.82834   0.97067   0.73266   0.00000  Uiso   1.00
H442   H     0.79619   0.03606   0.48790   0.00000  Uiso   1.00
H443   H     0.56022   0.66142   0.54900   0.00000  Uiso   1.00
H444   H     0.94072   0.01878   0.83619   0.00000  Uiso   1.00
H445   H     0.95608   0.79824   0.55112   0.00000  Uiso   1.00
H446   H     0.97616   0.85702   0.48424   0.00000  Uiso   1.00
H447   H     0.86424   0.67934   0.51321   0.00000  Uiso   1.00
H448   H     0.04468   0.84881   0.64940   0.00000  Uiso   1.00
H449   H     0.97179   0.93716   0.42032   0.00000  Uiso   1.00
H450   H     0.73582   0.56251   0.48143   0.00000  Uiso   1.00
H451   H     0.11631   0.91987   0.76861   0.00000  Uiso   1.00
O452   O     0.89348   0.02735   0.41152   0.00000  Uiso   1.00
O453   O     0.58390   0.53583   0.49170   0.00000  Uiso   1.00
O454   O     0.08310   0.00468   0.86848   0.00000  Uiso   1.00
N455   N     0.83477   0.00473   0.48118   0.00000  Uiso   1.00
N456   N     0.61415   0.65446   0.53830   0.00000  Uiso   1.00
N457   N     0.96987   0.98855   0.80680   0.00000  Uiso   1.00
N458   N     0.92926   0.95151   0.44481   0.00000  Uiso   1.00
N459   N     0.70864   0.60124   0.50194   0.00000  Uiso   1.00
N460   N     0.06436   0.93533   0.77043   0.00000  Uiso   1.00
C461   C     0.69269   0.78227   0.11285   0.00000  Uiso   1.00
C462   C     0.64547   0.71220   0.10057   0.00000  Uiso   1.00
C463   C     0.56698   0.69776   0.10779   0.00000  Uiso   1.00
C464   C     0.53450   0.63044   0.09417   0.00000  Uiso   1.00
C465   C     0.45443   0.52940   0.07819   0.00000  Uiso   1.00
C466   C     0.76553   0.79533   0.15516   0.00000  Uiso   1.00
C467   C     0.78797   0.85078   0.20827   0.00000  Uiso   1.00
C468   C     0.85656   0.85343   0.24060   0.00000  Uiso   1.00
C469   C     0.96291   0.88148   0.30936   0.00000  Uiso   1.00
C470   C     0.72321   0.77495   0.05745   0.00000  Uiso   1.00
C471   C     0.71010   0.81328   0.02842   0.00000  Uiso   1.00
C472   C     0.74308   0.79879   0.97850   0.00000  Uiso   1.00
C473   C     0.78373   0.79519   0.89555   0.00000  Uiso   1.00
C474   C     0.77461   0.68839   0.07582   0.00000  Uiso   1.00
C475   C     0.68997   0.66121   0.08046   0.00000  Uiso   1.00
C476   C     0.65761   0.59389   0.06682   0.00000  Uiso   1.00
C477   C     0.57908   0.57935   0.07402   0.00000  Uiso   1.00
C478   C     0.81002   0.74434   0.13505   0.00000  Uiso   1.00
C479   C     0.87860   0.74691   0.16731   0.00000  Uiso   1.00
C480   C     0.90114   0.80235   0.22046   0.00000  Uiso   1.00
C481   C     0.76771   0.72396   0.03734   0.00000  Uiso   1.00
C482   C     0.80073   0.70941   0.98745   0.00000  Uiso   1.00
C483   C     0.78766   0.74771   0.95835   0.00000  Uiso   1.00
H484   H     0.65805   0.82197   0.12851   0.00000  Uiso   1.00
H485   H     0.53256   0.73724   0.12336   0.00000  Uiso   1.00
H486   H     0.75353   0.89024   0.22382   0.00000  Uiso   1.00
H487   H     0.67566   0.85274   0.04400   0.00000  Uiso   1.00
H488   H     0.41307   0.62081   0.10880   0.00000  Uiso   1.00
H489   H     0.87900   0.94343   0.32063   0.00000  Uiso   1.00
H490   H     0.71480   0.86436   0.94143   0.00000  Uiso   1.00
H491   H     0.80925   0.64869   0.06016   0.00000  Uiso   1.00
H492   H     0.69206   0.55444   0.05126   0.00000  Uiso   1.00
H493   H     0.91302   0.70745   0.15173   0.00000  Uiso   1.00
H494   H     0.83515   0.66995   0.97190   0.00000  Uiso   1.00
H495   H     0.54252   0.47245   0.05028   0.00000  Uiso   1.00
H496   H     0.00845   0.79507   0.26211   0.00000  Uiso   1.00
H497   H     0.84425   0.71600   0.88291   0.00000  Uiso   1.00
O498   O     0.39798   0.48776   0.07493   0.00000  Uiso   1.00
O499   O     0.00926   0.91103   0.35284   0.00000  Uiso   1.00
O500   O     0.79384   0.80729   0.85534   0.00000  Uiso   1.00
N501   N     0.45961   0.59882   0.09624   0.00000  Uiso   1.00
N502   N     0.89522   0.90045   0.29429   0.00000  Uiso   1.00
N503   N     0.74173   0.82654   0.93978   0.00000  Uiso   1.00
N504   N     0.52927   0.51899   0.06475   0.00000  Uiso   1.00
N505   N     0.96488   0.82062   0.26280   0.00000  Uiso   1.00
N506   N     0.81139   0.74671   0.90829   0.00000  Uiso   1.00
C507   C     0.25094   0.43967   0.24591   0.00000  Uiso   1.00
C508   C     0.29963   0.47449   0.30525   0.00000  Uiso   1.00
C509   C     0.31357   0.54357   0.34152   0.00000  Uiso   1.00
C510   C     0.35963   0.56542   0.39403   0.00000  Uiso   1.00
C511   C     0.43056   0.62642   0.48379   0.00000  Uiso   1.00
C512   C     0.30552   0.40237   0.20535   0.00000  Uiso   1.00
C513   C     0.32440   0.41082   0.15761   0.00000  Uiso   1.00
C514   C     0.37541   0.37194   0.12602   0.00000  Uiso   1.00
C515   C     0.45543   0.32095   0.06065   0.00000  Uiso   1.00
C516   C     0.18676   0.38456   0.24683   0.00000  Uiso   1.00
C517   C     0.10578   0.37802   0.23396   0.00000  Uiso   1.00
C518   C     0.05681   0.32415   0.23728   0.00000  Uiso   1.00
C519   C     0.95244   0.24551   0.23632   0.00000  Uiso   1.00
C520   C     0.30797   0.35561   0.27467   0.00000  Uiso   1.00
C521   C     0.33061   0.42883   0.32087   0.00000  Uiso   1.00
C522   C     0.37666   0.45057   0.37334   0.00000  Uiso   1.00
C523   C     0.39066   0.51968   0.40968   0.00000  Uiso   1.00
C524   C     0.33649   0.35671   0.22097   0.00000  Uiso   1.00
C525   C     0.38748   0.31782   0.18944   0.00000  Uiso   1.00
C526   C     0.40644   0.32620   0.14167   0.00000  Uiso   1.00
C527   C     0.21773   0.33890   0.26246   0.00000  Uiso   1.00
C528   C     0.16887   0.28503   0.26579   0.00000  Uiso   1.00
C529   C     0.08784   0.27841   0.25293   0.00000  Uiso   1.00
H530   H     0.22683   0.47522   0.23374   0.00000  Uiso   1.00
H531   H     0.28960   0.57889   0.32941   0.00000  Uiso   1.00
H532   H     0.30041   0.44615   0.14553   0.00000  Uiso   1.00
H533   H     0.08184   0.41336   0.22187   0.00000  Uiso   1.00
H534   H     0.37286   0.67370   0.44236   0.00000  Uiso   1.00
H535   H     0.39565   0.39379   0.05463   0.00000  Uiso   1.00
H536   H     0.93474   0.32466   0.21561   0.00000  Uiso   1.00
H537   H     0.33208   0.32007   0.28683   0.00000  Uiso   1.00
H538   H     0.40062   0.41523   0.38542   0.00000  Uiso   1.00
H539   H     0.41144   0.28249   0.20154   0.00000  Uiso   1.00
H540   H     0.19286   0.24970   0.27788   0.00000  Uiso   1.00
H541   H     0.46298   0.54087   0.48782   0.00000  Uiso   1.00
H542   H     0.48576   0.26095   0.10009   0.00000  Uiso   1.00
H543   H     0.02485   0.19182   0.26107   0.00000  Uiso   1.00
O544   O     0.46113   0.67268   0.52898   0.00000  Uiso   1.00
O545   O     0.49101   0.30544   0.02028   0.00000  Uiso   1.00
O546   O     0.88631   0.21475   0.23149   0.00000  Uiso   1.00
N547   N     0.38465   0.62938   0.43953   0.00000  Uiso   1.00
N548   N     0.40597   0.36768   0.07703   0.00000  Uiso   1.00
N549   N     0.97505   0.30304   0.22752   0.00000  Uiso   1.00
N550   N     0.43314   0.55790   0.46400   0.00000  Uiso   1.00
N551   N     0.45446   0.29621   0.10150   0.00000  Uiso   1.00
N552   N     0.02354   0.23156   0.25198   0.00000  Uiso   1.00
