data_job_03566
_audit_creation_date              2018-12-19
_audit_creation_method            'Materials Studio'
_symmetry_space_group_name_H-M    'P1'
_symmetry_Int_Tables_number       1
_symmetry_cell_setting            triclinic
loop_
_symmetry_equiv_pos_as_xyz
  x,y,z
_cell_length_a                    12.4870
_cell_length_b                    12.4870
_cell_length_c                    112.9890
_cell_angle_alpha                 90.0000
_cell_angle_beta                  90.0000
_cell_angle_gamma                 120.0000
loop_
_atom_site_label
_atom_site_type_symbol
_atom_site_fract_x
_atom_site_fract_y
_atom_site_fract_z
_atom_site_U_iso_or_equiv
_atom_site_adp_type
_atom_site_occupancy
C1     C     0.46869   0.08693   0.63447   0.00000  Uiso   1.00
C2     C     0.43031   0.17849   0.63013   0.00000  Uiso   1.00
C3     C     0.34452   0.20221   0.63553   0.00000  Uiso   1.00
C4     C     0.32222   0.28926   0.63018   0.00000  Uiso   1.00
C5     C     0.25325   0.42210   0.62501   0.00000  Uiso   1.00
C6     C     0.44443   0.99835   0.62420   0.00000  Uiso   1.00
C7     C     0.37052   0.87061   0.62463   0.00000  Uiso   1.00
C8     C     0.36013   0.80602   0.61429   0.00000  Uiso   1.00
C9     C     0.31314   0.65918   0.59993   0.00000  Uiso   1.00
C10    C     0.60875   0.16097   0.63597   0.00000  Uiso   1.00
C11    C     0.67300   0.16995   0.64629   0.00000  Uiso   1.00
C12    C     0.80096   0.24225   0.64586   0.00000  Uiso   1.00
C13    C     0.00910   0.34790   0.64977   0.00000  Uiso   1.00
C14    C     0.58167   0.19934   0.61535   0.00000  Uiso   1.00
C15    C     0.49168   0.23954   0.61974   0.00000  Uiso   1.00
C16    C     0.46952   0.32658   0.61438   0.00000  Uiso   1.00
C17    C     0.38370   0.35044   0.61977   0.00000  Uiso   1.00
C18    C     0.50579   0.05940   0.61382   0.00000  Uiso   1.00
C19    C     0.49552   0.99498   0.60348   0.00000  Uiso   1.00
C20    C     0.42160   0.86719   0.60388   0.00000  Uiso   1.00
C21    C     0.67012   0.22203   0.62559   0.00000  Uiso   1.00
C22    C     0.79800   0.29432   0.62514   0.00000  Uiso   1.00
C23    C     0.86243   0.30341   0.63545   0.00000  Uiso   1.00
H24    H     0.42092   0.03939   0.64255   0.00000  Uiso   1.00
H25    H     0.29704   0.15493   0.64357   0.00000  Uiso   1.00
H26    H     0.32305   0.82339   0.63267   0.00000  Uiso   1.00
H27    H     0.62548   0.12268   0.65433   0.00000  Uiso   1.00
H28    H     0.18673   0.30993   0.64011   0.00000  Uiso   1.00
H29    H     0.24161   0.61085   0.61713   0.00000  Uiso   1.00
H30    H     0.87934   0.24196   0.66280   0.00000  Uiso   1.00
H31    H     0.62945   0.24687   0.60726   0.00000  Uiso   1.00
H32    H     0.51702   0.37382   0.60634   0.00000  Uiso   1.00
H33    H     0.54302   0.04226   0.59544   0.00000  Uiso   1.00
H34    H     0.84545   0.34156   0.61710   0.00000  Uiso   1.00
H35    H     0.36527   0.48758   0.60990   0.00000  Uiso   1.00
H36    H     0.42015   0.78849   0.58691   0.00000  Uiso   1.00
H37    H     0.05788   0.41961   0.63258   0.00000  Uiso   1.00
O38    O     0.19824   0.47849   0.62503   0.00000  Uiso   1.00
O39    O     0.27026   0.56132   0.59488   0.00000  Uiso   1.00
O40    O     0.10695   0.38933   0.65480   0.00000  Uiso   1.00
N41    N     0.24420   0.33434   0.63313   0.00000  Uiso   1.00
N42    N     0.29549   0.68074   0.61164   0.00000  Uiso   1.00
N43    N     0.89172   0.27075   0.65434   0.00000  Uiso   1.00
N44    N     0.34027   0.42993   0.61687   0.00000  Uiso   1.00
N45    N     0.39156   0.77633   0.59538   0.00000  Uiso   1.00
N46    N     0.98779   0.36634   0.63808   0.00000  Uiso   1.00
C47    C     0.91307   0.38176   0.30114   0.00000  Uiso   1.00
C48    C     0.82151   0.25182   0.29679   0.00000  Uiso   1.00
C49    C     0.79779   0.14230   0.30220   0.00000  Uiso   1.00
C50    C     0.71074   0.03296   0.29684   0.00000  Uiso   1.00
C51    C     0.57790   0.83115   0.29168   0.00000  Uiso   1.00
C52    C     0.00165   0.44608   0.29087   0.00000  Uiso   1.00
C53    C     0.12939   0.49991   0.29130   0.00000  Uiso   1.00
C54    C     0.19398   0.55410   0.28096   0.00000  Uiso   1.00
C55    C     0.34082   0.65396   0.26660   0.00000  Uiso   1.00
C56    C     0.83903   0.44778   0.30264   0.00000  Uiso   1.00
C57    C     0.83005   0.50306   0.31296   0.00000  Uiso   1.00
C58    C     0.75775   0.55871   0.31253   0.00000  Uiso   1.00
C59    C     0.65210   0.66119   0.31644   0.00000  Uiso   1.00
C60    C     0.80066   0.38233   0.28202   0.00000  Uiso   1.00
C61    C     0.76046   0.25214   0.28641   0.00000  Uiso   1.00
C62    C     0.67342   0.14293   0.28104   0.00000  Uiso   1.00
C63    C     0.64956   0.03327   0.28644   0.00000  Uiso   1.00
C64    C     0.94060   0.44639   0.28049   0.00000  Uiso   1.00
C65    C     0.00502   0.50053   0.27014   0.00000  Uiso   1.00
C66    C     0.13281   0.55441   0.27055   0.00000  Uiso   1.00
C67    C     0.77797   0.44808   0.29225   0.00000  Uiso   1.00
C68    C     0.70568   0.50367   0.29180   0.00000  Uiso   1.00
C69    C     0.69659   0.55902   0.30212   0.00000  Uiso   1.00
H70    H     0.96061   0.38153   0.30922   0.00000  Uiso   1.00
H71    H     0.84507   0.14210   0.31024   0.00000  Uiso   1.00
H72    H     0.17661   0.49966   0.29933   0.00000  Uiso   1.00
H73    H     0.87732   0.50280   0.32099   0.00000  Uiso   1.00
H74    H     0.69007   0.87679   0.30678   0.00000  Uiso   1.00
H75    H     0.38915   0.63076   0.28379   0.00000  Uiso   1.00
H76    H     0.75804   0.63738   0.32947   0.00000  Uiso   1.00
H77    H     0.75313   0.38258   0.27393   0.00000  Uiso   1.00
H78    H     0.62618   0.14320   0.27301   0.00000  Uiso   1.00
H79    H     0.95774   0.50076   0.26211   0.00000  Uiso   1.00
H80    H     0.65844   0.50390   0.28377   0.00000  Uiso   1.00
H81    H     0.51242   0.87768   0.27656   0.00000  Uiso   1.00
H82    H     0.21151   0.63165   0.25358   0.00000  Uiso   1.00
H83    H     0.58039   0.63827   0.29925   0.00000  Uiso   1.00
O84    O     0.52151   0.71975   0.29170   0.00000  Uiso   1.00
O85    O     0.43868   0.70894   0.26155   0.00000  Uiso   1.00
O86    O     0.61067   0.71762   0.32147   0.00000  Uiso   1.00
N87    N     0.66566   0.90985   0.29979   0.00000  Uiso   1.00
N88    N     0.31926   0.61475   0.27831   0.00000  Uiso   1.00
N89    N     0.72925   0.62097   0.32101   0.00000  Uiso   1.00
N90    N     0.57007   0.91033   0.28354   0.00000  Uiso   1.00
N91    N     0.22367   0.61523   0.26205   0.00000  Uiso   1.00
N92    N     0.63366   0.62145   0.30475   0.00000  Uiso   1.00
C93    C     0.61824   0.53131   0.96780   0.00000  Uiso   1.00
C94    C     0.74818   0.56969   0.96346   0.00000  Uiso   1.00
C95    C     0.85770   0.65548   0.96887   0.00000  Uiso   1.00
C96    C     0.96704   0.67778   0.96351   0.00000  Uiso   1.00
C97    C     0.16885   0.74675   0.95835   0.00000  Uiso   1.00
C98    C     0.55392   0.55557   0.95754   0.00000  Uiso   1.00
C99    C     0.50009   0.62948   0.95796   0.00000  Uiso   1.00
C100   C     0.44590   0.63987   0.94762   0.00000  Uiso   1.00
C101   C     0.34604   0.68686   0.93326   0.00000  Uiso   1.00
C102   C     0.55222   0.39125   0.96931   0.00000  Uiso   1.00
C103   C     0.49694   0.32700   0.97963   0.00000  Uiso   1.00
C104   C     0.44129   0.19904   0.97919   0.00000  Uiso   1.00
C105   C     0.33881   0.99090   0.98311   0.00000  Uiso   1.00
C106   C     0.61767   0.41833   0.94868   0.00000  Uiso   1.00
C107   C     0.74786   0.50832   0.95307   0.00000  Uiso   1.00
C108   C     0.85707   0.53048   0.94771   0.00000  Uiso   1.00
C109   C     0.96673   0.61630   0.95311   0.00000  Uiso   1.00
C110   C     0.55361   0.49421   0.94715   0.00000  Uiso   1.00
C111   C     0.49947   0.50448   0.93681   0.00000  Uiso   1.00
C112   C     0.44559   0.57840   0.93722   0.00000  Uiso   1.00
C113   C     0.55192   0.32988   0.95892   0.00000  Uiso   1.00
C114   C     0.49633   0.20200   0.95847   0.00000  Uiso   1.00
C115   C     0.44098   0.13757   0.96879   0.00000  Uiso   1.00
H116   H     0.61847   0.57908   0.97589   0.00000  Uiso   1.00
H117   H     0.85790   0.70296   0.97690   0.00000  Uiso   1.00
H118   H     0.50034   0.67695   0.96600   0.00000  Uiso   1.00
H119   H     0.49720   0.37452   0.98766   0.00000  Uiso   1.00
H120   H     0.12321   0.81327   0.97345   0.00000  Uiso   1.00
H121   H     0.36924   0.75839   0.95046   0.00000  Uiso   1.00
H122   H     0.36262   0.12066   0.99613   0.00000  Uiso   1.00
H123   H     0.61742   0.37055   0.94060   0.00000  Uiso   1.00
H124   H     0.85680   0.48298   0.93967   0.00000  Uiso   1.00
H125   H     0.49924   0.45698   0.92877   0.00000  Uiso   1.00
H126   H     0.49610   0.15455   0.95043   0.00000  Uiso   1.00
H127   H     0.12232   0.63473   0.94323   0.00000  Uiso   1.00
H128   H     0.36835   0.57985   0.92025   0.00000  Uiso   1.00
H129   H     0.36173   0.94212   0.96592   0.00000  Uiso   1.00
O130   O     0.28025   0.80176   0.95837   0.00000  Uiso   1.00
O131   O     0.29106   0.72974   0.92821   0.00000  Uiso   1.00
O132   O     0.28238   0.89305   0.98813   0.00000  Uiso   1.00
N133   N     0.09015   0.75580   0.96646   0.00000  Uiso   1.00
N134   N     0.38525   0.70451   0.94497   0.00000  Uiso   1.00
N135   N     0.37903   0.10828   0.98767   0.00000  Uiso   1.00
N136   N     0.08967   0.65973   0.95020   0.00000  Uiso   1.00
N137   N     0.38477   0.60844   0.92871   0.00000  Uiso   1.00
N138   N     0.37855   0.01221   0.97141   0.00000  Uiso   1.00
C139   C     0.53131   0.91307   0.13447   0.00000  Uiso   1.00
C140   C     0.56969   0.82151   0.13013   0.00000  Uiso   1.00
C141   C     0.65548   0.79779   0.13553   0.00000  Uiso   1.00
C142   C     0.67778   0.71074   0.13018   0.00000  Uiso   1.00
C143   C     0.74675   0.57790   0.12501   0.00000  Uiso   1.00
C144   C     0.55557   0.00165   0.12420   0.00000  Uiso   1.00
C145   C     0.62948   0.12939   0.12463   0.00000  Uiso   1.00
C146   C     0.63987   0.19398   0.11429   0.00000  Uiso   1.00
C147   C     0.68686   0.34082   0.09993   0.00000  Uiso   1.00
C148   C     0.39125   0.83903   0.13597   0.00000  Uiso   1.00
C149   C     0.32700   0.83005   0.14629   0.00000  Uiso   1.00
C150   C     0.19904   0.75775   0.14586   0.00000  Uiso   1.00
C151   C     0.99090   0.65210   0.14977   0.00000  Uiso   1.00
C152   C     0.41833   0.80066   0.11535   0.00000  Uiso   1.00
C153   C     0.50832   0.76046   0.11974   0.00000  Uiso   1.00
C154   C     0.53048   0.67342   0.11438   0.00000  Uiso   1.00
C155   C     0.61630   0.64956   0.11977   0.00000  Uiso   1.00
C156   C     0.49421   0.94060   0.11382   0.00000  Uiso   1.00
C157   C     0.50448   0.00502   0.10348   0.00000  Uiso   1.00
C158   C     0.57840   0.13281   0.10388   0.00000  Uiso   1.00
C159   C     0.32988   0.77797   0.12559   0.00000  Uiso   1.00
C160   C     0.20200   0.70568   0.12514   0.00000  Uiso   1.00
C161   C     0.13757   0.69659   0.13545   0.00000  Uiso   1.00
H162   H     0.57908   0.96061   0.14255   0.00000  Uiso   1.00
H163   H     0.70296   0.84507   0.14357   0.00000  Uiso   1.00
H164   H     0.67695   0.17661   0.13267   0.00000  Uiso   1.00
H165   H     0.37452   0.87732   0.15433   0.00000  Uiso   1.00
H166   H     0.81327   0.69007   0.14011   0.00000  Uiso   1.00
H167   H     0.75839   0.38915   0.11713   0.00000  Uiso   1.00
H168   H     0.12066   0.75804   0.16280   0.00000  Uiso   1.00
H169   H     0.37055   0.75313   0.10726   0.00000  Uiso   1.00
H170   H     0.48298   0.62618   0.10634   0.00000  Uiso   1.00
H171   H     0.45698   0.95774   0.09544   0.00000  Uiso   1.00
H172   H     0.15455   0.65844   0.11710   0.00000  Uiso   1.00
H173   H     0.63473   0.51242   0.10990   0.00000  Uiso   1.00
H174   H     0.57985   0.21151   0.08691   0.00000  Uiso   1.00
H175   H     0.94212   0.58039   0.13258   0.00000  Uiso   1.00
O176   O     0.80176   0.52151   0.12503   0.00000  Uiso   1.00
O177   O     0.72974   0.43868   0.09488   0.00000  Uiso   1.00
O178   O     0.89305   0.61067   0.15480   0.00000  Uiso   1.00
N179   N     0.75580   0.66566   0.13313   0.00000  Uiso   1.00
N180   N     0.70451   0.31926   0.11164   0.00000  Uiso   1.00
N181   N     0.10828   0.72925   0.15434   0.00000  Uiso   1.00
N182   N     0.65973   0.57007   0.11687   0.00000  Uiso   1.00
N183   N     0.60844   0.22367   0.09538   0.00000  Uiso   1.00
N184   N     0.01221   0.63366   0.13808   0.00000  Uiso   1.00
C185   C     0.08693   0.61824   0.80114   0.00000  Uiso   1.00
C186   C     0.17849   0.74818   0.79679   0.00000  Uiso   1.00
C187   C     0.20221   0.85770   0.80220   0.00000  Uiso   1.00
C188   C     0.28926   0.96704   0.79684   0.00000  Uiso   1.00
C189   C     0.42210   0.16885   0.79168   0.00000  Uiso   1.00
C190   C     0.99835   0.55392   0.79087   0.00000  Uiso   1.00
C191   C     0.87061   0.50009   0.79130   0.00000  Uiso   1.00
C192   C     0.80602   0.44590   0.78096   0.00000  Uiso   1.00
C193   C     0.65918   0.34604   0.76660   0.00000  Uiso   1.00
C194   C     0.16097   0.55222   0.80264   0.00000  Uiso   1.00
C195   C     0.16995   0.49694   0.81296   0.00000  Uiso   1.00
C196   C     0.24225   0.44129   0.81253   0.00000  Uiso   1.00
C197   C     0.34790   0.33881   0.81644   0.00000  Uiso   1.00
C198   C     0.19934   0.61767   0.78202   0.00000  Uiso   1.00
C199   C     0.23954   0.74786   0.78641   0.00000  Uiso   1.00
C200   C     0.32658   0.85707   0.78104   0.00000  Uiso   1.00
C201   C     0.35044   0.96673   0.78644   0.00000  Uiso   1.00
C202   C     0.05940   0.55361   0.78049   0.00000  Uiso   1.00
C203   C     0.99498   0.49947   0.77014   0.00000  Uiso   1.00
C204   C     0.86719   0.44559   0.77055   0.00000  Uiso   1.00
C205   C     0.22203   0.55192   0.79225   0.00000  Uiso   1.00
C206   C     0.29432   0.49633   0.79180   0.00000  Uiso   1.00
C207   C     0.30341   0.44098   0.80212   0.00000  Uiso   1.00
H208   H     0.03939   0.61847   0.80922   0.00000  Uiso   1.00
H209   H     0.15493   0.85790   0.81024   0.00000  Uiso   1.00
H210   H     0.82339   0.50034   0.79933   0.00000  Uiso   1.00
H211   H     0.12268   0.49720   0.82099   0.00000  Uiso   1.00
H212   H     0.30993   0.12321   0.80678   0.00000  Uiso   1.00
H213   H     0.61085   0.36924   0.78379   0.00000  Uiso   1.00
H214   H     0.24196   0.36262   0.82947   0.00000  Uiso   1.00
H215   H     0.24687   0.61742   0.77393   0.00000  Uiso   1.00
H216   H     0.37382   0.85680   0.77301   0.00000  Uiso   1.00
H217   H     0.04226   0.49924   0.76211   0.00000  Uiso   1.00
H218   H     0.34156   0.49610   0.78377   0.00000  Uiso   1.00
H219   H     0.48758   0.12232   0.77656   0.00000  Uiso   1.00
H220   H     0.78849   0.36835   0.75358   0.00000  Uiso   1.00
H221   H     0.41961   0.36173   0.79925   0.00000  Uiso   1.00
O222   O     0.47849   0.28025   0.79170   0.00000  Uiso   1.00
O223   O     0.56132   0.29106   0.76155   0.00000  Uiso   1.00
O224   O     0.38933   0.28238   0.82147   0.00000  Uiso   1.00
N225   N     0.33434   0.09015   0.79979   0.00000  Uiso   1.00
N226   N     0.68074   0.38525   0.77831   0.00000  Uiso   1.00
N227   N     0.27075   0.37903   0.82101   0.00000  Uiso   1.00
N228   N     0.42993   0.08967   0.78354   0.00000  Uiso   1.00
N229   N     0.77633   0.38477   0.76205   0.00000  Uiso   1.00
N230   N     0.36634   0.37855   0.80475   0.00000  Uiso   1.00
C231   C     0.38176   0.46869   0.46780   0.00000  Uiso   1.00
C232   C     0.25182   0.43031   0.46346   0.00000  Uiso   1.00
C233   C     0.14230   0.34452   0.46887   0.00000  Uiso   1.00
C234   C     0.03296   0.32222   0.46351   0.00000  Uiso   1.00
C235   C     0.83115   0.25325   0.45835   0.00000  Uiso   1.00
C236   C     0.44608   0.44443   0.45754   0.00000  Uiso   1.00
C237   C     0.49991   0.37052   0.45796   0.00000  Uiso   1.00
C238   C     0.55410   0.36013   0.44762   0.00000  Uiso   1.00
C239   C     0.65396   0.31314   0.43326   0.00000  Uiso   1.00
C240   C     0.44778   0.60875   0.46931   0.00000  Uiso   1.00
C241   C     0.50306   0.67300   0.47963   0.00000  Uiso   1.00
C242   C     0.55871   0.80096   0.47919   0.00000  Uiso   1.00
C243   C     0.66119   0.00910   0.48311   0.00000  Uiso   1.00
C244   C     0.38233   0.58167   0.44868   0.00000  Uiso   1.00
C245   C     0.25214   0.49168   0.45307   0.00000  Uiso   1.00
C246   C     0.14293   0.46952   0.44771   0.00000  Uiso   1.00
C247   C     0.03327   0.38370   0.45311   0.00000  Uiso   1.00
C248   C     0.44639   0.50579   0.44715   0.00000  Uiso   1.00
C249   C     0.50053   0.49552   0.43681   0.00000  Uiso   1.00
C250   C     0.55441   0.42160   0.43722   0.00000  Uiso   1.00
C251   C     0.44808   0.67012   0.45892   0.00000  Uiso   1.00
C252   C     0.50367   0.79800   0.45847   0.00000  Uiso   1.00
C253   C     0.55902   0.86243   0.46879   0.00000  Uiso   1.00
H254   H     0.38153   0.42092   0.47589   0.00000  Uiso   1.00
H255   H     0.14210   0.29704   0.47690   0.00000  Uiso   1.00
H256   H     0.49966   0.32305   0.46600   0.00000  Uiso   1.00
H257   H     0.50280   0.62548   0.48766   0.00000  Uiso   1.00
H258   H     0.87679   0.18673   0.47345   0.00000  Uiso   1.00
H259   H     0.63076   0.24161   0.45046   0.00000  Uiso   1.00
H260   H     0.63738   0.87934   0.49613   0.00000  Uiso   1.00
H261   H     0.38258   0.62945   0.44060   0.00000  Uiso   1.00
H262   H     0.14320   0.51702   0.43967   0.00000  Uiso   1.00
H263   H     0.50076   0.54302   0.42877   0.00000  Uiso   1.00
H264   H     0.50390   0.84545   0.45043   0.00000  Uiso   1.00
H265   H     0.87768   0.36527   0.44323   0.00000  Uiso   1.00
H266   H     0.63165   0.42015   0.42025   0.00000  Uiso   1.00
H267   H     0.63827   0.05788   0.46592   0.00000  Uiso   1.00
O268   O     0.71975   0.19824   0.45837   0.00000  Uiso   1.00
O269   O     0.70894   0.27026   0.42821   0.00000  Uiso   1.00
O270   O     0.71762   0.10695   0.48813   0.00000  Uiso   1.00
N271   N     0.90985   0.24420   0.46646   0.00000  Uiso   1.00
N272   N     0.61475   0.29549   0.44497   0.00000  Uiso   1.00
N273   N     0.62097   0.89172   0.48767   0.00000  Uiso   1.00
N274   N     0.91033   0.34027   0.45020   0.00000  Uiso   1.00
N275   N     0.61523   0.39156   0.42871   0.00000  Uiso   1.00
N276   N     0.62145   0.98779   0.47141   0.00000  Uiso   1.00
C277   C     0.08693   0.46869   0.03220   0.00000  Uiso   1.00
C278   C     0.17849   0.43031   0.03654   0.00000  Uiso   1.00
C279   C     0.20221   0.34452   0.03113   0.00000  Uiso   1.00
C280   C     0.28926   0.32222   0.03649   0.00000  Uiso   1.00
C281   C     0.42210   0.25325   0.04165   0.00000  Uiso   1.00
C282   C     0.99835   0.44443   0.04246   0.00000  Uiso   1.00
C283   C     0.87061   0.37052   0.04204   0.00000  Uiso   1.00
C284   C     0.80602   0.36013   0.05238   0.00000  Uiso   1.00
C285   C     0.65918   0.31314   0.06674   0.00000  Uiso   1.00
C286   C     0.16097   0.60875   0.03069   0.00000  Uiso   1.00
C287   C     0.16995   0.67300   0.02037   0.00000  Uiso   1.00
C288   C     0.24225   0.80096   0.02081   0.00000  Uiso   1.00
C289   C     0.34790   0.00910   0.01689   0.00000  Uiso   1.00
C290   C     0.19934   0.58167   0.05132   0.00000  Uiso   1.00
C291   C     0.23954   0.49168   0.04693   0.00000  Uiso   1.00
C292   C     0.32658   0.46952   0.05229   0.00000  Uiso   1.00
C293   C     0.35044   0.38370   0.04689   0.00000  Uiso   1.00
C294   C     0.05940   0.50579   0.05285   0.00000  Uiso   1.00
C295   C     0.99498   0.49552   0.06319   0.00000  Uiso   1.00
C296   C     0.86719   0.42160   0.06278   0.00000  Uiso   1.00
C297   C     0.22203   0.67012   0.04108   0.00000  Uiso   1.00
C298   C     0.29432   0.79800   0.04153   0.00000  Uiso   1.00
C299   C     0.30341   0.86243   0.03121   0.00000  Uiso   1.00
H300   H     0.03939   0.42092   0.02411   0.00000  Uiso   1.00
H301   H     0.15493   0.29704   0.02310   0.00000  Uiso   1.00
H302   H     0.82339   0.32305   0.03400   0.00000  Uiso   1.00
H303   H     0.12268   0.62548   0.01234   0.00000  Uiso   1.00
H304   H     0.30993   0.18673   0.02655   0.00000  Uiso   1.00
H305   H     0.61085   0.24161   0.04954   0.00000  Uiso   1.00
H306   H     0.24196   0.87934   0.00387   0.00000  Uiso   1.00
H307   H     0.24687   0.62945   0.05940   0.00000  Uiso   1.00
H308   H     0.37382   0.51702   0.06033   0.00000  Uiso   1.00
H309   H     0.04226   0.54302   0.07123   0.00000  Uiso   1.00
H310   H     0.34156   0.84545   0.04957   0.00000  Uiso   1.00
H311   H     0.48758   0.36527   0.05677   0.00000  Uiso   1.00
H312   H     0.78849   0.42015   0.07975   0.00000  Uiso   1.00
H313   H     0.41961   0.05788   0.03408   0.00000  Uiso   1.00
O314   O     0.47849   0.19824   0.04163   0.00000  Uiso   1.00
O315   O     0.56132   0.27026   0.07179   0.00000  Uiso   1.00
O316   O     0.38933   0.10695   0.01187   0.00000  Uiso   1.00
N317   N     0.33434   0.24420   0.03354   0.00000  Uiso   1.00
N318   N     0.68074   0.29549   0.05503   0.00000  Uiso   1.00
N319   N     0.27075   0.89172   0.01233   0.00000  Uiso   1.00
N320   N     0.42993   0.34027   0.04980   0.00000  Uiso   1.00
N321   N     0.77633   0.39156   0.07129   0.00000  Uiso   1.00
N322   N     0.36634   0.98779   0.02859   0.00000  Uiso   1.00
C323   C     0.38176   0.91307   0.36553   0.00000  Uiso   1.00
C324   C     0.25182   0.82151   0.36987   0.00000  Uiso   1.00
C325   C     0.14230   0.79779   0.36447   0.00000  Uiso   1.00
C326   C     0.03296   0.71074   0.36982   0.00000  Uiso   1.00
C327   C     0.83115   0.57790   0.37499   0.00000  Uiso   1.00
C328   C     0.44608   0.00165   0.37580   0.00000  Uiso   1.00
C329   C     0.49991   0.12939   0.37537   0.00000  Uiso   1.00
C330   C     0.55410   0.19398   0.38571   0.00000  Uiso   1.00
C331   C     0.65396   0.34082   0.40007   0.00000  Uiso   1.00
C332   C     0.44778   0.83903   0.36403   0.00000  Uiso   1.00
C333   C     0.50306   0.83005   0.35371   0.00000  Uiso   1.00
C334   C     0.55871   0.75775   0.35414   0.00000  Uiso   1.00
C335   C     0.66119   0.65210   0.35023   0.00000  Uiso   1.00
C336   C     0.38233   0.80066   0.38465   0.00000  Uiso   1.00
C337   C     0.25214   0.76046   0.38026   0.00000  Uiso   1.00
C338   C     0.14293   0.67342   0.38562   0.00000  Uiso   1.00
C339   C     0.03327   0.64956   0.38023   0.00000  Uiso   1.00
C340   C     0.44639   0.94060   0.38618   0.00000  Uiso   1.00
C341   C     0.50053   0.00502   0.39652   0.00000  Uiso   1.00
C342   C     0.55441   0.13281   0.39612   0.00000  Uiso   1.00
C343   C     0.44808   0.77797   0.37441   0.00000  Uiso   1.00
C344   C     0.50367   0.70568   0.37486   0.00000  Uiso   1.00
C345   C     0.55902   0.69659   0.36455   0.00000  Uiso   1.00
H346   H     0.38153   0.96061   0.35745   0.00000  Uiso   1.00
H347   H     0.14210   0.84507   0.35643   0.00000  Uiso   1.00
H348   H     0.49966   0.17661   0.36733   0.00000  Uiso   1.00
H349   H     0.50280   0.87732   0.34567   0.00000  Uiso   1.00
H350   H     0.87679   0.69007   0.35989   0.00000  Uiso   1.00
H351   H     0.63076   0.38915   0.38287   0.00000  Uiso   1.00
H352   H     0.63738   0.75804   0.33720   0.00000  Uiso   1.00
H353   H     0.38258   0.75313   0.39274   0.00000  Uiso   1.00
H354   H     0.14320   0.62618   0.39366   0.00000  Uiso   1.00
H355   H     0.50076   0.95774   0.40456   0.00000  Uiso   1.00
H356   H     0.50390   0.65844   0.38290   0.00000  Uiso   1.00
H357   H     0.87768   0.51242   0.39010   0.00000  Uiso   1.00
H358   H     0.63165   0.21151   0.41309   0.00000  Uiso   1.00
H359   H     0.63827   0.58039   0.36742   0.00000  Uiso   1.00
O360   O     0.71975   0.52151   0.37497   0.00000  Uiso   1.00
O361   O     0.70894   0.43868   0.40512   0.00000  Uiso   1.00
O362   O     0.71762   0.61067   0.34520   0.00000  Uiso   1.00
N363   N     0.90985   0.66566   0.36687   0.00000  Uiso   1.00
N364   N     0.61475   0.31926   0.38836   0.00000  Uiso   1.00
N365   N     0.62097   0.72925   0.34566   0.00000  Uiso   1.00
N366   N     0.91033   0.57007   0.38313   0.00000  Uiso   1.00
N367   N     0.61523   0.22367   0.40462   0.00000  Uiso   1.00
N368   N     0.62145   0.63366   0.36192   0.00000  Uiso   1.00
C369   C     0.53131   0.61824   0.69886   0.00000  Uiso   1.00
C370   C     0.56969   0.74818   0.70321   0.00000  Uiso   1.00
C371   C     0.65548   0.85770   0.69780   0.00000  Uiso   1.00
C372   C     0.67778   0.96704   0.70316   0.00000  Uiso   1.00
C373   C     0.74675   0.16885   0.70832   0.00000  Uiso   1.00
C374   C     0.55557   0.55392   0.70913   0.00000  Uiso   1.00
C375   C     0.62948   0.50009   0.70870   0.00000  Uiso   1.00
C376   C     0.63987   0.44590   0.71904   0.00000  Uiso   1.00
C377   C     0.68686   0.34604   0.73340   0.00000  Uiso   1.00
C378   C     0.39125   0.55222   0.69736   0.00000  Uiso   1.00
C379   C     0.32700   0.49694   0.68704   0.00000  Uiso   1.00
C380   C     0.19904   0.44129   0.68747   0.00000  Uiso   1.00
C381   C     0.99090   0.33881   0.68356   0.00000  Uiso   1.00
C382   C     0.41833   0.61767   0.71798   0.00000  Uiso   1.00
C383   C     0.50832   0.74786   0.71359   0.00000  Uiso   1.00
C384   C     0.53048   0.85707   0.71896   0.00000  Uiso   1.00
C385   C     0.61630   0.96673   0.71356   0.00000  Uiso   1.00
C386   C     0.49421   0.55361   0.71951   0.00000  Uiso   1.00
C387   C     0.50448   0.49947   0.72986   0.00000  Uiso   1.00
C388   C     0.57840   0.44559   0.72945   0.00000  Uiso   1.00
C389   C     0.32988   0.55192   0.70775   0.00000  Uiso   1.00
C390   C     0.20200   0.49633   0.70820   0.00000  Uiso   1.00
C391   C     0.13757   0.44098   0.69788   0.00000  Uiso   1.00
H392   H     0.57908   0.61847   0.69078   0.00000  Uiso   1.00
H393   H     0.70296   0.85790   0.68976   0.00000  Uiso   1.00
H394   H     0.67695   0.50034   0.70067   0.00000  Uiso   1.00
H395   H     0.37452   0.49720   0.67901   0.00000  Uiso   1.00
H396   H     0.81327   0.12321   0.69322   0.00000  Uiso   1.00
H397   H     0.75839   0.36924   0.71621   0.00000  Uiso   1.00
H398   H     0.12066   0.36262   0.67053   0.00000  Uiso   1.00
H399   H     0.37055   0.61742   0.72607   0.00000  Uiso   1.00
H400   H     0.48298   0.85680   0.72699   0.00000  Uiso   1.00
H401   H     0.45698   0.49924   0.73789   0.00000  Uiso   1.00
H402   H     0.15455   0.49610   0.71623   0.00000  Uiso   1.00
H403   H     0.63473   0.12232   0.72344   0.00000  Uiso   1.00
H404   H     0.57985   0.36835   0.74642   0.00000  Uiso   1.00
H405   H     0.94212   0.36173   0.70075   0.00000  Uiso   1.00
O406   O     0.80176   0.28025   0.70830   0.00000  Uiso   1.00
O407   O     0.72974   0.29106   0.73845   0.00000  Uiso   1.00
O408   O     0.89305   0.28238   0.67853   0.00000  Uiso   1.00
N409   N     0.75580   0.09015   0.70021   0.00000  Uiso   1.00
N410   N     0.70451   0.38525   0.72169   0.00000  Uiso   1.00
N411   N     0.10828   0.37903   0.67899   0.00000  Uiso   1.00
N412   N     0.65973   0.08967   0.71646   0.00000  Uiso   1.00
N413   N     0.60844   0.38477   0.73795   0.00000  Uiso   1.00
N414   N     0.01221   0.37855   0.69525   0.00000  Uiso   1.00
C415   C     0.91307   0.53131   0.53220   0.00000  Uiso   1.00
C416   C     0.82151   0.56969   0.53654   0.00000  Uiso   1.00
C417   C     0.79779   0.65548   0.53113   0.00000  Uiso   1.00
C418   C     0.71074   0.67778   0.53649   0.00000  Uiso   1.00
C419   C     0.57790   0.74675   0.54165   0.00000  Uiso   1.00
C420   C     0.00165   0.55557   0.54246   0.00000  Uiso   1.00
C421   C     0.12939   0.62948   0.54204   0.00000  Uiso   1.00
C422   C     0.19398   0.63987   0.55238   0.00000  Uiso   1.00
C423   C     0.34082   0.68686   0.56674   0.00000  Uiso   1.00
C424   C     0.83903   0.39125   0.53069   0.00000  Uiso   1.00
C425   C     0.83005   0.32700   0.52037   0.00000  Uiso   1.00
C426   C     0.75775   0.19904   0.52081   0.00000  Uiso   1.00
C427   C     0.65210   0.99090   0.51689   0.00000  Uiso   1.00
C428   C     0.80066   0.41833   0.55132   0.00000  Uiso   1.00
C429   C     0.76046   0.50832   0.54693   0.00000  Uiso   1.00
C430   C     0.67342   0.53048   0.55229   0.00000  Uiso   1.00
C431   C     0.64956   0.61630   0.54689   0.00000  Uiso   1.00
C432   C     0.94060   0.49421   0.55285   0.00000  Uiso   1.00
C433   C     0.00502   0.50448   0.56319   0.00000  Uiso   1.00
C434   C     0.13281   0.57840   0.56278   0.00000  Uiso   1.00
C435   C     0.77797   0.32988   0.54108   0.00000  Uiso   1.00
C436   C     0.70568   0.20200   0.54153   0.00000  Uiso   1.00
C437   C     0.69659   0.13757   0.53121   0.00000  Uiso   1.00
H438   H     0.96061   0.57908   0.52411   0.00000  Uiso   1.00
H439   H     0.84507   0.70296   0.52310   0.00000  Uiso   1.00
H440   H     0.17661   0.67695   0.53400   0.00000  Uiso   1.00
H441   H     0.87732   0.37452   0.51234   0.00000  Uiso   1.00
H442   H     0.69007   0.81327   0.52655   0.00000  Uiso   1.00
H443   H     0.38915   0.75839   0.54954   0.00000  Uiso   1.00
H444   H     0.75804   0.12066   0.50387   0.00000  Uiso   1.00
H445   H     0.75313   0.37055   0.55940   0.00000  Uiso   1.00
H446   H     0.62618   0.48298   0.56033   0.00000  Uiso   1.00
H447   H     0.95774   0.45698   0.57123   0.00000  Uiso   1.00
H448   H     0.65844   0.15455   0.54957   0.00000  Uiso   1.00
H449   H     0.51242   0.63473   0.55677   0.00000  Uiso   1.00
H450   H     0.21151   0.57985   0.57975   0.00000  Uiso   1.00
H451   H     0.58039   0.94212   0.53408   0.00000  Uiso   1.00
O452   O     0.52151   0.80176   0.54163   0.00000  Uiso   1.00
O453   O     0.43868   0.72974   0.57179   0.00000  Uiso   1.00
O454   O     0.61067   0.89305   0.51187   0.00000  Uiso   1.00
N455   N     0.66566   0.75580   0.53354   0.00000  Uiso   1.00
N456   N     0.31926   0.70451   0.55503   0.00000  Uiso   1.00
N457   N     0.72925   0.10828   0.51233   0.00000  Uiso   1.00
N458   N     0.57007   0.65973   0.54980   0.00000  Uiso   1.00
N459   N     0.22367   0.60844   0.57129   0.00000  Uiso   1.00
N460   N     0.63366   0.01221   0.52859   0.00000  Uiso   1.00
C461   C     0.61824   0.08693   0.86553   0.00000  Uiso   1.00
C462   C     0.74818   0.17849   0.86987   0.00000  Uiso   1.00
C463   C     0.85770   0.20221   0.86447   0.00000  Uiso   1.00
C464   C     0.96704   0.28926   0.86982   0.00000  Uiso   1.00
C465   C     0.16885   0.42210   0.87499   0.00000  Uiso   1.00
C466   C     0.55392   0.99835   0.87580   0.00000  Uiso   1.00
C467   C     0.50009   0.87061   0.87537   0.00000  Uiso   1.00
C468   C     0.44590   0.80602   0.88571   0.00000  Uiso   1.00
C469   C     0.34604   0.65918   0.90007   0.00000  Uiso   1.00
C470   C     0.55222   0.16097   0.86403   0.00000  Uiso   1.00
C471   C     0.49694   0.16995   0.85371   0.00000  Uiso   1.00
C472   C     0.44129   0.24225   0.85414   0.00000  Uiso   1.00
C473   C     0.33881   0.34790   0.85023   0.00000  Uiso   1.00
C474   C     0.61767   0.19934   0.88465   0.00000  Uiso   1.00
C475   C     0.74786   0.23954   0.88026   0.00000  Uiso   1.00
C476   C     0.85707   0.32658   0.88562   0.00000  Uiso   1.00
C477   C     0.96673   0.35044   0.88023   0.00000  Uiso   1.00
C478   C     0.55361   0.05940   0.88618   0.00000  Uiso   1.00
C479   C     0.49947   0.99498   0.89652   0.00000  Uiso   1.00
C480   C     0.44559   0.86719   0.89612   0.00000  Uiso   1.00
C481   C     0.55192   0.22203   0.87441   0.00000  Uiso   1.00
C482   C     0.49633   0.29432   0.87486   0.00000  Uiso   1.00
C483   C     0.44098   0.30341   0.86455   0.00000  Uiso   1.00
H484   H     0.61847   0.03939   0.85745   0.00000  Uiso   1.00
H485   H     0.85790   0.15493   0.85643   0.00000  Uiso   1.00
H486   H     0.50034   0.82339   0.86733   0.00000  Uiso   1.00
H487   H     0.49720   0.12268   0.84567   0.00000  Uiso   1.00
H488   H     0.12321   0.30993   0.85989   0.00000  Uiso   1.00
H489   H     0.36924   0.61085   0.88287   0.00000  Uiso   1.00
H490   H     0.36262   0.24196   0.83720   0.00000  Uiso   1.00
H491   H     0.61742   0.24687   0.89274   0.00000  Uiso   1.00
H492   H     0.85680   0.37382   0.89366   0.00000  Uiso   1.00
H493   H     0.49924   0.04226   0.90456   0.00000  Uiso   1.00
H494   H     0.49610   0.34156   0.88290   0.00000  Uiso   1.00
H495   H     0.12232   0.48758   0.89010   0.00000  Uiso   1.00
H496   H     0.36835   0.78849   0.91309   0.00000  Uiso   1.00
H497   H     0.36173   0.41961   0.86742   0.00000  Uiso   1.00
O498   O     0.28025   0.47849   0.87497   0.00000  Uiso   1.00
O499   O     0.29106   0.56132   0.90512   0.00000  Uiso   1.00
O500   O     0.28238   0.38933   0.84520   0.00000  Uiso   1.00
N501   N     0.09015   0.33434   0.86687   0.00000  Uiso   1.00
N502   N     0.38525   0.68074   0.88836   0.00000  Uiso   1.00
N503   N     0.37903   0.27075   0.84566   0.00000  Uiso   1.00
N504   N     0.08967   0.42993   0.88313   0.00000  Uiso   1.00
N505   N     0.38477   0.77633   0.90462   0.00000  Uiso   1.00
N506   N     0.37855   0.36634   0.86192   0.00000  Uiso   1.00
C507   C     0.46869   0.38176   0.19886   0.00000  Uiso   1.00
C508   C     0.43031   0.25182   0.20321   0.00000  Uiso   1.00
C509   C     0.34452   0.14230   0.19780   0.00000  Uiso   1.00
C510   C     0.32222   0.03296   0.20316   0.00000  Uiso   1.00
C511   C     0.25325   0.83115   0.20832   0.00000  Uiso   1.00
C512   C     0.44443   0.44608   0.20913   0.00000  Uiso   1.00
C513   C     0.37052   0.49991   0.20870   0.00000  Uiso   1.00
C514   C     0.36013   0.55410   0.21904   0.00000  Uiso   1.00
C515   C     0.31314   0.65396   0.23340   0.00000  Uiso   1.00
C516   C     0.60875   0.44778   0.19736   0.00000  Uiso   1.00
C517   C     0.67300   0.50306   0.18704   0.00000  Uiso   1.00
C518   C     0.80096   0.55871   0.18747   0.00000  Uiso   1.00
C519   C     0.00910   0.66119   0.18356   0.00000  Uiso   1.00
C520   C     0.58167   0.38233   0.21798   0.00000  Uiso   1.00
C521   C     0.49168   0.25214   0.21359   0.00000  Uiso   1.00
C522   C     0.46952   0.14293   0.21896   0.00000  Uiso   1.00
C523   C     0.38370   0.03327   0.21356   0.00000  Uiso   1.00
C524   C     0.50579   0.44639   0.21951   0.00000  Uiso   1.00
C525   C     0.49552   0.50053   0.22986   0.00000  Uiso   1.00
C526   C     0.42160   0.55441   0.22945   0.00000  Uiso   1.00
C527   C     0.67012   0.44808   0.20775   0.00000  Uiso   1.00
C528   C     0.79800   0.50367   0.20820   0.00000  Uiso   1.00
C529   C     0.86243   0.55902   0.19788   0.00000  Uiso   1.00
H530   H     0.42092   0.38153   0.19078   0.00000  Uiso   1.00
H531   H     0.29704   0.14210   0.18976   0.00000  Uiso   1.00
H532   H     0.32305   0.49966   0.20067   0.00000  Uiso   1.00
H533   H     0.62548   0.50280   0.17901   0.00000  Uiso   1.00
H534   H     0.18673   0.87679   0.19322   0.00000  Uiso   1.00
H535   H     0.24161   0.63076   0.21621   0.00000  Uiso   1.00
H536   H     0.87934   0.63738   0.17053   0.00000  Uiso   1.00
H537   H     0.62945   0.38258   0.22607   0.00000  Uiso   1.00
H538   H     0.51702   0.14320   0.22699   0.00000  Uiso   1.00
H539   H     0.54302   0.50076   0.23789   0.00000  Uiso   1.00
H540   H     0.84545   0.50390   0.21623   0.00000  Uiso   1.00
H541   H     0.36527   0.87768   0.22344   0.00000  Uiso   1.00
H542   H     0.42015   0.63165   0.24642   0.00000  Uiso   1.00
H543   H     0.05788   0.63827   0.20075   0.00000  Uiso   1.00
O544   O     0.19824   0.71975   0.20830   0.00000  Uiso   1.00
O545   O     0.27026   0.70894   0.23845   0.00000  Uiso   1.00
O546   O     0.10695   0.71762   0.17853   0.00000  Uiso   1.00
N547   N     0.24420   0.90985   0.20021   0.00000  Uiso   1.00
N548   N     0.29549   0.61475   0.22169   0.00000  Uiso   1.00
N549   N     0.89172   0.62097   0.17899   0.00000  Uiso   1.00
N550   N     0.34027   0.91033   0.21646   0.00000  Uiso   1.00
N551   N     0.39156   0.61523   0.23795   0.00000  Uiso   1.00
N552   N     0.98779   0.62145   0.19525   0.00000  Uiso   1.00
