data_job_04073
_audit_creation_date              2018-12-19
_audit_creation_method            'Materials Studio'
_symmetry_space_group_name_H-M    'P1'
_symmetry_Int_Tables_number       1
_symmetry_cell_setting            triclinic
loop_
_symmetry_equiv_pos_as_xyz
  x,y,z
_cell_length_a                    15.8270
_cell_length_b                    39.9767
_cell_length_c                    28.3115
_cell_angle_alpha                 90.0000
_cell_angle_beta                  134.1746
_cell_angle_gamma                 90.0000
loop_
_atom_site_label
_atom_site_type_symbol
_atom_site_fract_x
_atom_site_fract_y
_atom_site_fract_z
_atom_site_U_iso_or_equiv
_atom_site_adp_type
_atom_site_occupancy
C1     C     0.93304   0.91828   0.65269   0.00000  Uiso   1.00
C2     C     0.84445   0.94238   0.59623   0.00000  Uiso   1.00
C3     C     0.77596   0.96534   0.59400   0.00000  Uiso   1.00
C4     C     0.70024   0.98512   0.53799   0.00000  Uiso   1.00
C5     C     0.56369   0.02300   0.45821   0.00000  Uiso   1.00
C6     C     0.89569   0.88336   0.62244   0.00000  Uiso   1.00
C7     C     0.87030   0.85670   0.64226   0.00000  Uiso   1.00
C8     C     0.83774   0.82680   0.60831   0.00000  Uiso   1.00
C9     C     0.78083   0.77306   0.56925   0.00000  Uiso   1.00
C10    C     0.05027   0.92519   0.67394   0.00000  Uiso   1.00
C11    C     0.15486   0.93368   0.73705   0.00000  Uiso   1.00
C12    C     0.25245   0.93898   0.74646   0.00000  Uiso   1.00
C13    C     0.43554   0.95017   0.78735   0.00000  Uiso   1.00
C14    C     0.92035   0.91258   0.55718   0.00000  Uiso   1.00
C15    C     0.83756   0.93928   0.54436   0.00000  Uiso   1.00
C16    C     0.76193   0.95903   0.48833   0.00000  Uiso   1.00
C17    C     0.69334   0.98202   0.48602   0.00000  Uiso   1.00
C18    C     0.88880   0.88027   0.57057   0.00000  Uiso   1.00
C19    C     0.85627   0.85040   0.53658   0.00000  Uiso   1.00
C20    C     0.83083   0.82370   0.55634   0.00000  Uiso   1.00
C21    C     0.04338   0.92209   0.62206   0.00000  Uiso   1.00
C22    C     0.14082   0.92738   0.63137   0.00000  Uiso   1.00
C23    C     0.24555   0.93588   0.69449   0.00000  Uiso   1.00
H24    H     0.93840   0.92069   0.69308   0.00000  Uiso   1.00
H25    H     0.78131   0.96772   0.63416   0.00000  Uiso   1.00
H26    H     0.87565   0.85911   0.68241   0.00000  Uiso   1.00
H27    H     0.16016   0.93607   0.77718   0.00000  Uiso   1.00
H28    H     0.60408   0.01850   0.54595   0.00000  Uiso   1.00
H29    H     0.80305   0.78947   0.64770   0.00000  Uiso   1.00
H30    H     0.40299   0.95177   0.84755   0.00000  Uiso   1.00
H31    H     0.91499   0.91017   0.51679   0.00000  Uiso   1.00
H32    H     0.75661   0.95663   0.44819   0.00000  Uiso   1.00
H33    H     0.85096   0.84801   0.49644   0.00000  Uiso   1.00
H34    H     0.13546   0.92498   0.59122   0.00000  Uiso   1.00
H35    H     0.58403   0.00949   0.39501   0.00000  Uiso   1.00
H36    H     0.78300   0.78047   0.49676   0.00000  Uiso   1.00
H37    H     0.38294   0.94277   0.69661   0.00000  Uiso   1.00
O38    O     0.49026   0.04474   0.42853   0.00000  Uiso   1.00
O39    O     0.75133   0.74427   0.56203   0.00000  Uiso   1.00
O40    O     0.53843   0.95720   0.82423   0.00000  Uiso   1.00
N41    N     0.62111   0.01001   0.51984   0.00000  Uiso   1.00
N42    N     0.80712   0.79588   0.61497   0.00000  Uiso   1.00
N43    N     0.36802   0.94761   0.80182   0.00000  Uiso   1.00
N44    N     0.61032   0.00516   0.43863   0.00000  Uiso   1.00
N45    N     0.79633   0.79104   0.53375   0.00000  Uiso   1.00
N46    N     0.35723   0.94277   0.72060   0.00000  Uiso   1.00
C47    C     0.43304   0.41828   0.65269   0.00000  Uiso   1.00
C48    C     0.34445   0.44238   0.59623   0.00000  Uiso   1.00
C49    C     0.27596   0.46534   0.59400   0.00000  Uiso   1.00
C50    C     0.20024   0.48512   0.53799   0.00000  Uiso   1.00
C51    C     0.06369   0.52300   0.45821   0.00000  Uiso   1.00
C52    C     0.39569   0.38336   0.62244   0.00000  Uiso   1.00
C53    C     0.37030   0.35670   0.64226   0.00000  Uiso   1.00
C54    C     0.33774   0.32680   0.60831   0.00000  Uiso   1.00
C55    C     0.28083   0.27306   0.56925   0.00000  Uiso   1.00
C56    C     0.55027   0.42519   0.67394   0.00000  Uiso   1.00
C57    C     0.65486   0.43368   0.73705   0.00000  Uiso   1.00
C58    C     0.75245   0.43898   0.74646   0.00000  Uiso   1.00
C59    C     0.93554   0.45017   0.78735   0.00000  Uiso   1.00
C60    C     0.42035   0.41258   0.55718   0.00000  Uiso   1.00
C61    C     0.33756   0.43928   0.54436   0.00000  Uiso   1.00
C62    C     0.26193   0.45903   0.48833   0.00000  Uiso   1.00
C63    C     0.19334   0.48202   0.48602   0.00000  Uiso   1.00
C64    C     0.38880   0.38027   0.57057   0.00000  Uiso   1.00
C65    C     0.35627   0.35040   0.53658   0.00000  Uiso   1.00
C66    C     0.33083   0.32370   0.55634   0.00000  Uiso   1.00
C67    C     0.54338   0.42209   0.62206   0.00000  Uiso   1.00
C68    C     0.64082   0.42738   0.63137   0.00000  Uiso   1.00
C69    C     0.74555   0.43588   0.69449   0.00000  Uiso   1.00
H70    H     0.43840   0.42069   0.69308   0.00000  Uiso   1.00
H71    H     0.28131   0.46772   0.63416   0.00000  Uiso   1.00
H72    H     0.37565   0.35911   0.68241   0.00000  Uiso   1.00
H73    H     0.66016   0.43607   0.77718   0.00000  Uiso   1.00
H74    H     0.10408   0.51850   0.54595   0.00000  Uiso   1.00
H75    H     0.30305   0.28947   0.64770   0.00000  Uiso   1.00
H76    H     0.90299   0.45177   0.84755   0.00000  Uiso   1.00
H77    H     0.41499   0.41017   0.51679   0.00000  Uiso   1.00
H78    H     0.25661   0.45663   0.44819   0.00000  Uiso   1.00
H79    H     0.35096   0.34801   0.49644   0.00000  Uiso   1.00
H80    H     0.63546   0.42498   0.59122   0.00000  Uiso   1.00
H81    H     0.08403   0.50949   0.39501   0.00000  Uiso   1.00
H82    H     0.28300   0.28047   0.49676   0.00000  Uiso   1.00
H83    H     0.88294   0.44277   0.69661   0.00000  Uiso   1.00
O84    O     0.99026   0.54474   0.42853   0.00000  Uiso   1.00
O85    O     0.25133   0.24427   0.56203   0.00000  Uiso   1.00
O86    O     0.03843   0.45720   0.82423   0.00000  Uiso   1.00
N87    N     0.12111   0.51001   0.51984   0.00000  Uiso   1.00
N88    N     0.30712   0.29588   0.61497   0.00000  Uiso   1.00
N89    N     0.86802   0.44761   0.80182   0.00000  Uiso   1.00
N90    N     0.11032   0.50516   0.43863   0.00000  Uiso   1.00
N91    N     0.29633   0.29104   0.53375   0.00000  Uiso   1.00
N92    N     0.85723   0.44277   0.72060   0.00000  Uiso   1.00
C93    C     0.06696   0.91828   0.84731   0.00000  Uiso   1.00
C94    C     0.15555   0.94238   0.90377   0.00000  Uiso   1.00
C95    C     0.22404   0.96534   0.90600   0.00000  Uiso   1.00
C96    C     0.29976   0.98512   0.96201   0.00000  Uiso   1.00
C97    C     0.43631   0.02300   0.04179   0.00000  Uiso   1.00
C98    C     0.10431   0.88336   0.87756   0.00000  Uiso   1.00
C99    C     0.12970   0.85670   0.85774   0.00000  Uiso   1.00
C100   C     0.16226   0.82680   0.89169   0.00000  Uiso   1.00
C101   C     0.21917   0.77306   0.93075   0.00000  Uiso   1.00
C102   C     0.94973   0.92519   0.82606   0.00000  Uiso   1.00
C103   C     0.84514   0.93368   0.76295   0.00000  Uiso   1.00
C104   C     0.74755   0.93898   0.75354   0.00000  Uiso   1.00
C105   C     0.56446   0.95017   0.71265   0.00000  Uiso   1.00
C106   C     0.07965   0.91258   0.94282   0.00000  Uiso   1.00
C107   C     0.16244   0.93928   0.95564   0.00000  Uiso   1.00
C108   C     0.23807   0.95903   0.01167   0.00000  Uiso   1.00
C109   C     0.30666   0.98202   0.01398   0.00000  Uiso   1.00
C110   C     0.11120   0.88027   0.92943   0.00000  Uiso   1.00
C111   C     0.14373   0.85040   0.96342   0.00000  Uiso   1.00
C112   C     0.16917   0.82370   0.94366   0.00000  Uiso   1.00
C113   C     0.95662   0.92209   0.87794   0.00000  Uiso   1.00
C114   C     0.85918   0.92738   0.86863   0.00000  Uiso   1.00
C115   C     0.75445   0.93588   0.80551   0.00000  Uiso   1.00
H116   H     0.06160   0.92069   0.80692   0.00000  Uiso   1.00
H117   H     0.21869   0.96772   0.86584   0.00000  Uiso   1.00
H118   H     0.12435   0.85911   0.81759   0.00000  Uiso   1.00
H119   H     0.83984   0.93607   0.72282   0.00000  Uiso   1.00
H120   H     0.39592   0.01850   0.95405   0.00000  Uiso   1.00
H121   H     0.19695   0.78947   0.85230   0.00000  Uiso   1.00
H122   H     0.59701   0.95177   0.65245   0.00000  Uiso   1.00
H123   H     0.08501   0.91017   0.98321   0.00000  Uiso   1.00
H124   H     0.24339   0.95663   0.05181   0.00000  Uiso   1.00
H125   H     0.14904   0.84801   0.00356   0.00000  Uiso   1.00
H126   H     0.86454   0.92498   0.90878   0.00000  Uiso   1.00
H127   H     0.41597   0.00949   0.10499   0.00000  Uiso   1.00
H128   H     0.21700   0.78047   0.00324   0.00000  Uiso   1.00
H129   H     0.61706   0.94277   0.80339   0.00000  Uiso   1.00
O130   O     0.50974   0.04474   0.07147   0.00000  Uiso   1.00
O131   O     0.24867   0.74427   0.93797   0.00000  Uiso   1.00
O132   O     0.46157   0.95720   0.67577   0.00000  Uiso   1.00
N133   N     0.37889   0.01001   0.98016   0.00000  Uiso   1.00
N134   N     0.19288   0.79588   0.88503   0.00000  Uiso   1.00
N135   N     0.63198   0.94761   0.69818   0.00000  Uiso   1.00
N136   N     0.38968   0.00516   0.06137   0.00000  Uiso   1.00
N137   N     0.20367   0.79104   0.96625   0.00000  Uiso   1.00
N138   N     0.64277   0.94277   0.77940   0.00000  Uiso   1.00
C139   C     0.56696   0.41828   0.84731   0.00000  Uiso   1.00
C140   C     0.65555   0.44238   0.90377   0.00000  Uiso   1.00
C141   C     0.72404   0.46534   0.90600   0.00000  Uiso   1.00
C142   C     0.79976   0.48512   0.96201   0.00000  Uiso   1.00
C143   C     0.93631   0.52300   0.04179   0.00000  Uiso   1.00
C144   C     0.60431   0.38336   0.87756   0.00000  Uiso   1.00
C145   C     0.62970   0.35670   0.85774   0.00000  Uiso   1.00
C146   C     0.66226   0.32680   0.89169   0.00000  Uiso   1.00
C147   C     0.71917   0.27306   0.93075   0.00000  Uiso   1.00
C148   C     0.44973   0.42519   0.82606   0.00000  Uiso   1.00
C149   C     0.34514   0.43368   0.76295   0.00000  Uiso   1.00
C150   C     0.24755   0.43898   0.75354   0.00000  Uiso   1.00
C151   C     0.06446   0.45017   0.71265   0.00000  Uiso   1.00
C152   C     0.57965   0.41258   0.94282   0.00000  Uiso   1.00
C153   C     0.66244   0.43928   0.95564   0.00000  Uiso   1.00
C154   C     0.73807   0.45903   0.01167   0.00000  Uiso   1.00
C155   C     0.80666   0.48202   0.01398   0.00000  Uiso   1.00
C156   C     0.61120   0.38027   0.92943   0.00000  Uiso   1.00
C157   C     0.64373   0.35040   0.96342   0.00000  Uiso   1.00
C158   C     0.66917   0.32370   0.94366   0.00000  Uiso   1.00
C159   C     0.45662   0.42209   0.87794   0.00000  Uiso   1.00
C160   C     0.35918   0.42738   0.86863   0.00000  Uiso   1.00
C161   C     0.25445   0.43588   0.80551   0.00000  Uiso   1.00
H162   H     0.56160   0.42069   0.80692   0.00000  Uiso   1.00
H163   H     0.71869   0.46772   0.86584   0.00000  Uiso   1.00
H164   H     0.62435   0.35911   0.81759   0.00000  Uiso   1.00
H165   H     0.33984   0.43607   0.72282   0.00000  Uiso   1.00
H166   H     0.89592   0.51850   0.95405   0.00000  Uiso   1.00
H167   H     0.69695   0.28947   0.85230   0.00000  Uiso   1.00
H168   H     0.09701   0.45177   0.65245   0.00000  Uiso   1.00
H169   H     0.58501   0.41017   0.98321   0.00000  Uiso   1.00
H170   H     0.74339   0.45663   0.05181   0.00000  Uiso   1.00
H171   H     0.64904   0.34801   0.00356   0.00000  Uiso   1.00
H172   H     0.36454   0.42498   0.90878   0.00000  Uiso   1.00
H173   H     0.91597   0.50949   0.10499   0.00000  Uiso   1.00
H174   H     0.71700   0.28047   0.00324   0.00000  Uiso   1.00
H175   H     0.11706   0.44277   0.80339   0.00000  Uiso   1.00
O176   O     0.00974   0.54474   0.07147   0.00000  Uiso   1.00
O177   O     0.74867   0.24427   0.93797   0.00000  Uiso   1.00
O178   O     0.96157   0.45720   0.67577   0.00000  Uiso   1.00
N179   N     0.87889   0.51001   0.98016   0.00000  Uiso   1.00
N180   N     0.69288   0.29588   0.88503   0.00000  Uiso   1.00
N181   N     0.13198   0.44761   0.69818   0.00000  Uiso   1.00
N182   N     0.88968   0.50516   0.06137   0.00000  Uiso   1.00
N183   N     0.70367   0.29104   0.96625   0.00000  Uiso   1.00
N184   N     0.14277   0.44277   0.77940   0.00000  Uiso   1.00
C185   C     0.06696   0.08172   0.34731   0.00000  Uiso   1.00
C186   C     0.15555   0.05762   0.40377   0.00000  Uiso   1.00
C187   C     0.22404   0.03466   0.40600   0.00000  Uiso   1.00
C188   C     0.29976   0.01488   0.46201   0.00000  Uiso   1.00
C189   C     0.43631   0.97700   0.54179   0.00000  Uiso   1.00
C190   C     0.10431   0.11664   0.37756   0.00000  Uiso   1.00
C191   C     0.12970   0.14330   0.35774   0.00000  Uiso   1.00
C192   C     0.16226   0.17320   0.39169   0.00000  Uiso   1.00
C193   C     0.21917   0.22694   0.43075   0.00000  Uiso   1.00
C194   C     0.94973   0.07481   0.32606   0.00000  Uiso   1.00
C195   C     0.84514   0.06632   0.26295   0.00000  Uiso   1.00
C196   C     0.74755   0.06102   0.25354   0.00000  Uiso   1.00
C197   C     0.56446   0.04983   0.21265   0.00000  Uiso   1.00
C198   C     0.07965   0.08742   0.44282   0.00000  Uiso   1.00
C199   C     0.16244   0.06072   0.45564   0.00000  Uiso   1.00
C200   C     0.23807   0.04097   0.51167   0.00000  Uiso   1.00
C201   C     0.30666   0.01798   0.51398   0.00000  Uiso   1.00
C202   C     0.11120   0.11973   0.42943   0.00000  Uiso   1.00
C203   C     0.14373   0.14960   0.46342   0.00000  Uiso   1.00
C204   C     0.16917   0.17630   0.44366   0.00000  Uiso   1.00
C205   C     0.95662   0.07791   0.37794   0.00000  Uiso   1.00
C206   C     0.85918   0.07262   0.36863   0.00000  Uiso   1.00
C207   C     0.75445   0.06412   0.30551   0.00000  Uiso   1.00
H208   H     0.06160   0.07931   0.30692   0.00000  Uiso   1.00
H209   H     0.21869   0.03228   0.36584   0.00000  Uiso   1.00
H210   H     0.12435   0.14089   0.31759   0.00000  Uiso   1.00
H211   H     0.83984   0.06393   0.22282   0.00000  Uiso   1.00
H212   H     0.39592   0.98150   0.45405   0.00000  Uiso   1.00
H213   H     0.19695   0.21053   0.35230   0.00000  Uiso   1.00
H214   H     0.59701   0.04823   0.15245   0.00000  Uiso   1.00
H215   H     0.08501   0.08983   0.48321   0.00000  Uiso   1.00
H216   H     0.24339   0.04337   0.55181   0.00000  Uiso   1.00
H217   H     0.14904   0.15199   0.50356   0.00000  Uiso   1.00
H218   H     0.86454   0.07502   0.40878   0.00000  Uiso   1.00
H219   H     0.41597   0.99051   0.60499   0.00000  Uiso   1.00
H220   H     0.21700   0.21953   0.50324   0.00000  Uiso   1.00
H221   H     0.61706   0.05723   0.30339   0.00000  Uiso   1.00
O222   O     0.50974   0.95526   0.57147   0.00000  Uiso   1.00
O223   O     0.24867   0.25573   0.43797   0.00000  Uiso   1.00
O224   O     0.46157   0.04280   0.17577   0.00000  Uiso   1.00
N225   N     0.37889   0.98999   0.48016   0.00000  Uiso   1.00
N226   N     0.19288   0.20412   0.38503   0.00000  Uiso   1.00
N227   N     0.63198   0.05239   0.19818   0.00000  Uiso   1.00
N228   N     0.38968   0.99484   0.56137   0.00000  Uiso   1.00
N229   N     0.20367   0.20896   0.46625   0.00000  Uiso   1.00
N230   N     0.64277   0.05723   0.27940   0.00000  Uiso   1.00
C231   C     0.56696   0.58172   0.34731   0.00000  Uiso   1.00
C232   C     0.65555   0.55762   0.40377   0.00000  Uiso   1.00
C233   C     0.72404   0.53466   0.40600   0.00000  Uiso   1.00
C234   C     0.79976   0.51488   0.46201   0.00000  Uiso   1.00
C235   C     0.93631   0.47700   0.54179   0.00000  Uiso   1.00
C236   C     0.60431   0.61664   0.37756   0.00000  Uiso   1.00
C237   C     0.62970   0.64330   0.35774   0.00000  Uiso   1.00
C238   C     0.66226   0.67320   0.39169   0.00000  Uiso   1.00
C239   C     0.71917   0.72694   0.43075   0.00000  Uiso   1.00
C240   C     0.44973   0.57481   0.32606   0.00000  Uiso   1.00
C241   C     0.34514   0.56632   0.26295   0.00000  Uiso   1.00
C242   C     0.24755   0.56102   0.25354   0.00000  Uiso   1.00
C243   C     0.06446   0.54983   0.21265   0.00000  Uiso   1.00
C244   C     0.57965   0.58742   0.44282   0.00000  Uiso   1.00
C245   C     0.66244   0.56072   0.45564   0.00000  Uiso   1.00
C246   C     0.73807   0.54097   0.51167   0.00000  Uiso   1.00
C247   C     0.80666   0.51798   0.51398   0.00000  Uiso   1.00
C248   C     0.61120   0.61973   0.42943   0.00000  Uiso   1.00
C249   C     0.64373   0.64960   0.46342   0.00000  Uiso   1.00
C250   C     0.66917   0.67630   0.44366   0.00000  Uiso   1.00
C251   C     0.45662   0.57791   0.37794   0.00000  Uiso   1.00
C252   C     0.35918   0.57262   0.36863   0.00000  Uiso   1.00
C253   C     0.25445   0.56412   0.30551   0.00000  Uiso   1.00
H254   H     0.56160   0.57931   0.30692   0.00000  Uiso   1.00
H255   H     0.71869   0.53228   0.36584   0.00000  Uiso   1.00
H256   H     0.62435   0.64089   0.31759   0.00000  Uiso   1.00
H257   H     0.33984   0.56393   0.22282   0.00000  Uiso   1.00
H258   H     0.89592   0.48150   0.45405   0.00000  Uiso   1.00
H259   H     0.69695   0.71053   0.35230   0.00000  Uiso   1.00
H260   H     0.09701   0.54823   0.15245   0.00000  Uiso   1.00
H261   H     0.58501   0.58983   0.48321   0.00000  Uiso   1.00
H262   H     0.74339   0.54337   0.55181   0.00000  Uiso   1.00
H263   H     0.64904   0.65199   0.50356   0.00000  Uiso   1.00
H264   H     0.36454   0.57502   0.40878   0.00000  Uiso   1.00
H265   H     0.91597   0.49051   0.60499   0.00000  Uiso   1.00
H266   H     0.71700   0.71953   0.50324   0.00000  Uiso   1.00
H267   H     0.11706   0.55723   0.30339   0.00000  Uiso   1.00
O268   O     0.00974   0.45526   0.57147   0.00000  Uiso   1.00
O269   O     0.74867   0.75573   0.43797   0.00000  Uiso   1.00
O270   O     0.96157   0.54280   0.17577   0.00000  Uiso   1.00
N271   N     0.87889   0.48999   0.48016   0.00000  Uiso   1.00
N272   N     0.69288   0.70412   0.38503   0.00000  Uiso   1.00
N273   N     0.13198   0.55239   0.19818   0.00000  Uiso   1.00
N274   N     0.88968   0.49484   0.56137   0.00000  Uiso   1.00
N275   N     0.70367   0.70896   0.46625   0.00000  Uiso   1.00
N276   N     0.14277   0.55723   0.27940   0.00000  Uiso   1.00
C277   C     0.93304   0.08172   0.15269   0.00000  Uiso   1.00
C278   C     0.84445   0.05762   0.09623   0.00000  Uiso   1.00
C279   C     0.77596   0.03466   0.09400   0.00000  Uiso   1.00
C280   C     0.70024   0.01488   0.03799   0.00000  Uiso   1.00
C281   C     0.56369   0.97700   0.95821   0.00000  Uiso   1.00
C282   C     0.89569   0.11664   0.12244   0.00000  Uiso   1.00
C283   C     0.87030   0.14330   0.14226   0.00000  Uiso   1.00
C284   C     0.83774   0.17320   0.10831   0.00000  Uiso   1.00
C285   C     0.78083   0.22694   0.06925   0.00000  Uiso   1.00
C286   C     0.05027   0.07481   0.17394   0.00000  Uiso   1.00
C287   C     0.15486   0.06632   0.23705   0.00000  Uiso   1.00
C288   C     0.25245   0.06102   0.24646   0.00000  Uiso   1.00
C289   C     0.43554   0.04983   0.28735   0.00000  Uiso   1.00
C290   C     0.92035   0.08742   0.05718   0.00000  Uiso   1.00
C291   C     0.83756   0.06072   0.04436   0.00000  Uiso   1.00
C292   C     0.76193   0.04097   0.98833   0.00000  Uiso   1.00
C293   C     0.69334   0.01798   0.98602   0.00000  Uiso   1.00
C294   C     0.88880   0.11973   0.07057   0.00000  Uiso   1.00
C295   C     0.85627   0.14960   0.03658   0.00000  Uiso   1.00
C296   C     0.83083   0.17630   0.05634   0.00000  Uiso   1.00
C297   C     0.04338   0.07791   0.12206   0.00000  Uiso   1.00
C298   C     0.14082   0.07262   0.13137   0.00000  Uiso   1.00
C299   C     0.24555   0.06412   0.19449   0.00000  Uiso   1.00
H300   H     0.93840   0.07931   0.19308   0.00000  Uiso   1.00
H301   H     0.78131   0.03228   0.13416   0.00000  Uiso   1.00
H302   H     0.87565   0.14089   0.18241   0.00000  Uiso   1.00
H303   H     0.16016   0.06393   0.27718   0.00000  Uiso   1.00
H304   H     0.60408   0.98150   0.04595   0.00000  Uiso   1.00
H305   H     0.80305   0.21053   0.14770   0.00000  Uiso   1.00
H306   H     0.40299   0.04823   0.34755   0.00000  Uiso   1.00
H307   H     0.91499   0.08983   0.01679   0.00000  Uiso   1.00
H308   H     0.75661   0.04337   0.94819   0.00000  Uiso   1.00
H309   H     0.85096   0.15199   0.99644   0.00000  Uiso   1.00
H310   H     0.13546   0.07502   0.09122   0.00000  Uiso   1.00
H311   H     0.58403   0.99051   0.89501   0.00000  Uiso   1.00
H312   H     0.78300   0.21953   0.99676   0.00000  Uiso   1.00
H313   H     0.38294   0.05723   0.19661   0.00000  Uiso   1.00
O314   O     0.49026   0.95526   0.92853   0.00000  Uiso   1.00
O315   O     0.75133   0.25573   0.06203   0.00000  Uiso   1.00
O316   O     0.53843   0.04280   0.32423   0.00000  Uiso   1.00
N317   N     0.62111   0.98999   0.01984   0.00000  Uiso   1.00
N318   N     0.80712   0.20412   0.11497   0.00000  Uiso   1.00
N319   N     0.36802   0.05239   0.30182   0.00000  Uiso   1.00
N320   N     0.61032   0.99484   0.93863   0.00000  Uiso   1.00
N321   N     0.79633   0.20896   0.03375   0.00000  Uiso   1.00
N322   N     0.35723   0.05723   0.22060   0.00000  Uiso   1.00
C323   C     0.43304   0.58172   0.15269   0.00000  Uiso   1.00
C324   C     0.34445   0.55762   0.09623   0.00000  Uiso   1.00
C325   C     0.27596   0.53466   0.09400   0.00000  Uiso   1.00
C326   C     0.20024   0.51488   0.03799   0.00000  Uiso   1.00
C327   C     0.06369   0.47700   0.95821   0.00000  Uiso   1.00
C328   C     0.39569   0.61664   0.12244   0.00000  Uiso   1.00
C329   C     0.37030   0.64330   0.14226   0.00000  Uiso   1.00
C330   C     0.33774   0.67320   0.10831   0.00000  Uiso   1.00
C331   C     0.28083   0.72694   0.06925   0.00000  Uiso   1.00
C332   C     0.55027   0.57481   0.17394   0.00000  Uiso   1.00
C333   C     0.65486   0.56632   0.23705   0.00000  Uiso   1.00
C334   C     0.75245   0.56102   0.24646   0.00000  Uiso   1.00
C335   C     0.93554   0.54983   0.28735   0.00000  Uiso   1.00
C336   C     0.42035   0.58742   0.05718   0.00000  Uiso   1.00
C337   C     0.33756   0.56072   0.04436   0.00000  Uiso   1.00
C338   C     0.26193   0.54097   0.98833   0.00000  Uiso   1.00
C339   C     0.19334   0.51798   0.98602   0.00000  Uiso   1.00
C340   C     0.38880   0.61973   0.07057   0.00000  Uiso   1.00
C341   C     0.35627   0.64960   0.03658   0.00000  Uiso   1.00
C342   C     0.33083   0.67630   0.05634   0.00000  Uiso   1.00
C343   C     0.54338   0.57791   0.12206   0.00000  Uiso   1.00
C344   C     0.64082   0.57262   0.13137   0.00000  Uiso   1.00
C345   C     0.74555   0.56412   0.19449   0.00000  Uiso   1.00
H346   H     0.43840   0.57931   0.19308   0.00000  Uiso   1.00
H347   H     0.28131   0.53228   0.13416   0.00000  Uiso   1.00
H348   H     0.37565   0.64089   0.18241   0.00000  Uiso   1.00
H349   H     0.66016   0.56393   0.27718   0.00000  Uiso   1.00
H350   H     0.10408   0.48150   0.04595   0.00000  Uiso   1.00
H351   H     0.30305   0.71053   0.14770   0.00000  Uiso   1.00
H352   H     0.90299   0.54823   0.34755   0.00000  Uiso   1.00
H353   H     0.41499   0.58983   0.01679   0.00000  Uiso   1.00
H354   H     0.25661   0.54337   0.94819   0.00000  Uiso   1.00
H355   H     0.35096   0.65199   0.99644   0.00000  Uiso   1.00
H356   H     0.63546   0.57502   0.09122   0.00000  Uiso   1.00
H357   H     0.08403   0.49051   0.89501   0.00000  Uiso   1.00
H358   H     0.28300   0.71953   0.99676   0.00000  Uiso   1.00
H359   H     0.88294   0.55723   0.19661   0.00000  Uiso   1.00
O360   O     0.99026   0.45526   0.92853   0.00000  Uiso   1.00
O361   O     0.25133   0.75573   0.06203   0.00000  Uiso   1.00
O362   O     0.03843   0.54280   0.32423   0.00000  Uiso   1.00
N363   N     0.12111   0.48999   0.01984   0.00000  Uiso   1.00
N364   N     0.30712   0.70412   0.11497   0.00000  Uiso   1.00
N365   N     0.86802   0.55239   0.30182   0.00000  Uiso   1.00
N366   N     0.11032   0.49484   0.93863   0.00000  Uiso   1.00
N367   N     0.29633   0.70896   0.03375   0.00000  Uiso   1.00
N368   N     0.85723   0.55723   0.22060   0.00000  Uiso   1.00
