data_job_03667
_audit_creation_date              2018-12-19
_audit_creation_method            'Materials Studio'
_symmetry_space_group_name_H-M    'P1'
_symmetry_Int_Tables_number       1
_symmetry_cell_setting            triclinic
loop_
_symmetry_equiv_pos_as_xyz
  x,y,z
_cell_length_a                    12.9407
_cell_length_b                    12.9407
_cell_length_c                    38.1946
_cell_angle_alpha                 90.0000
_cell_angle_beta                  90.0000
_cell_angle_gamma                 90.0000
loop_
_atom_site_label
_atom_site_type_symbol
_atom_site_fract_x
_atom_site_fract_y
_atom_site_fract_z
_atom_site_U_iso_or_equiv
_atom_site_adp_type
_atom_site_occupancy
C1     C     0.98034   0.28967   0.82728   0.00000  Uiso   1.00
C2     C     0.96499   0.39470   0.84463   0.00000  Uiso   1.00
C3     C     0.88051   0.45931   0.83998   0.00000  Uiso   1.00
C4     C     0.88102   0.55218   0.85818   0.00000  Uiso   1.00
C5     C     0.84472   0.71115   0.88174   0.00000  Uiso   1.00
C6     C     0.08336   0.29593   0.80801   0.00000  Uiso   1.00
C7     C     0.09839   0.27748   0.77258   0.00000  Uiso   1.00
C8     C     0.19855   0.28718   0.75997   0.00000  Uiso   1.00
C9     C     0.34603   0.29273   0.72669   0.00000  Uiso   1.00
C10    C     0.99624   0.21268   0.85702   0.00000  Uiso   1.00
C11    C     0.93805   0.12422   0.86280   0.00000  Uiso   1.00
C12    C     0.96488   0.06383   0.89144   0.00000  Uiso   1.00
C13    C     0.97710   0.94013   0.93425   0.00000  Uiso   1.00
C14    C     0.13147   0.33970   0.86787   0.00000  Uiso   1.00
C15    C     0.04708   0.42187   0.86667   0.00000  Uiso   1.00
C16    C     0.04772   0.51467   0.88489   0.00000  Uiso   1.00
C17    C     0.96325   0.57941   0.88027   0.00000  Uiso   1.00
C18    C     0.16544   0.32310   0.83006   0.00000  Uiso   1.00
C19    C     0.26560   0.33283   0.81749   0.00000  Uiso   1.00
C20    C     0.28078   0.31441   0.78205   0.00000  Uiso   1.00
C21    C     0.07833   0.23986   0.87907   0.00000  Uiso   1.00
C22    C     0.10526   0.17958   0.90771   0.00000  Uiso   1.00
C23    C     0.04711   0.09106   0.91352   0.00000  Uiso   1.00
H24    H     0.91644   0.26852   0.81012   0.00000  Uiso   1.00
H25    H     0.81700   0.43826   0.82291   0.00000  Uiso   1.00
H26    H     0.03485   0.25644   0.75553   0.00000  Uiso   1.00
H27    H     0.87453   0.10322   0.84573   0.00000  Uiso   1.00
H28    H     0.74298   0.63845   0.84681   0.00000  Uiso   1.00
H29    H     0.20234   0.25504   0.70473   0.00000  Uiso   1.00
H30    H     0.86427   0.93194   0.89493   0.00000  Uiso   1.00
H31    H     0.19538   0.36086   0.88504   0.00000  Uiso   1.00
H32    H     0.11125   0.53567   0.90195   0.00000  Uiso   1.00
H33    H     0.32910   0.35385   0.83456   0.00000  Uiso   1.00
H34    H     0.16878   0.20064   0.92476   0.00000  Uiso   1.00
H35    H     0.98181   0.71752   0.91095   0.00000  Uiso   1.00
H36    H     0.44117   0.33410   0.76888   0.00000  Uiso   1.00
H37    H     0.10310   0.01101   0.95908   0.00000  Uiso   1.00
O38    O     0.80204   0.79134   0.88864   0.00000  Uiso   1.00
O39    O     0.40469   0.28829   0.70225   0.00000  Uiso   1.00
O40    O     0.96115   0.86440   0.95179   0.00000  Uiso   1.00
N41    N     0.81073   0.63306   0.85959   0.00000  Uiso   1.00
N42    N     0.24019   0.27461   0.72676   0.00000  Uiso   1.00
N43    N     0.92415   0.97253   0.90457   0.00000  Uiso   1.00
N44    N     0.93924   0.67561   0.89411   0.00000  Uiso   1.00
N45    N     0.36870   0.31716   0.76127   0.00000  Uiso   1.00
N46    N     0.05266   0.01507   0.93909   0.00000  Uiso   1.00
C47    C     0.01966   0.71033   0.32728   0.00000  Uiso   1.00
C48    C     0.03501   0.60530   0.34463   0.00000  Uiso   1.00
C49    C     0.11949   0.54069   0.33998   0.00000  Uiso   1.00
C50    C     0.11898   0.44782   0.35818   0.00000  Uiso   1.00
C51    C     0.15528   0.28885   0.38174   0.00000  Uiso   1.00
C52    C     0.91664   0.70407   0.30801   0.00000  Uiso   1.00
C53    C     0.90161   0.72252   0.27258   0.00000  Uiso   1.00
C54    C     0.80145   0.71282   0.25997   0.00000  Uiso   1.00
C55    C     0.65397   0.70727   0.22669   0.00000  Uiso   1.00
C56    C     0.00376   0.78732   0.35702   0.00000  Uiso   1.00
C57    C     0.06195   0.87578   0.36280   0.00000  Uiso   1.00
C58    C     0.03512   0.93617   0.39144   0.00000  Uiso   1.00
C59    C     0.02290   0.05987   0.43425   0.00000  Uiso   1.00
C60    C     0.86853   0.66030   0.36787   0.00000  Uiso   1.00
C61    C     0.95292   0.57813   0.36667   0.00000  Uiso   1.00
C62    C     0.95228   0.48533   0.38489   0.00000  Uiso   1.00
C63    C     0.03675   0.42059   0.38027   0.00000  Uiso   1.00
C64    C     0.83456   0.67690   0.33006   0.00000  Uiso   1.00
C65    C     0.73440   0.66717   0.31749   0.00000  Uiso   1.00
C66    C     0.71922   0.68559   0.28205   0.00000  Uiso   1.00
C67    C     0.92167   0.76014   0.37907   0.00000  Uiso   1.00
C68    C     0.89474   0.82042   0.40771   0.00000  Uiso   1.00
C69    C     0.95289   0.90894   0.41352   0.00000  Uiso   1.00
H70    H     0.08356   0.73148   0.31012   0.00000  Uiso   1.00
H71    H     0.18300   0.56174   0.32291   0.00000  Uiso   1.00
H72    H     0.96515   0.74356   0.25553   0.00000  Uiso   1.00
H73    H     0.12547   0.89678   0.34573   0.00000  Uiso   1.00
H74    H     0.25702   0.36155   0.34681   0.00000  Uiso   1.00
H75    H     0.79766   0.74496   0.20473   0.00000  Uiso   1.00
H76    H     0.13573   0.06806   0.39493   0.00000  Uiso   1.00
H77    H     0.80462   0.63914   0.38504   0.00000  Uiso   1.00
H78    H     0.88875   0.46433   0.40195   0.00000  Uiso   1.00
H79    H     0.67090   0.64615   0.33456   0.00000  Uiso   1.00
H80    H     0.83122   0.79936   0.42476   0.00000  Uiso   1.00
H81    H     0.01819   0.28248   0.41095   0.00000  Uiso   1.00
H82    H     0.55883   0.66590   0.26888   0.00000  Uiso   1.00
H83    H     0.89690   0.98899   0.45908   0.00000  Uiso   1.00
O84    O     0.19796   0.20866   0.38864   0.00000  Uiso   1.00
O85    O     0.59531   0.71171   0.20225   0.00000  Uiso   1.00
O86    O     0.03885   0.13560   0.45179   0.00000  Uiso   1.00
N87    N     0.18927   0.36694   0.35959   0.00000  Uiso   1.00
N88    N     0.75981   0.72539   0.22676   0.00000  Uiso   1.00
N89    N     0.07585   0.02747   0.40457   0.00000  Uiso   1.00
N90    N     0.06076   0.32439   0.39411   0.00000  Uiso   1.00
N91    N     0.63130   0.68284   0.26127   0.00000  Uiso   1.00
N92    N     0.94734   0.98493   0.43909   0.00000  Uiso   1.00
C93    C     0.21033   0.48034   0.57728   0.00000  Uiso   1.00
C94    C     0.10530   0.46499   0.59463   0.00000  Uiso   1.00
C95    C     0.04069   0.38051   0.58998   0.00000  Uiso   1.00
C96    C     0.94782   0.38102   0.60818   0.00000  Uiso   1.00
C97    C     0.78885   0.34472   0.63174   0.00000  Uiso   1.00
C98    C     0.20407   0.58336   0.55801   0.00000  Uiso   1.00
C99    C     0.22252   0.59839   0.52258   0.00000  Uiso   1.00
C100   C     0.21282   0.69855   0.50997   0.00000  Uiso   1.00
C101   C     0.20727   0.84603   0.47669   0.00000  Uiso   1.00
C102   C     0.28732   0.49624   0.60702   0.00000  Uiso   1.00
C103   C     0.37578   0.43805   0.61280   0.00000  Uiso   1.00
C104   C     0.43617   0.46488   0.64144   0.00000  Uiso   1.00
C105   C     0.55987   0.47710   0.68425   0.00000  Uiso   1.00
C106   C     0.16030   0.63147   0.61787   0.00000  Uiso   1.00
C107   C     0.07813   0.54708   0.61667   0.00000  Uiso   1.00
C108   C     0.98533   0.54772   0.63489   0.00000  Uiso   1.00
C109   C     0.92059   0.46325   0.63027   0.00000  Uiso   1.00
C110   C     0.17690   0.66544   0.58006   0.00000  Uiso   1.00
C111   C     0.16717   0.76560   0.56749   0.00000  Uiso   1.00
C112   C     0.18559   0.78078   0.53205   0.00000  Uiso   1.00
C113   C     0.26014   0.57833   0.62907   0.00000  Uiso   1.00
C114   C     0.32042   0.60526   0.65771   0.00000  Uiso   1.00
C115   C     0.40894   0.54711   0.66352   0.00000  Uiso   1.00
H116   H     0.23148   0.41644   0.56012   0.00000  Uiso   1.00
H117   H     0.06174   0.31700   0.57291   0.00000  Uiso   1.00
H118   H     0.24356   0.53485   0.50553   0.00000  Uiso   1.00
H119   H     0.39678   0.37453   0.59573   0.00000  Uiso   1.00
H120   H     0.86155   0.24298   0.59681   0.00000  Uiso   1.00
H121   H     0.24496   0.70234   0.45473   0.00000  Uiso   1.00
H122   H     0.56806   0.36427   0.64493   0.00000  Uiso   1.00
H123   H     0.13914   0.69538   0.63504   0.00000  Uiso   1.00
H124   H     0.96433   0.61125   0.65195   0.00000  Uiso   1.00
H125   H     0.14615   0.82910   0.58456   0.00000  Uiso   1.00
H126   H     0.29936   0.66878   0.67476   0.00000  Uiso   1.00
H127   H     0.78248   0.48181   0.66095   0.00000  Uiso   1.00
H128   H     0.16590   0.94117   0.51888   0.00000  Uiso   1.00
H129   H     0.48899   0.60310   0.70908   0.00000  Uiso   1.00
O130   O     0.70866   0.30204   0.63864   0.00000  Uiso   1.00
O131   O     0.21171   0.90469   0.45225   0.00000  Uiso   1.00
O132   O     0.63560   0.46115   0.70179   0.00000  Uiso   1.00
N133   N     0.86694   0.31073   0.60959   0.00000  Uiso   1.00
N134   N     0.22539   0.74019   0.47676   0.00000  Uiso   1.00
N135   N     0.52747   0.42415   0.65457   0.00000  Uiso   1.00
N136   N     0.82439   0.43924   0.64411   0.00000  Uiso   1.00
N137   N     0.18284   0.86870   0.51127   0.00000  Uiso   1.00
N138   N     0.48493   0.55266   0.68909   0.00000  Uiso   1.00
C139   C     0.78967   0.51966   0.07728   0.00000  Uiso   1.00
C140   C     0.89470   0.53501   0.09463   0.00000  Uiso   1.00
C141   C     0.95931   0.61949   0.08998   0.00000  Uiso   1.00
C142   C     0.05218   0.61898   0.10818   0.00000  Uiso   1.00
C143   C     0.21115   0.65528   0.13174   0.00000  Uiso   1.00
C144   C     0.79593   0.41664   0.05801   0.00000  Uiso   1.00
C145   C     0.77748   0.40161   0.02258   0.00000  Uiso   1.00
C146   C     0.78718   0.30145   0.00997   0.00000  Uiso   1.00
C147   C     0.79273   0.15397   0.97669   0.00000  Uiso   1.00
C148   C     0.71268   0.50376   0.10702   0.00000  Uiso   1.00
C149   C     0.62422   0.56195   0.11280   0.00000  Uiso   1.00
C150   C     0.56383   0.53512   0.14144   0.00000  Uiso   1.00
C151   C     0.44013   0.52290   0.18425   0.00000  Uiso   1.00
C152   C     0.83970   0.36853   0.11787   0.00000  Uiso   1.00
C153   C     0.92187   0.45292   0.11667   0.00000  Uiso   1.00
C154   C     0.01467   0.45228   0.13489   0.00000  Uiso   1.00
C155   C     0.07941   0.53675   0.13027   0.00000  Uiso   1.00
C156   C     0.82310   0.33456   0.08006   0.00000  Uiso   1.00
C157   C     0.83283   0.23440   0.06749   0.00000  Uiso   1.00
C158   C     0.81441   0.21922   0.03205   0.00000  Uiso   1.00
C159   C     0.73986   0.42167   0.12907   0.00000  Uiso   1.00
C160   C     0.67958   0.39474   0.15771   0.00000  Uiso   1.00
C161   C     0.59106   0.45289   0.16352   0.00000  Uiso   1.00
H162   H     0.76852   0.58356   0.06012   0.00000  Uiso   1.00
H163   H     0.93826   0.68300   0.07291   0.00000  Uiso   1.00
H164   H     0.75644   0.46515   0.00553   0.00000  Uiso   1.00
H165   H     0.60322   0.62547   0.09573   0.00000  Uiso   1.00
H166   H     0.13845   0.75702   0.09681   0.00000  Uiso   1.00
H167   H     0.75504   0.29766   0.95473   0.00000  Uiso   1.00
H168   H     0.43194   0.63573   0.14493   0.00000  Uiso   1.00
H169   H     0.86086   0.30462   0.13504   0.00000  Uiso   1.00
H170   H     0.03567   0.38875   0.15195   0.00000  Uiso   1.00
H171   H     0.85385   0.17090   0.08456   0.00000  Uiso   1.00
H172   H     0.70064   0.33122   0.17476   0.00000  Uiso   1.00
H173   H     0.21752   0.51819   0.16095   0.00000  Uiso   1.00
H174   H     0.83410   0.05883   0.01888   0.00000  Uiso   1.00
H175   H     0.51101   0.39690   0.20908   0.00000  Uiso   1.00
O176   O     0.29134   0.69796   0.13864   0.00000  Uiso   1.00
O177   O     0.78829   0.09531   0.95225   0.00000  Uiso   1.00
O178   O     0.36440   0.53885   0.20179   0.00000  Uiso   1.00
N179   N     0.13306   0.68927   0.10959   0.00000  Uiso   1.00
N180   N     0.77461   0.25981   0.97676   0.00000  Uiso   1.00
N181   N     0.47253   0.57585   0.15457   0.00000  Uiso   1.00
N182   N     0.17561   0.56076   0.14411   0.00000  Uiso   1.00
N183   N     0.81716   0.13130   0.01127   0.00000  Uiso   1.00
N184   N     0.51507   0.44734   0.18909   0.00000  Uiso   1.00
C185   C     0.51966   0.78967   0.92272   0.00000  Uiso   1.00
C186   C     0.53501   0.89470   0.90537   0.00000  Uiso   1.00
C187   C     0.61949   0.95931   0.91002   0.00000  Uiso   1.00
C188   C     0.61898   0.05218   0.89182   0.00000  Uiso   1.00
C189   C     0.65528   0.21115   0.86826   0.00000  Uiso   1.00
C190   C     0.41664   0.79593   0.94199   0.00000  Uiso   1.00
C191   C     0.40161   0.77748   0.97742   0.00000  Uiso   1.00
C192   C     0.30145   0.78718   0.99003   0.00000  Uiso   1.00
C193   C     0.15397   0.79273   0.02331   0.00000  Uiso   1.00
C194   C     0.50376   0.71268   0.89298   0.00000  Uiso   1.00
C195   C     0.56195   0.62422   0.88720   0.00000  Uiso   1.00
C196   C     0.53512   0.56383   0.85856   0.00000  Uiso   1.00
C197   C     0.52290   0.44013   0.81575   0.00000  Uiso   1.00
C198   C     0.36853   0.83970   0.88213   0.00000  Uiso   1.00
C199   C     0.45292   0.92187   0.88333   0.00000  Uiso   1.00
C200   C     0.45228   0.01467   0.86511   0.00000  Uiso   1.00
C201   C     0.53675   0.07941   0.86973   0.00000  Uiso   1.00
C202   C     0.33456   0.82310   0.91994   0.00000  Uiso   1.00
C203   C     0.23440   0.83283   0.93251   0.00000  Uiso   1.00
C204   C     0.21922   0.81441   0.96795   0.00000  Uiso   1.00
C205   C     0.42167   0.73986   0.87093   0.00000  Uiso   1.00
C206   C     0.39474   0.67958   0.84229   0.00000  Uiso   1.00
C207   C     0.45289   0.59106   0.83648   0.00000  Uiso   1.00
H208   H     0.58356   0.76852   0.93988   0.00000  Uiso   1.00
H209   H     0.68300   0.93826   0.92709   0.00000  Uiso   1.00
H210   H     0.46515   0.75644   0.99447   0.00000  Uiso   1.00
H211   H     0.62547   0.60322   0.90427   0.00000  Uiso   1.00
H212   H     0.75702   0.13845   0.90319   0.00000  Uiso   1.00
H213   H     0.29766   0.75504   0.04527   0.00000  Uiso   1.00
H214   H     0.63573   0.43194   0.85507   0.00000  Uiso   1.00
H215   H     0.30462   0.86086   0.86496   0.00000  Uiso   1.00
H216   H     0.38875   0.03567   0.84805   0.00000  Uiso   1.00
H217   H     0.17090   0.85385   0.91544   0.00000  Uiso   1.00
H218   H     0.33122   0.70064   0.82524   0.00000  Uiso   1.00
H219   H     0.51819   0.21752   0.83905   0.00000  Uiso   1.00
H220   H     0.05883   0.83410   0.98112   0.00000  Uiso   1.00
H221   H     0.39690   0.51101   0.79092   0.00000  Uiso   1.00
O222   O     0.69796   0.29134   0.86136   0.00000  Uiso   1.00
O223   O     0.09531   0.78829   0.04775   0.00000  Uiso   1.00
O224   O     0.53885   0.36440   0.79821   0.00000  Uiso   1.00
N225   N     0.68927   0.13306   0.89041   0.00000  Uiso   1.00
N226   N     0.25981   0.77461   0.02324   0.00000  Uiso   1.00
N227   N     0.57585   0.47253   0.84543   0.00000  Uiso   1.00
N228   N     0.56076   0.17561   0.85589   0.00000  Uiso   1.00
N229   N     0.13130   0.81716   0.98873   0.00000  Uiso   1.00
N230   N     0.44734   0.51507   0.81091   0.00000  Uiso   1.00
C231   C     0.48034   0.21033   0.42272   0.00000  Uiso   1.00
C232   C     0.46499   0.10530   0.40537   0.00000  Uiso   1.00
C233   C     0.38051   0.04069   0.41002   0.00000  Uiso   1.00
C234   C     0.38102   0.94782   0.39182   0.00000  Uiso   1.00
C235   C     0.34472   0.78885   0.36826   0.00000  Uiso   1.00
C236   C     0.58336   0.20407   0.44199   0.00000  Uiso   1.00
C237   C     0.59839   0.22252   0.47742   0.00000  Uiso   1.00
C238   C     0.69855   0.21282   0.49003   0.00000  Uiso   1.00
C239   C     0.84603   0.20727   0.52331   0.00000  Uiso   1.00
C240   C     0.49624   0.28732   0.39298   0.00000  Uiso   1.00
C241   C     0.43805   0.37578   0.38720   0.00000  Uiso   1.00
C242   C     0.46488   0.43617   0.35856   0.00000  Uiso   1.00
C243   C     0.47710   0.55987   0.31575   0.00000  Uiso   1.00
C244   C     0.63147   0.16030   0.38213   0.00000  Uiso   1.00
C245   C     0.54708   0.07813   0.38333   0.00000  Uiso   1.00
C246   C     0.54772   0.98533   0.36511   0.00000  Uiso   1.00
C247   C     0.46325   0.92059   0.36973   0.00000  Uiso   1.00
C248   C     0.66544   0.17690   0.41994   0.00000  Uiso   1.00
C249   C     0.76560   0.16717   0.43251   0.00000  Uiso   1.00
C250   C     0.78078   0.18559   0.46795   0.00000  Uiso   1.00
C251   C     0.57833   0.26014   0.37093   0.00000  Uiso   1.00
C252   C     0.60526   0.32042   0.34229   0.00000  Uiso   1.00
C253   C     0.54711   0.40894   0.33648   0.00000  Uiso   1.00
H254   H     0.41644   0.23148   0.43988   0.00000  Uiso   1.00
H255   H     0.31700   0.06174   0.42709   0.00000  Uiso   1.00
H256   H     0.53485   0.24356   0.49447   0.00000  Uiso   1.00
H257   H     0.37453   0.39678   0.40427   0.00000  Uiso   1.00
H258   H     0.24298   0.86155   0.40319   0.00000  Uiso   1.00
H259   H     0.70234   0.24496   0.54527   0.00000  Uiso   1.00
H260   H     0.36427   0.56806   0.35507   0.00000  Uiso   1.00
H261   H     0.69538   0.13914   0.36496   0.00000  Uiso   1.00
H262   H     0.61125   0.96433   0.34805   0.00000  Uiso   1.00
H263   H     0.82910   0.14615   0.41544   0.00000  Uiso   1.00
H264   H     0.66878   0.29936   0.32524   0.00000  Uiso   1.00
H265   H     0.48181   0.78248   0.33905   0.00000  Uiso   1.00
H266   H     0.94117   0.16590   0.48112   0.00000  Uiso   1.00
H267   H     0.60310   0.48899   0.29092   0.00000  Uiso   1.00
O268   O     0.30204   0.70866   0.36136   0.00000  Uiso   1.00
O269   O     0.90469   0.21171   0.54775   0.00000  Uiso   1.00
O270   O     0.46115   0.63560   0.29821   0.00000  Uiso   1.00
N271   N     0.31073   0.86694   0.39041   0.00000  Uiso   1.00
N272   N     0.74019   0.22539   0.52324   0.00000  Uiso   1.00
N273   N     0.42415   0.52747   0.34543   0.00000  Uiso   1.00
N274   N     0.43924   0.82439   0.35589   0.00000  Uiso   1.00
N275   N     0.86870   0.18284   0.48873   0.00000  Uiso   1.00
N276   N     0.55266   0.48493   0.31091   0.00000  Uiso   1.00
C277   C     0.28967   0.98034   0.17272   0.00000  Uiso   1.00
C278   C     0.39470   0.96499   0.15537   0.00000  Uiso   1.00
C279   C     0.45931   0.88051   0.16002   0.00000  Uiso   1.00
C280   C     0.55218   0.88102   0.14182   0.00000  Uiso   1.00
C281   C     0.71115   0.84472   0.11826   0.00000  Uiso   1.00
C282   C     0.29593   0.08336   0.19199   0.00000  Uiso   1.00
C283   C     0.27748   0.09839   0.22742   0.00000  Uiso   1.00
C284   C     0.28718   0.19855   0.24003   0.00000  Uiso   1.00
C285   C     0.29273   0.34603   0.27331   0.00000  Uiso   1.00
C286   C     0.21268   0.99624   0.14298   0.00000  Uiso   1.00
C287   C     0.12422   0.93805   0.13720   0.00000  Uiso   1.00
C288   C     0.06383   0.96488   0.10856   0.00000  Uiso   1.00
C289   C     0.94013   0.97710   0.06575   0.00000  Uiso   1.00
C290   C     0.33970   0.13147   0.13213   0.00000  Uiso   1.00
C291   C     0.42187   0.04708   0.13333   0.00000  Uiso   1.00
C292   C     0.51467   0.04772   0.11511   0.00000  Uiso   1.00
C293   C     0.57941   0.96325   0.11973   0.00000  Uiso   1.00
C294   C     0.32310   0.16544   0.16994   0.00000  Uiso   1.00
C295   C     0.33283   0.26560   0.18251   0.00000  Uiso   1.00
C296   C     0.31441   0.28078   0.21795   0.00000  Uiso   1.00
C297   C     0.23986   0.07833   0.12093   0.00000  Uiso   1.00
C298   C     0.17958   0.10526   0.09229   0.00000  Uiso   1.00
C299   C     0.09106   0.04711   0.08648   0.00000  Uiso   1.00
H300   H     0.26852   0.91644   0.18988   0.00000  Uiso   1.00
H301   H     0.43826   0.81700   0.17709   0.00000  Uiso   1.00
H302   H     0.25644   0.03485   0.24447   0.00000  Uiso   1.00
H303   H     0.10322   0.87453   0.15427   0.00000  Uiso   1.00
H304   H     0.63845   0.74298   0.15319   0.00000  Uiso   1.00
H305   H     0.25504   0.20234   0.29527   0.00000  Uiso   1.00
H306   H     0.93194   0.86427   0.10507   0.00000  Uiso   1.00
H307   H     0.36086   0.19538   0.11496   0.00000  Uiso   1.00
H308   H     0.53567   0.11125   0.09805   0.00000  Uiso   1.00
H309   H     0.35385   0.32910   0.16544   0.00000  Uiso   1.00
H310   H     0.20064   0.16878   0.07524   0.00000  Uiso   1.00
H311   H     0.71752   0.98181   0.08905   0.00000  Uiso   1.00
H312   H     0.33410   0.44117   0.23112   0.00000  Uiso   1.00
H313   H     0.01101   0.10310   0.04092   0.00000  Uiso   1.00
O314   O     0.79134   0.80204   0.11136   0.00000  Uiso   1.00
O315   O     0.28829   0.40469   0.29775   0.00000  Uiso   1.00
O316   O     0.86440   0.96115   0.04821   0.00000  Uiso   1.00
N317   N     0.63306   0.81073   0.14041   0.00000  Uiso   1.00
N318   N     0.27461   0.24019   0.27324   0.00000  Uiso   1.00
N319   N     0.97253   0.92415   0.09543   0.00000  Uiso   1.00
N320   N     0.67561   0.93924   0.10589   0.00000  Uiso   1.00
N321   N     0.31716   0.36870   0.23873   0.00000  Uiso   1.00
N322   N     0.01507   0.05266   0.06091   0.00000  Uiso   1.00
C323   C     0.71033   0.01966   0.67272   0.00000  Uiso   1.00
C324   C     0.60530   0.03501   0.65537   0.00000  Uiso   1.00
C325   C     0.54069   0.11949   0.66002   0.00000  Uiso   1.00
C326   C     0.44782   0.11898   0.64182   0.00000  Uiso   1.00
C327   C     0.28885   0.15528   0.61826   0.00000  Uiso   1.00
C328   C     0.70407   0.91664   0.69199   0.00000  Uiso   1.00
C329   C     0.72252   0.90161   0.72742   0.00000  Uiso   1.00
C330   C     0.71282   0.80145   0.74003   0.00000  Uiso   1.00
C331   C     0.70727   0.65397   0.77331   0.00000  Uiso   1.00
C332   C     0.78732   0.00376   0.64298   0.00000  Uiso   1.00
C333   C     0.87578   0.06195   0.63720   0.00000  Uiso   1.00
C334   C     0.93617   0.03512   0.60856   0.00000  Uiso   1.00
C335   C     0.05987   0.02290   0.56575   0.00000  Uiso   1.00
C336   C     0.66030   0.86853   0.63213   0.00000  Uiso   1.00
C337   C     0.57813   0.95292   0.63333   0.00000  Uiso   1.00
C338   C     0.48533   0.95228   0.61511   0.00000  Uiso   1.00
C339   C     0.42059   0.03675   0.61973   0.00000  Uiso   1.00
C340   C     0.67690   0.83456   0.66994   0.00000  Uiso   1.00
C341   C     0.66717   0.73440   0.68251   0.00000  Uiso   1.00
C342   C     0.68559   0.71922   0.71795   0.00000  Uiso   1.00
C343   C     0.76014   0.92167   0.62093   0.00000  Uiso   1.00
C344   C     0.82042   0.89474   0.59229   0.00000  Uiso   1.00
C345   C     0.90894   0.95289   0.58648   0.00000  Uiso   1.00
H346   H     0.73148   0.08356   0.68988   0.00000  Uiso   1.00
H347   H     0.56174   0.18300   0.67709   0.00000  Uiso   1.00
H348   H     0.74356   0.96515   0.74447   0.00000  Uiso   1.00
H349   H     0.89678   0.12547   0.65427   0.00000  Uiso   1.00
H350   H     0.36155   0.25702   0.65319   0.00000  Uiso   1.00
H351   H     0.74496   0.79766   0.79527   0.00000  Uiso   1.00
H352   H     0.06806   0.13573   0.60507   0.00000  Uiso   1.00
H353   H     0.63914   0.80462   0.61496   0.00000  Uiso   1.00
H354   H     0.46433   0.88875   0.59805   0.00000  Uiso   1.00
H355   H     0.64615   0.67090   0.66544   0.00000  Uiso   1.00
H356   H     0.79936   0.83122   0.57524   0.00000  Uiso   1.00
H357   H     0.28248   0.01819   0.58905   0.00000  Uiso   1.00
H358   H     0.66590   0.55883   0.73112   0.00000  Uiso   1.00
H359   H     0.98899   0.89690   0.54092   0.00000  Uiso   1.00
O360   O     0.20866   0.19796   0.61136   0.00000  Uiso   1.00
O361   O     0.71171   0.59531   0.79775   0.00000  Uiso   1.00
O362   O     0.13560   0.03885   0.54821   0.00000  Uiso   1.00
N363   N     0.36694   0.18927   0.64041   0.00000  Uiso   1.00
N364   N     0.72539   0.75981   0.77324   0.00000  Uiso   1.00
N365   N     0.02747   0.07585   0.59543   0.00000  Uiso   1.00
N366   N     0.32439   0.06076   0.60589   0.00000  Uiso   1.00
N367   N     0.68284   0.63130   0.73873   0.00000  Uiso   1.00
N368   N     0.98493   0.94734   0.56091   0.00000  Uiso   1.00
