data_job_02275
_audit_creation_date              2018-12-19
_audit_creation_method            'Materials Studio'
_symmetry_space_group_name_H-M    'P1'
_symmetry_Int_Tables_number       1
_symmetry_cell_setting            triclinic
loop_
_symmetry_equiv_pos_as_xyz
  x,y,z
_cell_length_a                    12.1051
_cell_length_b                    31.5830
_cell_length_c                    13.6934
_cell_angle_alpha                 90.0000
_cell_angle_beta                  90.0000
_cell_angle_gamma                 90.0000
loop_
_atom_site_label
_atom_site_type_symbol
_atom_site_fract_x
_atom_site_fract_y
_atom_site_fract_z
_atom_site_U_iso_or_equiv
_atom_site_adp_type
_atom_site_occupancy
C1     C     0.05988   0.38349   0.05533   0.00000  Uiso   1.00
C2     C     0.05821   0.33562   0.04085   0.00000  Uiso   1.00
C3     C     0.02674   0.30595   0.11024   0.00000  Uiso   1.00
C4     C     0.03099   0.26366   0.08276   0.00000  Uiso   1.00
C5     C     0.02319   0.19118   0.07452   0.00000  Uiso   1.00
C6     C     0.17751   0.39764   0.03243   0.00000  Uiso   1.00
C7     C     0.24633   0.42012   0.09474   0.00000  Uiso   1.00
C8     C     0.35100   0.43004   0.06017   0.00000  Uiso   1.00
C9     C     0.52839   0.45387   0.03883   0.00000  Uiso   1.00
C10    C     0.98746   0.40190   0.97472   0.00000  Uiso   1.00
C11    C     0.89651   0.42798   0.98850   0.00000  Uiso   1.00
C12    C     0.84119   0.44150   0.90533   0.00000  Uiso   1.00
C13    C     0.72350   0.47195   0.79439   0.00000  Uiso   1.00
C14    C     0.12338   0.36115   0.88315   0.00000  Uiso   1.00
C15    C     0.09270   0.32349   0.94732   0.00000  Uiso   1.00
C16    C     0.09699   0.28124   0.91973   0.00000  Uiso   1.00
C17    C     0.06553   0.25151   0.98907   0.00000  Uiso   1.00
C18    C     0.21200   0.38551   0.93891   0.00000  Uiso   1.00
C19    C     0.31659   0.39541   0.90424   0.00000  Uiso   1.00
C20    C     0.38556   0.41789   0.96647   0.00000  Uiso   1.00
C21    C     0.02195   0.38977   0.88119   0.00000  Uiso   1.00
C22    C     0.96676   0.40326   0.79799   0.00000  Uiso   1.00
C23    C     0.87574   0.42935   0.81164   0.00000  Uiso   1.00
H24    H     0.03304   0.39293   0.12814   0.00000  Uiso   1.00
H25    H     0.00006   0.31535   0.18261   0.00000  Uiso   1.00
H26    H     0.21961   0.42950   0.16710   0.00000  Uiso   1.00
H27    H     0.86984   0.43736   0.06088   0.00000  Uiso   1.00
H28    H     0.97875   0.22398   0.20176   0.00000  Uiso   1.00
H29    H     0.44168   0.46469   0.16906   0.00000  Uiso   1.00
H30    H     0.70412   0.48126   0.94506   0.00000  Uiso   1.00
H31    H     0.15024   0.35171   0.81033   0.00000  Uiso   1.00
H32    H     0.12369   0.27186   0.84735   0.00000  Uiso   1.00
H33    H     0.34325   0.38601   0.83186   0.00000  Uiso   1.00
H34    H     0.99348   0.39387   0.72563   0.00000  Uiso   1.00
H35    H     0.07910   0.18868   0.92966   0.00000  Uiso   1.00
H36    H     0.54202   0.42940   0.89696   0.00000  Uiso   1.00
H37    H     0.80447   0.44596   0.67296   0.00000  Uiso   1.00
O38    O     0.00938   0.15455   0.09581   0.00000  Uiso   1.00
O39    O     0.61671   0.47036   0.05290   0.00000  Uiso   1.00
O40    O     0.64905   0.49209   0.75903   0.00000  Uiso   1.00
N41    N     0.00599   0.22663   0.13263   0.00000  Uiso   1.00
N42    N     0.43880   0.45168   0.10207   0.00000  Uiso   1.00
N43    N     0.74927   0.46718   0.89265   0.00000  Uiso   1.00
N44    N     0.05998   0.20764   0.98622   0.00000  Uiso   1.00
N45    N     0.49280   0.43269   0.95565   0.00000  Uiso   1.00
N46    N     0.80326   0.44818   0.74623   0.00000  Uiso   1.00
C47    C     0.44012   0.11651   0.05533   0.00000  Uiso   1.00
C48    C     0.44179   0.16438   0.04085   0.00000  Uiso   1.00
C49    C     0.47326   0.19405   0.11024   0.00000  Uiso   1.00
C50    C     0.46901   0.23634   0.08276   0.00000  Uiso   1.00
C51    C     0.47681   0.30882   0.07452   0.00000  Uiso   1.00
C52    C     0.32249   0.10236   0.03243   0.00000  Uiso   1.00
C53    C     0.25367   0.07988   0.09474   0.00000  Uiso   1.00
C54    C     0.14900   0.06996   0.06017   0.00000  Uiso   1.00
C55    C     0.97161   0.04613   0.03883   0.00000  Uiso   1.00
C56    C     0.51254   0.09810   0.97472   0.00000  Uiso   1.00
C57    C     0.60349   0.07202   0.98850   0.00000  Uiso   1.00
C58    C     0.65881   0.05850   0.90533   0.00000  Uiso   1.00
C59    C     0.77650   0.02805   0.79439   0.00000  Uiso   1.00
C60    C     0.37662   0.13885   0.88315   0.00000  Uiso   1.00
C61    C     0.40730   0.17651   0.94732   0.00000  Uiso   1.00
C62    C     0.40301   0.21876   0.91973   0.00000  Uiso   1.00
C63    C     0.43447   0.24849   0.98907   0.00000  Uiso   1.00
C64    C     0.28800   0.11449   0.93891   0.00000  Uiso   1.00
C65    C     0.18341   0.10459   0.90424   0.00000  Uiso   1.00
C66    C     0.11444   0.08211   0.96647   0.00000  Uiso   1.00
C67    C     0.47805   0.11023   0.88119   0.00000  Uiso   1.00
C68    C     0.53324   0.09674   0.79799   0.00000  Uiso   1.00
C69    C     0.62426   0.07065   0.81164   0.00000  Uiso   1.00
H70    H     0.46696   0.10707   0.12814   0.00000  Uiso   1.00
H71    H     0.49994   0.18465   0.18261   0.00000  Uiso   1.00
H72    H     0.28039   0.07050   0.16710   0.00000  Uiso   1.00
H73    H     0.63016   0.06264   0.06088   0.00000  Uiso   1.00
H74    H     0.52125   0.27602   0.20176   0.00000  Uiso   1.00
H75    H     0.05832   0.03531   0.16906   0.00000  Uiso   1.00
H76    H     0.79588   0.01874   0.94506   0.00000  Uiso   1.00
H77    H     0.34976   0.14829   0.81033   0.00000  Uiso   1.00
H78    H     0.37631   0.22814   0.84735   0.00000  Uiso   1.00
H79    H     0.15675   0.11399   0.83186   0.00000  Uiso   1.00
H80    H     0.50652   0.10613   0.72563   0.00000  Uiso   1.00
H81    H     0.42090   0.31132   0.92966   0.00000  Uiso   1.00
H82    H     0.95798   0.07060   0.89696   0.00000  Uiso   1.00
H83    H     0.69553   0.05404   0.67296   0.00000  Uiso   1.00
O84    O     0.49062   0.34545   0.09581   0.00000  Uiso   1.00
O85    O     0.88329   0.02964   0.05290   0.00000  Uiso   1.00
O86    O     0.85095   0.00791   0.75903   0.00000  Uiso   1.00
N87    N     0.49401   0.27337   0.13263   0.00000  Uiso   1.00
N88    N     0.06120   0.04832   0.10207   0.00000  Uiso   1.00
N89    N     0.75073   0.03282   0.89265   0.00000  Uiso   1.00
N90    N     0.44002   0.29236   0.98622   0.00000  Uiso   1.00
N91    N     0.00720   0.06731   0.95565   0.00000  Uiso   1.00
N92    N     0.69674   0.05182   0.74623   0.00000  Uiso   1.00
C93    C     0.94012   0.88349   0.44467   0.00000  Uiso   1.00
C94    C     0.94179   0.83562   0.45915   0.00000  Uiso   1.00
C95    C     0.97326   0.80595   0.38976   0.00000  Uiso   1.00
C96    C     0.96901   0.76366   0.41724   0.00000  Uiso   1.00
C97    C     0.97681   0.69118   0.42548   0.00000  Uiso   1.00
C98    C     0.82249   0.89764   0.46757   0.00000  Uiso   1.00
C99    C     0.75367   0.92012   0.40526   0.00000  Uiso   1.00
C100   C     0.64900   0.93004   0.43983   0.00000  Uiso   1.00
C101   C     0.47161   0.95387   0.46117   0.00000  Uiso   1.00
C102   C     0.01254   0.90190   0.52528   0.00000  Uiso   1.00
C103   C     0.10349   0.92798   0.51150   0.00000  Uiso   1.00
C104   C     0.15881   0.94150   0.59467   0.00000  Uiso   1.00
C105   C     0.27650   0.97195   0.70561   0.00000  Uiso   1.00
C106   C     0.87662   0.86115   0.61685   0.00000  Uiso   1.00
C107   C     0.90730   0.82349   0.55268   0.00000  Uiso   1.00
C108   C     0.90301   0.78124   0.58027   0.00000  Uiso   1.00
C109   C     0.93447   0.75151   0.51093   0.00000  Uiso   1.00
C110   C     0.78800   0.88551   0.56109   0.00000  Uiso   1.00
C111   C     0.68341   0.89541   0.59576   0.00000  Uiso   1.00
C112   C     0.61444   0.91789   0.53353   0.00000  Uiso   1.00
C113   C     0.97805   0.88977   0.61881   0.00000  Uiso   1.00
C114   C     0.03324   0.90326   0.70201   0.00000  Uiso   1.00
C115   C     0.12426   0.92935   0.68836   0.00000  Uiso   1.00
H116   H     0.96696   0.89293   0.37186   0.00000  Uiso   1.00
H117   H     0.99994   0.81535   0.31739   0.00000  Uiso   1.00
H118   H     0.78039   0.92950   0.33290   0.00000  Uiso   1.00
H119   H     0.13016   0.93736   0.43912   0.00000  Uiso   1.00
H120   H     0.02125   0.72398   0.29824   0.00000  Uiso   1.00
H121   H     0.55832   0.96469   0.33094   0.00000  Uiso   1.00
H122   H     0.29588   0.98126   0.55494   0.00000  Uiso   1.00
H123   H     0.84976   0.85171   0.68967   0.00000  Uiso   1.00
H124   H     0.87631   0.77186   0.65265   0.00000  Uiso   1.00
H125   H     0.65675   0.88601   0.66814   0.00000  Uiso   1.00
H126   H     0.00652   0.89387   0.77437   0.00000  Uiso   1.00
H127   H     0.92090   0.68868   0.57034   0.00000  Uiso   1.00
H128   H     0.45798   0.92940   0.60304   0.00000  Uiso   1.00
H129   H     0.19553   0.94596   0.82704   0.00000  Uiso   1.00
O130   O     0.99062   0.65455   0.40419   0.00000  Uiso   1.00
O131   O     0.38329   0.97036   0.44710   0.00000  Uiso   1.00
O132   O     0.35095   0.99209   0.74097   0.00000  Uiso   1.00
N133   N     0.99401   0.72663   0.36737   0.00000  Uiso   1.00
N134   N     0.56120   0.95168   0.39793   0.00000  Uiso   1.00
N135   N     0.25073   0.96718   0.60735   0.00000  Uiso   1.00
N136   N     0.94002   0.70764   0.51378   0.00000  Uiso   1.00
N137   N     0.50720   0.93269   0.54435   0.00000  Uiso   1.00
N138   N     0.19674   0.94818   0.75377   0.00000  Uiso   1.00
C139   C     0.55988   0.61651   0.44467   0.00000  Uiso   1.00
C140   C     0.55821   0.66438   0.45915   0.00000  Uiso   1.00
C141   C     0.52674   0.69405   0.38976   0.00000  Uiso   1.00
C142   C     0.53099   0.73634   0.41724   0.00000  Uiso   1.00
C143   C     0.52319   0.80882   0.42548   0.00000  Uiso   1.00
C144   C     0.67751   0.60236   0.46757   0.00000  Uiso   1.00
C145   C     0.74633   0.57988   0.40526   0.00000  Uiso   1.00
C146   C     0.85100   0.56996   0.43983   0.00000  Uiso   1.00
C147   C     0.02839   0.54613   0.46117   0.00000  Uiso   1.00
C148   C     0.48746   0.59810   0.52528   0.00000  Uiso   1.00
C149   C     0.39651   0.57202   0.51150   0.00000  Uiso   1.00
C150   C     0.34119   0.55850   0.59467   0.00000  Uiso   1.00
C151   C     0.22350   0.52805   0.70561   0.00000  Uiso   1.00
C152   C     0.62338   0.63885   0.61685   0.00000  Uiso   1.00
C153   C     0.59270   0.67651   0.55268   0.00000  Uiso   1.00
C154   C     0.59699   0.71876   0.58027   0.00000  Uiso   1.00
C155   C     0.56553   0.74849   0.51093   0.00000  Uiso   1.00
C156   C     0.71200   0.61449   0.56109   0.00000  Uiso   1.00
C157   C     0.81659   0.60459   0.59576   0.00000  Uiso   1.00
C158   C     0.88556   0.58211   0.53353   0.00000  Uiso   1.00
C159   C     0.52195   0.61023   0.61881   0.00000  Uiso   1.00
C160   C     0.46676   0.59674   0.70201   0.00000  Uiso   1.00
C161   C     0.37574   0.57065   0.68836   0.00000  Uiso   1.00
H162   H     0.53304   0.60707   0.37186   0.00000  Uiso   1.00
H163   H     0.50006   0.68465   0.31739   0.00000  Uiso   1.00
H164   H     0.71961   0.57050   0.33290   0.00000  Uiso   1.00
H165   H     0.36984   0.56264   0.43912   0.00000  Uiso   1.00
H166   H     0.47875   0.77602   0.29824   0.00000  Uiso   1.00
H167   H     0.94168   0.53531   0.33094   0.00000  Uiso   1.00
H168   H     0.20412   0.51874   0.55494   0.00000  Uiso   1.00
H169   H     0.65024   0.64829   0.68967   0.00000  Uiso   1.00
H170   H     0.62369   0.72814   0.65265   0.00000  Uiso   1.00
H171   H     0.84325   0.61399   0.66814   0.00000  Uiso   1.00
H172   H     0.49348   0.60613   0.77437   0.00000  Uiso   1.00
H173   H     0.57910   0.81132   0.57034   0.00000  Uiso   1.00
H174   H     0.04202   0.57060   0.60304   0.00000  Uiso   1.00
H175   H     0.30447   0.55404   0.82704   0.00000  Uiso   1.00
O176   O     0.50938   0.84545   0.40419   0.00000  Uiso   1.00
O177   O     0.11671   0.52964   0.44710   0.00000  Uiso   1.00
O178   O     0.14905   0.50791   0.74097   0.00000  Uiso   1.00
N179   N     0.50599   0.77337   0.36737   0.00000  Uiso   1.00
N180   N     0.93880   0.54832   0.39793   0.00000  Uiso   1.00
N181   N     0.24927   0.53282   0.60735   0.00000  Uiso   1.00
N182   N     0.55998   0.79236   0.51378   0.00000  Uiso   1.00
N183   N     0.99280   0.56731   0.54435   0.00000  Uiso   1.00
N184   N     0.30326   0.55182   0.75377   0.00000  Uiso   1.00
C185   C     0.94012   0.61651   0.94467   0.00000  Uiso   1.00
C186   C     0.94179   0.66438   0.95915   0.00000  Uiso   1.00
C187   C     0.97326   0.69405   0.88976   0.00000  Uiso   1.00
C188   C     0.96901   0.73634   0.91724   0.00000  Uiso   1.00
C189   C     0.97681   0.80882   0.92548   0.00000  Uiso   1.00
C190   C     0.82249   0.60236   0.96757   0.00000  Uiso   1.00
C191   C     0.75367   0.57988   0.90526   0.00000  Uiso   1.00
C192   C     0.64900   0.56996   0.93983   0.00000  Uiso   1.00
C193   C     0.47161   0.54613   0.96117   0.00000  Uiso   1.00
C194   C     0.01254   0.59810   0.02528   0.00000  Uiso   1.00
C195   C     0.10349   0.57202   0.01150   0.00000  Uiso   1.00
C196   C     0.15881   0.55850   0.09467   0.00000  Uiso   1.00
C197   C     0.27650   0.52805   0.20561   0.00000  Uiso   1.00
C198   C     0.87662   0.63885   0.11685   0.00000  Uiso   1.00
C199   C     0.90730   0.67651   0.05268   0.00000  Uiso   1.00
C200   C     0.90301   0.71876   0.08027   0.00000  Uiso   1.00
C201   C     0.93447   0.74849   0.01093   0.00000  Uiso   1.00
C202   C     0.78800   0.61449   0.06109   0.00000  Uiso   1.00
C203   C     0.68341   0.60459   0.09576   0.00000  Uiso   1.00
C204   C     0.61444   0.58211   0.03353   0.00000  Uiso   1.00
C205   C     0.97805   0.61023   0.11881   0.00000  Uiso   1.00
C206   C     0.03324   0.59674   0.20201   0.00000  Uiso   1.00
C207   C     0.12426   0.57065   0.18836   0.00000  Uiso   1.00
H208   H     0.96696   0.60707   0.87186   0.00000  Uiso   1.00
H209   H     0.99994   0.68465   0.81739   0.00000  Uiso   1.00
H210   H     0.78039   0.57050   0.83290   0.00000  Uiso   1.00
H211   H     0.13016   0.56264   0.93912   0.00000  Uiso   1.00
H212   H     0.02125   0.77602   0.79824   0.00000  Uiso   1.00
H213   H     0.55832   0.53531   0.83094   0.00000  Uiso   1.00
H214   H     0.29588   0.51874   0.05494   0.00000  Uiso   1.00
H215   H     0.84976   0.64829   0.18967   0.00000  Uiso   1.00
H216   H     0.87631   0.72814   0.15265   0.00000  Uiso   1.00
H217   H     0.65675   0.61399   0.16814   0.00000  Uiso   1.00
H218   H     0.00652   0.60613   0.27437   0.00000  Uiso   1.00
H219   H     0.92090   0.81132   0.07034   0.00000  Uiso   1.00
H220   H     0.45798   0.57060   0.10304   0.00000  Uiso   1.00
H221   H     0.19553   0.55404   0.32704   0.00000  Uiso   1.00
O222   O     0.99062   0.84545   0.90419   0.00000  Uiso   1.00
O223   O     0.38329   0.52964   0.94710   0.00000  Uiso   1.00
O224   O     0.35095   0.50791   0.24097   0.00000  Uiso   1.00
N225   N     0.99401   0.77337   0.86737   0.00000  Uiso   1.00
N226   N     0.56120   0.54832   0.89793   0.00000  Uiso   1.00
N227   N     0.25073   0.53282   0.10735   0.00000  Uiso   1.00
N228   N     0.94002   0.79236   0.01378   0.00000  Uiso   1.00
N229   N     0.50720   0.56731   0.04435   0.00000  Uiso   1.00
N230   N     0.19674   0.55182   0.25377   0.00000  Uiso   1.00
C231   C     0.55988   0.88349   0.94467   0.00000  Uiso   1.00
C232   C     0.55821   0.83562   0.95915   0.00000  Uiso   1.00
C233   C     0.52674   0.80595   0.88976   0.00000  Uiso   1.00
C234   C     0.53099   0.76366   0.91724   0.00000  Uiso   1.00
C235   C     0.52319   0.69118   0.92548   0.00000  Uiso   1.00
C236   C     0.67751   0.89764   0.96757   0.00000  Uiso   1.00
C237   C     0.74633   0.92012   0.90526   0.00000  Uiso   1.00
C238   C     0.85100   0.93004   0.93983   0.00000  Uiso   1.00
C239   C     0.02839   0.95387   0.96117   0.00000  Uiso   1.00
C240   C     0.48746   0.90190   0.02528   0.00000  Uiso   1.00
C241   C     0.39651   0.92798   0.01150   0.00000  Uiso   1.00
C242   C     0.34119   0.94150   0.09467   0.00000  Uiso   1.00
C243   C     0.22350   0.97195   0.20561   0.00000  Uiso   1.00
C244   C     0.62338   0.86115   0.11685   0.00000  Uiso   1.00
C245   C     0.59270   0.82349   0.05268   0.00000  Uiso   1.00
C246   C     0.59699   0.78124   0.08027   0.00000  Uiso   1.00
C247   C     0.56553   0.75151   0.01093   0.00000  Uiso   1.00
C248   C     0.71200   0.88551   0.06109   0.00000  Uiso   1.00
C249   C     0.81659   0.89541   0.09576   0.00000  Uiso   1.00
C250   C     0.88556   0.91789   0.03353   0.00000  Uiso   1.00
C251   C     0.52195   0.88977   0.11881   0.00000  Uiso   1.00
C252   C     0.46676   0.90326   0.20201   0.00000  Uiso   1.00
C253   C     0.37574   0.92935   0.18836   0.00000  Uiso   1.00
H254   H     0.53304   0.89293   0.87186   0.00000  Uiso   1.00
H255   H     0.50006   0.81535   0.81739   0.00000  Uiso   1.00
H256   H     0.71961   0.92950   0.83290   0.00000  Uiso   1.00
H257   H     0.36984   0.93736   0.93912   0.00000  Uiso   1.00
H258   H     0.47875   0.72398   0.79824   0.00000  Uiso   1.00
H259   H     0.94168   0.96469   0.83094   0.00000  Uiso   1.00
H260   H     0.20412   0.98126   0.05494   0.00000  Uiso   1.00
H261   H     0.65024   0.85171   0.18967   0.00000  Uiso   1.00
H262   H     0.62369   0.77186   0.15265   0.00000  Uiso   1.00
H263   H     0.84325   0.88601   0.16814   0.00000  Uiso   1.00
H264   H     0.49348   0.89387   0.27437   0.00000  Uiso   1.00
H265   H     0.57910   0.68868   0.07034   0.00000  Uiso   1.00
H266   H     0.04202   0.92940   0.10304   0.00000  Uiso   1.00
H267   H     0.30447   0.94596   0.32704   0.00000  Uiso   1.00
O268   O     0.50938   0.65455   0.90419   0.00000  Uiso   1.00
O269   O     0.11671   0.97036   0.94710   0.00000  Uiso   1.00
O270   O     0.14905   0.99209   0.24097   0.00000  Uiso   1.00
N271   N     0.50599   0.72663   0.86737   0.00000  Uiso   1.00
N272   N     0.93880   0.95168   0.89793   0.00000  Uiso   1.00
N273   N     0.24927   0.96718   0.10735   0.00000  Uiso   1.00
N274   N     0.55998   0.70764   0.01378   0.00000  Uiso   1.00
N275   N     0.99280   0.93269   0.04435   0.00000  Uiso   1.00
N276   N     0.30326   0.94818   0.25377   0.00000  Uiso   1.00
C277   C     0.05988   0.11651   0.55533   0.00000  Uiso   1.00
C278   C     0.05821   0.16438   0.54085   0.00000  Uiso   1.00
C279   C     0.02674   0.19405   0.61024   0.00000  Uiso   1.00
C280   C     0.03099   0.23634   0.58276   0.00000  Uiso   1.00
C281   C     0.02319   0.30882   0.57452   0.00000  Uiso   1.00
C282   C     0.17751   0.10236   0.53243   0.00000  Uiso   1.00
C283   C     0.24633   0.07988   0.59474   0.00000  Uiso   1.00
C284   C     0.35100   0.06996   0.56017   0.00000  Uiso   1.00
C285   C     0.52839   0.04613   0.53883   0.00000  Uiso   1.00
C286   C     0.98746   0.09810   0.47472   0.00000  Uiso   1.00
C287   C     0.89651   0.07202   0.48850   0.00000  Uiso   1.00
C288   C     0.84119   0.05850   0.40533   0.00000  Uiso   1.00
C289   C     0.72350   0.02805   0.29439   0.00000  Uiso   1.00
C290   C     0.12338   0.13885   0.38315   0.00000  Uiso   1.00
C291   C     0.09270   0.17651   0.44732   0.00000  Uiso   1.00
C292   C     0.09699   0.21876   0.41973   0.00000  Uiso   1.00
C293   C     0.06553   0.24849   0.48907   0.00000  Uiso   1.00
C294   C     0.21200   0.11449   0.43891   0.00000  Uiso   1.00
C295   C     0.31659   0.10459   0.40424   0.00000  Uiso   1.00
C296   C     0.38556   0.08211   0.46647   0.00000  Uiso   1.00
C297   C     0.02195   0.11023   0.38119   0.00000  Uiso   1.00
C298   C     0.96676   0.09674   0.29799   0.00000  Uiso   1.00
C299   C     0.87574   0.07065   0.31164   0.00000  Uiso   1.00
H300   H     0.03304   0.10707   0.62814   0.00000  Uiso   1.00
H301   H     0.00006   0.18465   0.68261   0.00000  Uiso   1.00
H302   H     0.21961   0.07050   0.66710   0.00000  Uiso   1.00
H303   H     0.86984   0.06264   0.56088   0.00000  Uiso   1.00
H304   H     0.97875   0.27602   0.70176   0.00000  Uiso   1.00
H305   H     0.44168   0.03531   0.66906   0.00000  Uiso   1.00
H306   H     0.70412   0.01874   0.44506   0.00000  Uiso   1.00
H307   H     0.15024   0.14829   0.31033   0.00000  Uiso   1.00
H308   H     0.12369   0.22814   0.34735   0.00000  Uiso   1.00
H309   H     0.34325   0.11399   0.33186   0.00000  Uiso   1.00
H310   H     0.99348   0.10613   0.22563   0.00000  Uiso   1.00
H311   H     0.07910   0.31132   0.42966   0.00000  Uiso   1.00
H312   H     0.54202   0.07060   0.39696   0.00000  Uiso   1.00
H313   H     0.80447   0.05404   0.17296   0.00000  Uiso   1.00
O314   O     0.00938   0.34545   0.59581   0.00000  Uiso   1.00
O315   O     0.61671   0.02964   0.55290   0.00000  Uiso   1.00
O316   O     0.64905   0.00791   0.25903   0.00000  Uiso   1.00
N317   N     0.00599   0.27337   0.63263   0.00000  Uiso   1.00
N318   N     0.43880   0.04832   0.60207   0.00000  Uiso   1.00
N319   N     0.74927   0.03282   0.39265   0.00000  Uiso   1.00
N320   N     0.05998   0.29236   0.48622   0.00000  Uiso   1.00
N321   N     0.49280   0.06731   0.45565   0.00000  Uiso   1.00
N322   N     0.80326   0.05182   0.24623   0.00000  Uiso   1.00
C323   C     0.44012   0.38349   0.55533   0.00000  Uiso   1.00
C324   C     0.44179   0.33562   0.54085   0.00000  Uiso   1.00
C325   C     0.47326   0.30595   0.61024   0.00000  Uiso   1.00
C326   C     0.46901   0.26366   0.58276   0.00000  Uiso   1.00
C327   C     0.47681   0.19118   0.57452   0.00000  Uiso   1.00
C328   C     0.32249   0.39764   0.53243   0.00000  Uiso   1.00
C329   C     0.25367   0.42012   0.59474   0.00000  Uiso   1.00
C330   C     0.14900   0.43004   0.56017   0.00000  Uiso   1.00
C331   C     0.97161   0.45387   0.53883   0.00000  Uiso   1.00
C332   C     0.51254   0.40190   0.47472   0.00000  Uiso   1.00
C333   C     0.60349   0.42798   0.48850   0.00000  Uiso   1.00
C334   C     0.65881   0.44150   0.40533   0.00000  Uiso   1.00
C335   C     0.77650   0.47195   0.29439   0.00000  Uiso   1.00
C336   C     0.37662   0.36115   0.38315   0.00000  Uiso   1.00
C337   C     0.40730   0.32349   0.44732   0.00000  Uiso   1.00
C338   C     0.40301   0.28124   0.41973   0.00000  Uiso   1.00
C339   C     0.43447   0.25151   0.48907   0.00000  Uiso   1.00
C340   C     0.28800   0.38551   0.43891   0.00000  Uiso   1.00
C341   C     0.18341   0.39541   0.40424   0.00000  Uiso   1.00
C342   C     0.11444   0.41789   0.46647   0.00000  Uiso   1.00
C343   C     0.47805   0.38977   0.38119   0.00000  Uiso   1.00
C344   C     0.53324   0.40326   0.29799   0.00000  Uiso   1.00
C345   C     0.62426   0.42935   0.31164   0.00000  Uiso   1.00
H346   H     0.46696   0.39293   0.62814   0.00000  Uiso   1.00
H347   H     0.49994   0.31535   0.68261   0.00000  Uiso   1.00
H348   H     0.28039   0.42950   0.66710   0.00000  Uiso   1.00
H349   H     0.63016   0.43736   0.56088   0.00000  Uiso   1.00
H350   H     0.52125   0.22398   0.70176   0.00000  Uiso   1.00
H351   H     0.05832   0.46469   0.66906   0.00000  Uiso   1.00
H352   H     0.79588   0.48126   0.44506   0.00000  Uiso   1.00
H353   H     0.34976   0.35171   0.31033   0.00000  Uiso   1.00
H354   H     0.37631   0.27186   0.34735   0.00000  Uiso   1.00
H355   H     0.15675   0.38601   0.33186   0.00000  Uiso   1.00
H356   H     0.50652   0.39387   0.22563   0.00000  Uiso   1.00
H357   H     0.42090   0.18868   0.42966   0.00000  Uiso   1.00
H358   H     0.95798   0.42940   0.39696   0.00000  Uiso   1.00
H359   H     0.69553   0.44596   0.17296   0.00000  Uiso   1.00
O360   O     0.49062   0.15455   0.59581   0.00000  Uiso   1.00
O361   O     0.88329   0.47036   0.55290   0.00000  Uiso   1.00
O362   O     0.85095   0.49209   0.25903   0.00000  Uiso   1.00
N363   N     0.49401   0.22663   0.63263   0.00000  Uiso   1.00
N364   N     0.06120   0.45168   0.60207   0.00000  Uiso   1.00
N365   N     0.75073   0.46718   0.39265   0.00000  Uiso   1.00
N366   N     0.44002   0.20764   0.48622   0.00000  Uiso   1.00
N367   N     0.00720   0.43269   0.45565   0.00000  Uiso   1.00
N368   N     0.69674   0.44818   0.24623   0.00000  Uiso   1.00
