data_job_03266
_audit_creation_date              2018-12-19
_audit_creation_method            'Materials Studio'
_symmetry_space_group_name_H-M    'P1'
_symmetry_Int_Tables_number       1
_symmetry_cell_setting            triclinic
loop_
_symmetry_equiv_pos_as_xyz
  x,y,z
_cell_length_a                    23.2778
_cell_length_b                    23.2778
_cell_length_c                    9.4665
_cell_angle_alpha                 90.0000
_cell_angle_beta                  90.0000
_cell_angle_gamma                 120.0000
loop_
_atom_site_label
_atom_site_type_symbol
_atom_site_fract_x
_atom_site_fract_y
_atom_site_fract_z
_atom_site_U_iso_or_equiv
_atom_site_adp_type
_atom_site_occupancy
C1     C     0.65547   0.90781   0.14492   0.00000  Uiso   1.00
C2     C     0.71779   0.93064   0.05591   0.00000  Uiso   1.00
C3     C     0.76933   0.99555   0.04247   0.00000  Uiso   1.00
C4     C     0.82194   0.00620   0.95601   0.00000  Uiso   1.00
C5     C     0.91854   0.04962   0.82846   0.00000  Uiso   1.00
C6     C     0.59706   0.87121   0.04419   0.00000  Uiso   1.00
C7     C     0.54711   0.88615   0.02091   0.00000  Uiso   1.00
C8     C     0.49809   0.84676   0.92459   0.00000  Uiso   1.00
C9     C     0.40723   0.79789   0.77893   0.00000  Uiso   1.00
C10    C     0.65278   0.85545   0.24580   0.00000  Uiso   1.00
C11    C     0.64965   0.85712   0.39204   0.00000  Uiso   1.00
C12    C     0.64753   0.80446   0.46546   0.00000  Uiso   1.00
C13    C     0.64318   0.73111   0.63281   0.00000  Uiso   1.00
C14    C     0.65724   0.81130   0.01528   0.00000  Uiso   1.00
C15    C     0.71874   0.87822   0.98549   0.00000  Uiso   1.00
C16    C     0.77129   0.88877   0.89903   0.00000  Uiso   1.00
C17    C     0.82291   0.95368   0.88547   0.00000  Uiso   1.00
C18    C     0.59802   0.81879   0.97377   0.00000  Uiso   1.00
C19    C     0.54906   0.77937   0.87748   0.00000  Uiso   1.00
C20    C     0.49905   0.79425   0.85405   0.00000  Uiso   1.00
C21    C     0.65374   0.80303   0.17538   0.00000  Uiso   1.00
C22    C     0.65162   0.75035   0.24859   0.00000  Uiso   1.00
C23    C     0.64849   0.75194   0.39491   0.00000  Uiso   1.00
H24    H     0.65472   0.94862   0.19974   0.00000  Uiso   1.00
H25    H     0.76857   0.03610   0.09697   0.00000  Uiso   1.00
H26    H     0.54637   0.92672   0.07543   0.00000  Uiso   1.00
H27    H     0.64891   0.89770   0.44649   0.00000  Uiso   1.00
H28    H     0.89520   0.10998   0.95194   0.00000  Uiso   1.00
H29    H     0.42668   0.87931   0.90656   0.00000  Uiso   1.00
H30    H     0.64290   0.81812   0.68901   0.00000  Uiso   1.00
H31    H     0.65799   0.77049   0.96045   0.00000  Uiso   1.00
H32    H     0.77202   0.84819   0.84455   0.00000  Uiso   1.00
H33    H     0.54982   0.73881   0.82301   0.00000  Uiso   1.00
H34    H     0.65236   0.70979   0.19407   0.00000  Uiso   1.00
H35    H     0.89800   0.95746   0.74706   0.00000  Uiso   1.00
H36    H     0.42947   0.72680   0.70168   0.00000  Uiso   1.00
H37    H     0.64570   0.66560   0.48413   0.00000  Uiso   1.00
O38    O     0.97154   0.08805   0.77754   0.00000  Uiso   1.00
O39    O     0.35685   0.78543   0.71802   0.00000  Uiso   1.00
O40    O     0.64053   0.70514   0.74458   0.00000  Uiso   1.00
N41    N     0.88022   0.06342   0.91965   0.00000  Uiso   1.00
N42    N     0.44218   0.84777   0.87720   0.00000  Uiso   1.00
N43    N     0.64431   0.79055   0.60873   0.00000  Uiso   1.00
N44    N     0.88172   0.98135   0.80941   0.00000  Uiso   1.00
N45    N     0.44369   0.76570   0.76696   0.00000  Uiso   1.00
N46    N     0.64582   0.70848   0.49849   0.00000  Uiso   1.00
C47    C     0.09219   0.74766   0.14492   0.00000  Uiso   1.00
C48    C     0.06936   0.78715   0.05591   0.00000  Uiso   1.00
C49    C     0.00445   0.77379   0.04247   0.00000  Uiso   1.00
C50    C     0.99380   0.81575   0.95601   0.00000  Uiso   1.00
C51    C     0.95038   0.86892   0.82846   0.00000  Uiso   1.00
C52    C     0.12879   0.72585   0.04419   0.00000  Uiso   1.00
C53    C     0.11385   0.66096   0.02091   0.00000  Uiso   1.00
C54    C     0.15324   0.65132   0.92459   0.00000  Uiso   1.00
C55    C     0.20211   0.60934   0.77893   0.00000  Uiso   1.00
C56    C     0.14455   0.79733   0.24580   0.00000  Uiso   1.00
C57    C     0.14288   0.79253   0.39204   0.00000  Uiso   1.00
C58    C     0.19554   0.84307   0.46546   0.00000  Uiso   1.00
C59    C     0.26889   0.91207   0.63281   0.00000  Uiso   1.00
C60    C     0.18870   0.84594   0.01528   0.00000  Uiso   1.00
C61    C     0.12178   0.84053   0.98549   0.00000  Uiso   1.00
C62    C     0.11123   0.88252   0.89903   0.00000  Uiso   1.00
C63    C     0.04632   0.86923   0.88547   0.00000  Uiso   1.00
C64    C     0.18121   0.77923   0.97377   0.00000  Uiso   1.00
C65    C     0.22063   0.76969   0.87748   0.00000  Uiso   1.00
C66    C     0.20575   0.70480   0.85405   0.00000  Uiso   1.00
C67    C     0.19697   0.85072   0.17538   0.00000  Uiso   1.00
C68    C     0.24965   0.90127   0.24859   0.00000  Uiso   1.00
C69    C     0.24806   0.89655   0.39491   0.00000  Uiso   1.00
H70    H     0.05138   0.70610   0.19974   0.00000  Uiso   1.00
H71    H     0.96390   0.73246   0.09697   0.00000  Uiso   1.00
H72    H     0.07328   0.61966   0.07543   0.00000  Uiso   1.00
H73    H     0.10230   0.75121   0.44649   0.00000  Uiso   1.00
H74    H     0.89002   0.78522   0.95194   0.00000  Uiso   1.00
H75    H     0.12069   0.54736   0.90656   0.00000  Uiso   1.00
H76    H     0.18188   0.82478   0.68901   0.00000  Uiso   1.00
H77    H     0.22951   0.88750   0.96045   0.00000  Uiso   1.00
H78    H     0.15181   0.92383   0.84455   0.00000  Uiso   1.00
H79    H     0.26119   0.81102   0.82301   0.00000  Uiso   1.00
H80    H     0.29021   0.94257   0.19407   0.00000  Uiso   1.00
H81    H     0.04254   0.94054   0.74706   0.00000  Uiso   1.00
H82    H     0.27320   0.70268   0.70168   0.00000  Uiso   1.00
H83    H     0.33440   0.98009   0.48413   0.00000  Uiso   1.00
O84    O     0.91195   0.88349   0.77754   0.00000  Uiso   1.00
O85    O     0.21457   0.57143   0.71802   0.00000  Uiso   1.00
O86    O     0.29486   0.93539   0.74458   0.00000  Uiso   1.00
N87    N     0.93658   0.81680   0.91965   0.00000  Uiso   1.00
N88    N     0.15223   0.59441   0.87720   0.00000  Uiso   1.00
N89    N     0.20945   0.85376   0.60873   0.00000  Uiso   1.00
N90    N     0.01865   0.90038   0.80941   0.00000  Uiso   1.00
N91    N     0.23430   0.67799   0.76696   0.00000  Uiso   1.00
N92    N     0.29152   0.93734   0.49849   0.00000  Uiso   1.00
C93    C     0.25234   0.34453   0.14492   0.00000  Uiso   1.00
C94    C     0.21285   0.28221   0.05591   0.00000  Uiso   1.00
C95    C     0.22621   0.23067   0.04247   0.00000  Uiso   1.00
C96    C     0.18425   0.17806   0.95601   0.00000  Uiso   1.00
C97    C     0.13108   0.08146   0.82846   0.00000  Uiso   1.00
C98    C     0.27415   0.40294   0.04419   0.00000  Uiso   1.00
C99    C     0.33904   0.45289   0.02091   0.00000  Uiso   1.00
C100   C     0.34868   0.50191   0.92459   0.00000  Uiso   1.00
C101   C     0.39066   0.59277   0.77893   0.00000  Uiso   1.00
C102   C     0.20267   0.34722   0.24580   0.00000  Uiso   1.00
C103   C     0.20747   0.35035   0.39204   0.00000  Uiso   1.00
C104   C     0.15693   0.35247   0.46546   0.00000  Uiso   1.00
C105   C     0.08793   0.35682   0.63281   0.00000  Uiso   1.00
C106   C     0.15406   0.34276   0.01528   0.00000  Uiso   1.00
C107   C     0.15947   0.28126   0.98549   0.00000  Uiso   1.00
C108   C     0.11748   0.22871   0.89903   0.00000  Uiso   1.00
C109   C     0.13077   0.17709   0.88547   0.00000  Uiso   1.00
C110   C     0.22077   0.40198   0.97377   0.00000  Uiso   1.00
C111   C     0.23031   0.45094   0.87748   0.00000  Uiso   1.00
C112   C     0.29520   0.50095   0.85405   0.00000  Uiso   1.00
C113   C     0.14928   0.34626   0.17538   0.00000  Uiso   1.00
C114   C     0.09873   0.34838   0.24859   0.00000  Uiso   1.00
C115   C     0.10345   0.35151   0.39491   0.00000  Uiso   1.00
H116   H     0.29390   0.34528   0.19974   0.00000  Uiso   1.00
H117   H     0.26754   0.23143   0.09697   0.00000  Uiso   1.00
H118   H     0.38034   0.45363   0.07543   0.00000  Uiso   1.00
H119   H     0.24879   0.35109   0.44649   0.00000  Uiso   1.00
H120   H     0.21478   0.10480   0.95194   0.00000  Uiso   1.00
H121   H     0.45264   0.57332   0.90656   0.00000  Uiso   1.00
H122   H     0.17522   0.35710   0.68901   0.00000  Uiso   1.00
H123   H     0.11250   0.34201   0.96045   0.00000  Uiso   1.00
H124   H     0.07617   0.22798   0.84455   0.00000  Uiso   1.00
H125   H     0.18898   0.45018   0.82301   0.00000  Uiso   1.00
H126   H     0.05743   0.34764   0.19407   0.00000  Uiso   1.00
H127   H     0.05946   0.10200   0.74706   0.00000  Uiso   1.00
H128   H     0.29732   0.57053   0.70168   0.00000  Uiso   1.00
H129   H     0.01991   0.35430   0.48413   0.00000  Uiso   1.00
O130   O     0.11651   0.02846   0.77754   0.00000  Uiso   1.00
O131   O     0.42857   0.64315   0.71802   0.00000  Uiso   1.00
O132   O     0.06461   0.35947   0.74458   0.00000  Uiso   1.00
N133   N     0.18320   0.11978   0.91965   0.00000  Uiso   1.00
N134   N     0.40559   0.55782   0.87720   0.00000  Uiso   1.00
N135   N     0.14624   0.35569   0.60873   0.00000  Uiso   1.00
N136   N     0.09962   0.11828   0.80941   0.00000  Uiso   1.00
N137   N     0.32201   0.55631   0.76696   0.00000  Uiso   1.00
N138   N     0.06266   0.35418   0.49849   0.00000  Uiso   1.00
C139   C     0.90781   0.65547   0.64492   0.00000  Uiso   1.00
C140   C     0.93064   0.71779   0.55591   0.00000  Uiso   1.00
C141   C     0.99555   0.76933   0.54247   0.00000  Uiso   1.00
C142   C     0.00620   0.82194   0.45601   0.00000  Uiso   1.00
C143   C     0.04962   0.91854   0.32846   0.00000  Uiso   1.00
C144   C     0.87121   0.59706   0.54419   0.00000  Uiso   1.00
C145   C     0.88615   0.54711   0.52091   0.00000  Uiso   1.00
C146   C     0.84676   0.49809   0.42459   0.00000  Uiso   1.00
C147   C     0.79789   0.40723   0.27893   0.00000  Uiso   1.00
C148   C     0.85545   0.65278   0.74580   0.00000  Uiso   1.00
C149   C     0.85712   0.64965   0.89204   0.00000  Uiso   1.00
C150   C     0.80446   0.64753   0.96546   0.00000  Uiso   1.00
C151   C     0.73111   0.64318   0.13281   0.00000  Uiso   1.00
C152   C     0.81130   0.65724   0.51528   0.00000  Uiso   1.00
C153   C     0.87822   0.71874   0.48549   0.00000  Uiso   1.00
C154   C     0.88877   0.77129   0.39903   0.00000  Uiso   1.00
C155   C     0.95368   0.82291   0.38547   0.00000  Uiso   1.00
C156   C     0.81879   0.59802   0.47377   0.00000  Uiso   1.00
C157   C     0.77937   0.54906   0.37748   0.00000  Uiso   1.00
C158   C     0.79425   0.49905   0.35405   0.00000  Uiso   1.00
C159   C     0.80303   0.65374   0.67538   0.00000  Uiso   1.00
C160   C     0.75035   0.65162   0.74859   0.00000  Uiso   1.00
C161   C     0.75194   0.64849   0.89491   0.00000  Uiso   1.00
H162   H     0.94862   0.65472   0.69974   0.00000  Uiso   1.00
H163   H     0.03610   0.76857   0.59697   0.00000  Uiso   1.00
H164   H     0.92672   0.54637   0.57543   0.00000  Uiso   1.00
H165   H     0.89770   0.64891   0.94649   0.00000  Uiso   1.00
H166   H     0.10998   0.89520   0.45194   0.00000  Uiso   1.00
H167   H     0.87931   0.42668   0.40656   0.00000  Uiso   1.00
H168   H     0.81812   0.64290   0.18901   0.00000  Uiso   1.00
H169   H     0.77049   0.65799   0.46045   0.00000  Uiso   1.00
H170   H     0.84819   0.77202   0.34455   0.00000  Uiso   1.00
H171   H     0.73881   0.54982   0.32301   0.00000  Uiso   1.00
H172   H     0.70979   0.65236   0.69407   0.00000  Uiso   1.00
H173   H     0.95746   0.89800   0.24706   0.00000  Uiso   1.00
H174   H     0.72680   0.42947   0.20168   0.00000  Uiso   1.00
H175   H     0.66560   0.64570   0.98413   0.00000  Uiso   1.00
O176   O     0.08805   0.97154   0.27754   0.00000  Uiso   1.00
O177   O     0.78543   0.35685   0.21802   0.00000  Uiso   1.00
O178   O     0.70514   0.64053   0.24458   0.00000  Uiso   1.00
N179   N     0.06342   0.88022   0.41965   0.00000  Uiso   1.00
N180   N     0.84777   0.44218   0.37720   0.00000  Uiso   1.00
N181   N     0.79055   0.64431   0.10873   0.00000  Uiso   1.00
N182   N     0.98135   0.88172   0.30941   0.00000  Uiso   1.00
N183   N     0.76570   0.44369   0.26696   0.00000  Uiso   1.00
N184   N     0.70848   0.64582   0.99849   0.00000  Uiso   1.00
C185   C     0.74766   0.09219   0.64492   0.00000  Uiso   1.00
C186   C     0.78715   0.06936   0.55591   0.00000  Uiso   1.00
C187   C     0.77379   0.00445   0.54247   0.00000  Uiso   1.00
C188   C     0.81575   0.99380   0.45601   0.00000  Uiso   1.00
C189   C     0.86892   0.95038   0.32846   0.00000  Uiso   1.00
C190   C     0.72585   0.12879   0.54419   0.00000  Uiso   1.00
C191   C     0.66096   0.11385   0.52091   0.00000  Uiso   1.00
C192   C     0.65132   0.15324   0.42459   0.00000  Uiso   1.00
C193   C     0.60934   0.20211   0.27893   0.00000  Uiso   1.00
C194   C     0.79733   0.14455   0.74580   0.00000  Uiso   1.00
C195   C     0.79253   0.14288   0.89204   0.00000  Uiso   1.00
C196   C     0.84307   0.19554   0.96546   0.00000  Uiso   1.00
C197   C     0.91207   0.26889   0.13281   0.00000  Uiso   1.00
C198   C     0.84594   0.18870   0.51528   0.00000  Uiso   1.00
C199   C     0.84053   0.12178   0.48549   0.00000  Uiso   1.00
C200   C     0.88252   0.11123   0.39903   0.00000  Uiso   1.00
C201   C     0.86923   0.04632   0.38547   0.00000  Uiso   1.00
C202   C     0.77923   0.18121   0.47377   0.00000  Uiso   1.00
C203   C     0.76969   0.22063   0.37748   0.00000  Uiso   1.00
C204   C     0.70480   0.20575   0.35405   0.00000  Uiso   1.00
C205   C     0.85072   0.19697   0.67538   0.00000  Uiso   1.00
C206   C     0.90127   0.24965   0.74859   0.00000  Uiso   1.00
C207   C     0.89655   0.24806   0.89491   0.00000  Uiso   1.00
H208   H     0.70610   0.05138   0.69974   0.00000  Uiso   1.00
H209   H     0.73246   0.96390   0.59697   0.00000  Uiso   1.00
H210   H     0.61966   0.07328   0.57543   0.00000  Uiso   1.00
H211   H     0.75121   0.10230   0.94649   0.00000  Uiso   1.00
H212   H     0.78522   0.89002   0.45194   0.00000  Uiso   1.00
H213   H     0.54736   0.12069   0.40656   0.00000  Uiso   1.00
H214   H     0.82478   0.18188   0.18901   0.00000  Uiso   1.00
H215   H     0.88750   0.22951   0.46045   0.00000  Uiso   1.00
H216   H     0.92383   0.15181   0.34455   0.00000  Uiso   1.00
H217   H     0.81102   0.26119   0.32301   0.00000  Uiso   1.00
H218   H     0.94257   0.29021   0.69407   0.00000  Uiso   1.00
H219   H     0.94054   0.04254   0.24706   0.00000  Uiso   1.00
H220   H     0.70268   0.27320   0.20168   0.00000  Uiso   1.00
H221   H     0.98009   0.33440   0.98413   0.00000  Uiso   1.00
O222   O     0.88349   0.91195   0.27754   0.00000  Uiso   1.00
O223   O     0.57143   0.21457   0.21802   0.00000  Uiso   1.00
O224   O     0.93539   0.29486   0.24458   0.00000  Uiso   1.00
N225   N     0.81680   0.93658   0.41965   0.00000  Uiso   1.00
N226   N     0.59441   0.15223   0.37720   0.00000  Uiso   1.00
N227   N     0.85376   0.20945   0.10873   0.00000  Uiso   1.00
N228   N     0.90038   0.01865   0.30941   0.00000  Uiso   1.00
N229   N     0.67799   0.23430   0.26696   0.00000  Uiso   1.00
N230   N     0.93734   0.29152   0.99849   0.00000  Uiso   1.00
C231   C     0.34453   0.25234   0.64492   0.00000  Uiso   1.00
C232   C     0.28221   0.21285   0.55591   0.00000  Uiso   1.00
C233   C     0.23067   0.22621   0.54247   0.00000  Uiso   1.00
C234   C     0.17806   0.18425   0.45601   0.00000  Uiso   1.00
C235   C     0.08146   0.13108   0.32846   0.00000  Uiso   1.00
C236   C     0.40294   0.27415   0.54419   0.00000  Uiso   1.00
C237   C     0.45289   0.33904   0.52091   0.00000  Uiso   1.00
C238   C     0.50191   0.34868   0.42459   0.00000  Uiso   1.00
C239   C     0.59277   0.39066   0.27893   0.00000  Uiso   1.00
C240   C     0.34722   0.20267   0.74580   0.00000  Uiso   1.00
C241   C     0.35035   0.20747   0.89204   0.00000  Uiso   1.00
C242   C     0.35247   0.15693   0.96546   0.00000  Uiso   1.00
C243   C     0.35682   0.08793   0.13281   0.00000  Uiso   1.00
C244   C     0.34276   0.15406   0.51528   0.00000  Uiso   1.00
C245   C     0.28126   0.15947   0.48549   0.00000  Uiso   1.00
C246   C     0.22871   0.11748   0.39903   0.00000  Uiso   1.00
C247   C     0.17709   0.13077   0.38547   0.00000  Uiso   1.00
C248   C     0.40198   0.22077   0.47377   0.00000  Uiso   1.00
C249   C     0.45094   0.23031   0.37748   0.00000  Uiso   1.00
C250   C     0.50095   0.29520   0.35405   0.00000  Uiso   1.00
C251   C     0.34626   0.14928   0.67538   0.00000  Uiso   1.00
C252   C     0.34838   0.09873   0.74859   0.00000  Uiso   1.00
C253   C     0.35151   0.10345   0.89491   0.00000  Uiso   1.00
H254   H     0.34528   0.29390   0.69974   0.00000  Uiso   1.00
H255   H     0.23143   0.26754   0.59697   0.00000  Uiso   1.00
H256   H     0.45363   0.38034   0.57543   0.00000  Uiso   1.00
H257   H     0.35109   0.24879   0.94649   0.00000  Uiso   1.00
H258   H     0.10480   0.21478   0.45194   0.00000  Uiso   1.00
H259   H     0.57332   0.45264   0.40656   0.00000  Uiso   1.00
H260   H     0.35710   0.17522   0.18901   0.00000  Uiso   1.00
H261   H     0.34201   0.11250   0.46045   0.00000  Uiso   1.00
H262   H     0.22798   0.07617   0.34455   0.00000  Uiso   1.00
H263   H     0.45018   0.18898   0.32301   0.00000  Uiso   1.00
H264   H     0.34764   0.05743   0.69407   0.00000  Uiso   1.00
H265   H     0.10200   0.05946   0.24706   0.00000  Uiso   1.00
H266   H     0.57053   0.29732   0.20168   0.00000  Uiso   1.00
H267   H     0.35430   0.01991   0.98413   0.00000  Uiso   1.00
O268   O     0.02846   0.11651   0.27754   0.00000  Uiso   1.00
O269   O     0.64315   0.42857   0.21802   0.00000  Uiso   1.00
O270   O     0.35947   0.06461   0.24458   0.00000  Uiso   1.00
N271   N     0.11978   0.18320   0.41965   0.00000  Uiso   1.00
N272   N     0.55782   0.40559   0.37720   0.00000  Uiso   1.00
N273   N     0.35569   0.14624   0.10873   0.00000  Uiso   1.00
N274   N     0.11828   0.09962   0.30941   0.00000  Uiso   1.00
N275   N     0.55631   0.32201   0.26696   0.00000  Uiso   1.00
N276   N     0.35418   0.06266   0.99849   0.00000  Uiso   1.00
