data_job_06517
_audit_creation_date              2018-12-19
_audit_creation_method            'Materials Studio'
_symmetry_space_group_name_H-M    'P1'
_symmetry_Int_Tables_number       1
_symmetry_cell_setting            triclinic
loop_
_symmetry_equiv_pos_as_xyz
  x,y,z
_cell_length_a                    22.7628
_cell_length_b                    19.7581
_cell_length_c                    22.1267
_cell_angle_alpha                 109.0300
_cell_angle_beta                  109.1870
_cell_angle_gamma                 104.5330
loop_
_atom_site_label
_atom_site_type_symbol
_atom_site_fract_x
_atom_site_fract_y
_atom_site_fract_z
_atom_site_U_iso_or_equiv
_atom_site_adp_type
_atom_site_occupancy
C1     C     0.45017   0.15126   0.67377   0.00000  Uiso   1.00
C2     C     0.37879   0.14613   0.66089   0.00000  Uiso   1.00
C3     C     0.32443   0.08031   0.64361   0.00000  Uiso   1.00
C4     C     0.26328   0.08753   0.63396   0.00000  Uiso   1.00
C5     C     0.15343   0.06883   0.61280   0.00000  Uiso   1.00
C6     C     0.46565   0.17838   0.62151   0.00000  Uiso   1.00
C7     C     0.48432   0.13968   0.57114   0.00000  Uiso   1.00
C8     C     0.49628   0.17405   0.52835   0.00000  Uiso   1.00
C9     C     0.52132   0.20546   0.44610   0.00000  Uiso   1.00
C10    C     0.49789   0.21824   0.74821   0.00000  Uiso   1.00
C11    C     0.54369   0.21306   0.80436   0.00000  Uiso   1.00
C12    C     0.58282   0.28099   0.86823   0.00000  Uiso   1.00
C13    C     0.65792   0.37428   0.98269   0.00000  Uiso   1.00
C14    C     0.43824   0.28111   0.68735   0.00000  Uiso   1.00
C15    C     0.37232   0.21667   0.66826   0.00000  Uiso   1.00
C16    C     0.31123   0.22398   0.65864   0.00000  Uiso   1.00
C17    C     0.25679   0.15819   0.64135   0.00000  Uiso   1.00
C18    C     0.45917   0.24891   0.62889   0.00000  Uiso   1.00
C19    C     0.47111   0.28335   0.58617   0.00000  Uiso   1.00
C20    C     0.48979   0.24471   0.53574   0.00000  Uiso   1.00
C21    C     0.49141   0.28877   0.75558   0.00000  Uiso   1.00
C22    C     0.53048   0.35673   0.81938   0.00000  Uiso   1.00
C23    C     0.57633   0.35165   0.87562   0.00000  Uiso   1.00
H24    H     0.45522   0.09634   0.66802   0.00000  Uiso   1.00
H25    H     0.32947   0.02574   0.63790   0.00000  Uiso   1.00
H26    H     0.48933   0.08511   0.56545   0.00000  Uiso   1.00
H27    H     0.54869   0.15847   0.79863   0.00000  Uiso   1.00
H28    H     0.18718   0.97855   0.60774   0.00000  Uiso   1.00
H29    H     0.52429   0.10375   0.45498   0.00000  Uiso   1.00
H30    H     0.64947   0.25845   0.94669   0.00000  Uiso   1.00
H31    H     0.43319   0.33603   0.69309   0.00000  Uiso   1.00
H32    H     0.30623   0.27857   0.66435   0.00000  Uiso   1.00
H33    H     0.46610   0.33794   0.59189   0.00000  Uiso   1.00
H34    H     0.52545   0.41130   0.82507   0.00000  Uiso   1.00
H35    H     0.16832   0.18376   0.62919   0.00000  Uiso   1.00
H36    H     0.50543   0.30895   0.47644   0.00000  Uiso   1.00
H37    H     0.63061   0.46366   0.96814   0.00000  Uiso   1.00
O38    O     0.09462   0.03903   0.59908   0.00000  Uiso   1.00
O39    O     0.53691   0.20328   0.39869   0.00000  Uiso   1.00
O40    O     0.70113   0.40625   0.04379   0.00000  Uiso   1.00
N41    N     0.20017   0.03474   0.61675   0.00000  Uiso   1.00
N42    N     0.51534   0.15178   0.47392   0.00000  Uiso   1.00
N43    N     0.63238   0.29642   0.93362   0.00000  Uiso   1.00
N44    N     0.19002   0.14516   0.62829   0.00000  Uiso   1.00
N45    N     0.50519   0.26220   0.48547   0.00000  Uiso   1.00
N46    N     0.62223   0.40684   0.94516   0.00000  Uiso   1.00
C47    C     0.74992   0.34811   0.26645   0.00000  Uiso   1.00
C48    C     0.74467   0.26423   0.24059   0.00000  Uiso   1.00
C49    C     0.71328   0.20824   0.16979   0.00000  Uiso   1.00
C50    C     0.71390   0.13489   0.15722   0.00000  Uiso   1.00
C51    C     0.70101   0.00718   0.10852   0.00000  Uiso   1.00
C52    C     0.71864   0.35886   0.31836   0.00000  Uiso   1.00
C53    C     0.66538   0.38244   0.31294   0.00000  Uiso   1.00
C54    C     0.64410   0.38877   0.36584   0.00000  Uiso   1.00
C55    C     0.59084   0.40802   0.43789   0.00000  Uiso   1.00
C56    C     0.82546   0.40020   0.31138   0.00000  Uiso   1.00
C57    C     0.86201   0.45856   0.30012   0.00000  Uiso   1.00
C58    C     0.93066   0.49971   0.34716   0.00000  Uiso   1.00
C59    C     0.04325   0.58315   0.40838   0.00000  Uiso   1.00
C60    C     0.80686   0.31742   0.37003   0.00000  Uiso   1.00
C61    C     0.77559   0.24756   0.29686   0.00000  Uiso   1.00
C62    C     0.77627   0.17429   0.28439   0.00000  Uiso   1.00
C63    C     0.74488   0.11820   0.21358   0.00000  Uiso   1.00
C64    C     0.74956   0.34219   0.37462   0.00000  Uiso   1.00
C65    C     0.72837   0.34849   0.42754   0.00000  Uiso   1.00
C66    C     0.67508   0.37207   0.42220   0.00000  Uiso   1.00
C67    C     0.85639   0.38353   0.36764   0.00000  Uiso   1.00
C68    C     0.92500   0.42460   0.41471   0.00000  Uiso   1.00
C69    C     0.96164   0.48301   0.40352   0.00000  Uiso   1.00
H70    H     0.72585   0.36108   0.22266   0.00000  Uiso   1.00
H71    H     0.68935   0.22116   0.12627   0.00000  Uiso   1.00
H72    H     0.64146   0.39534   0.26940   0.00000  Uiso   1.00
H73    H     0.83806   0.47144   0.25658   0.00000  Uiso   1.00
H74    H     0.66250   0.05866   0.04423   0.00000  Uiso   1.00
H75    H     0.56154   0.42597   0.34604   0.00000  Uiso   1.00
H76    H     0.97611   0.58644   0.31900   0.00000  Uiso   1.00
H77    H     0.83093   0.30444   0.41383   0.00000  Uiso   1.00
H78    H     0.80020   0.16141   0.32794   0.00000  Uiso   1.00
H79    H     0.75231   0.33559   0.47107   0.00000  Uiso   1.00
H80    H     0.94891   0.41169   0.45824   0.00000  Uiso   1.00
H81    H     0.75247   0.01016   0.20790   0.00000  Uiso   1.00
H82    H     0.65151   0.37748   0.50972   0.00000  Uiso   1.00
H83    H     0.06608   0.53794   0.48267   0.00000  Uiso   1.00
O84    O     0.68535   0.94133   0.06611   0.00000  Uiso   1.00
O85    O     0.55291   0.42324   0.46208   0.00000  Uiso   1.00
O86    O     0.09681   0.63377   0.42660   0.00000  Uiso   1.00
N87    N     0.68790   0.06688   0.09453   0.00000  Uiso   1.00
N88    N     0.59350   0.41028   0.37670   0.00000  Uiso   1.00
N89    N     0.98109   0.56032   0.35143   0.00000  Uiso   1.00
N90    N     0.73632   0.04079   0.18261   0.00000  Uiso   1.00
N91    N     0.64192   0.38418   0.46478   0.00000  Uiso   1.00
N92    N     0.02950   0.53423   0.43951   0.00000  Uiso   1.00
C93    C     0.30699   0.60831   0.40200   0.00000  Uiso   1.00
C94    C     0.31236   0.61724   0.33789   0.00000  Uiso   1.00
C95    C     0.25894   0.60622   0.27737   0.00000  Uiso   1.00
C96    C     0.27433   0.61720   0.22462   0.00000  Uiso   1.00
C97    C     0.27257   0.62780   0.12390   0.00000  Uiso   1.00
C98    C     0.33606   0.54849   0.41045   0.00000  Uiso   1.00
C99    C     0.30256   0.47966   0.41096   0.00000  Uiso   1.00
C100   C     0.33790   0.43277   0.41931   0.00000  Uiso   1.00
C101   C     0.37295   0.33666   0.43131   0.00000  Uiso   1.00
C102   C     0.35637   0.68599   0.46722   0.00000  Uiso   1.00
C103   C     0.33995   0.73277   0.51547   0.00000  Uiso   1.00
C104   C     0.39239   0.80165   0.57162   0.00000  Uiso   1.00
C105   C     0.45897   0.91903   0.67175   0.00000  Uiso   1.00
C106   C     0.42933   0.64742   0.41594   0.00000  Uiso   1.00
C107   C     0.37882   0.63848   0.34546   0.00000  Uiso   1.00
C108   C     0.39429   0.64949   0.29279   0.00000  Uiso   1.00
C109   C     0.34090   0.63848   0.23221   0.00000  Uiso   1.00
C110   C     0.40251   0.56973   0.41803   0.00000  Uiso   1.00
C111   C     0.43792   0.52293   0.42639   0.00000  Uiso   1.00
C112   C     0.40447   0.45405   0.42690   0.00000  Uiso   1.00
C113   C     0.42282   0.70724   0.47479   0.00000  Uiso   1.00
C114   C     0.47531   0.77605   0.53089   0.00000  Uiso   1.00
C115   C     0.45897   0.82293   0.57921   0.00000  Uiso   1.00
H116   H     0.25525   0.59177   0.39611   0.00000  Uiso   1.00
H117   H     0.20752   0.58977   0.27153   0.00000  Uiso   1.00
H118   H     0.25114   0.46324   0.40511   0.00000  Uiso   1.00
H119   H     0.28852   0.71631   0.50959   0.00000  Uiso   1.00
H120   H     0.18389   0.59689   0.13673   0.00000  Uiso   1.00
H121   H     0.27588   0.33012   0.41842   0.00000  Uiso   1.00
H122   H     0.35471   0.86377   0.63875   0.00000  Uiso   1.00
H123   H     0.48107   0.66396   0.42184   0.00000  Uiso   1.00
H124   H     0.44572   0.66593   0.29867   0.00000  Uiso   1.00
H125   H     0.48934   0.53940   0.43225   0.00000  Uiso   1.00
H126   H     0.52672   0.79247   0.53673   0.00000  Uiso   1.00
H127   H     0.37723   0.65870   0.15876   0.00000  Uiso   1.00
H128   H     0.46921   0.39192   0.44045   0.00000  Uiso   1.00
H129   H     0.54804   0.92558   0.66077   0.00000  Uiso   1.00
O130   O     0.25324   0.62776   0.06625   0.00000  Uiso   1.00
O131   O     0.37391   0.27777   0.43582   0.00000  Uiso   1.00
O132   O     0.47733   0.97791   0.72488   0.00000  Uiso   1.00
N133   N     0.23425   0.61119   0.15883   0.00000  Uiso   1.00
N134   N     0.32024   0.36176   0.42217   0.00000  Uiso   1.00
N135   N     0.39394   0.86067   0.62817   0.00000  Uiso   1.00
N136   N     0.33828   0.64445   0.17068   0.00000  Uiso   1.00
N137   N     0.42428   0.39502   0.43403   0.00000  Uiso   1.00
N138   N     0.49798   0.89393   0.64003   0.00000  Uiso   1.00
C139   C     0.96692   0.04467   0.70293   0.00000  Uiso   1.00
C140   C     0.90025   0.03158   0.70830   0.00000  Uiso   1.00
C141   C     0.83796   0.01281   0.65369   0.00000  Uiso   1.00
C142   C     0.78300   0.00323   0.66929   0.00000  Uiso   1.00
C143   C     0.67839   0.98152   0.66730   0.00000  Uiso   1.00
C144   C     0.99265   0.98756   0.72388   0.00000  Uiso   1.00
C145   C     0.00805   0.93179   0.68237   0.00000  Uiso   1.00
C146   C     0.03087   0.88516   0.71110   0.00000  Uiso   1.00
C147   C     0.06975   0.79515   0.73332   0.00000  Uiso   1.00
C148   C     0.01688   0.12607   0.76215   0.00000  Uiso   1.00
C149   C     0.05268   0.18676   0.75282   0.00000  Uiso   1.00
C150   C     0.09592   0.25675   0.81376   0.00000  Uiso   1.00
C151   C     0.17243   0.38179   0.89540   0.00000  Uiso   1.00
C152   C     0.98009   0.06103   0.82775   0.00000  Uiso   1.00
C153   C     0.90741   0.04046   0.77610   0.00000  Uiso   1.00
C154   C     0.85253   0.03091   0.79179   0.00000  Uiso   1.00
C155   C     0.79017   0.01214   0.73721   0.00000  Uiso   1.00
C156   C     0.99980   0.99644   0.79168   0.00000  Uiso   1.00
C157   C     0.02261   0.94989   0.82047   0.00000  Uiso   1.00
C158   C     0.03804   0.89406   0.77902   0.00000  Uiso   1.00
C159   C     0.02403   0.13496   0.82995   0.00000  Uiso   1.00
C160   C     0.06724   0.20486   0.89092   0.00000  Uiso   1.00
C161   C     0.10309   0.26565   0.88168   0.00000  Uiso   1.00
H162   H     0.96135   0.03775   0.65015   0.00000  Uiso   1.00
H163   H     0.83245   0.00594   0.60122   0.00000  Uiso   1.00
H164   H     0.00251   0.92494   0.62991   0.00000  Uiso   1.00
H165   H     0.04713   0.17987   0.70034   0.00000  Uiso   1.00
H166   H     0.69268   0.97456   0.57687   0.00000  Uiso   1.00
H167   H     0.05129   0.80378   0.63737   0.00000  Uiso   1.00
H168   H     0.14538   0.34135   0.78589   0.00000  Uiso   1.00
H169   H     0.98566   0.06795   0.88054   0.00000  Uiso   1.00
H170   H     0.85808   0.03779   0.84426   0.00000  Uiso   1.00
H171   H     0.02814   0.95679   0.87294   0.00000  Uiso   1.00
H172   H     0.07276   0.21172   0.94338   0.00000  Uiso   1.00
H173   H     0.71348   0.00041   0.77413   0.00000  Uiso   1.00
H174   H     0.07210   0.82963   0.83463   0.00000  Uiso   1.00
H175   H     0.16618   0.36720   0.98315   0.00000  Uiso   1.00
O176   O     0.61872   0.96707   0.64747   0.00000  Uiso   1.00
O177   O     0.08922   0.74303   0.72685   0.00000  Uiso   1.00
O178   O     0.21264   0.44831   0.92170   0.00000  Uiso   1.00
N179   N     0.71509   0.98479   0.62828   0.00000  Uiso   1.00
N180   N     0.05036   0.82512   0.68484   0.00000  Uiso   1.00
N181   N     0.13833   0.32769   0.82370   0.00000  Uiso   1.00
N182   N     0.72628   0.99871   0.73442   0.00000  Uiso   1.00
N183   N     0.06155   0.83903   0.79098   0.00000  Uiso   1.00
N184   N     0.14953   0.34161   0.92984   0.00000  Uiso   1.00
C185   C     0.29201   0.69595   0.93938   0.00000  Uiso   1.00
C186   C     0.26853   0.68189   0.86173   0.00000  Uiso   1.00
C187   C     0.22305   0.61168   0.80205   0.00000  Uiso   1.00
C188   C     0.20810   0.61079   0.73563   0.00000  Uiso   1.00
C189   C     0.16713   0.57878   0.61604   0.00000  Uiso   1.00
C190   C     0.27544   0.76366   0.97554   0.00000  Uiso   1.00
C191   C     0.23577   0.76220   0.01156   0.00000  Uiso   1.00
C192   C     0.22665   0.83015   0.04095   0.00000  Uiso   1.00
C193   C     0.19645   0.92510   0.09810   0.00000  Uiso   1.00
C194   C     0.36928   0.72679   0.97276   0.00000  Uiso   1.00
C195   C     0.40851   0.69434   0.00646   0.00000  Uiso   1.00
C196   C     0.47840   0.73126   0.03352   0.00000  Uiso   1.00
C197   C     0.59390   0.76896   0.08634   0.00000  Uiso   1.00
C198   C     0.34634   0.81922   0.92754   0.00000  Uiso   1.00
C199   C     0.29804   0.74885   0.85530   0.00000  Uiso   1.00
C200   C     0.28316   0.74807   0.78895   0.00000  Uiso   1.00
C201   C     0.23767   0.67787   0.72919   0.00000  Uiso   1.00
C202   C     0.30495   0.83061   0.96911   0.00000  Uiso   1.00
C203   C     0.29589   0.89858   0.99846   0.00000  Uiso   1.00
C204   C     0.25622   0.89722   0.03451   0.00000  Uiso   1.00
C205   C     0.39879   0.79374   0.96633   0.00000  Uiso   1.00
C206   C     0.46863   0.83072   0.99335   0.00000  Uiso   1.00
C207   C     0.50796   0.79833   0.02708   0.00000  Uiso   1.00
H208   H     0.26903   0.64383   0.94439   0.00000  Uiso   1.00
H209   H     0.20021   0.55988   0.80705   0.00000  Uiso   1.00
H210   H     0.21295   0.71038   0.01654   0.00000  Uiso   1.00
H211   H     0.38566   0.64253   0.01142   0.00000  Uiso   1.00
H212   H     0.13692   0.49634   0.65195   0.00000  Uiso   1.00
H213   H     0.16379   0.81368   0.09368   0.00000  Uiso   1.00
H214   H     0.52798   0.67061   0.08290   0.00000  Uiso   1.00
H215   H     0.36932   0.87135   0.92254   0.00000  Uiso   1.00
H216   H     0.30601   0.79989   0.78399   0.00000  Uiso   1.00
H217   H     0.31874   0.95038   0.99348   0.00000  Uiso   1.00
H218   H     0.49145   0.88253   0.98836   0.00000  Uiso   1.00
H219   H     0.22278   0.69114   0.63324   0.00000  Uiso   1.00
H220   H     0.24965   0.00848   0.07497   0.00000  Uiso   1.00
H221   H     0.61384   0.86541   0.06418   0.00000  Uiso   1.00
O222   O     0.13638   0.54263   0.55185   0.00000  Uiso   1.00
O223   O     0.17164   0.95897   0.13139   0.00000  Uiso   1.00
O224   O     0.64945   0.77126   0.11724   0.00000  Uiso   1.00
N225   N     0.16583   0.55199   0.66656   0.00000  Uiso   1.00
N226   N     0.19094   0.84868   0.07954   0.00000  Uiso   1.00
N227   N     0.53143   0.71493   0.06948   0.00000  Uiso   1.00
N228   N     0.21203   0.65681   0.65649   0.00000  Uiso   1.00
N229   N     0.23714   0.95350   0.06947   0.00000  Uiso   1.00
N230   N     0.57763   0.81975   0.05941   0.00000  Uiso   1.00
C231   C     0.85728   0.83705   0.13764   0.00000  Uiso   1.00
C232   C     0.88363   0.77425   0.11427   0.00000  Uiso   1.00
C233   C     0.85247   0.69614   0.09742   0.00000  Uiso   1.00
C234   C     0.88464   0.64801   0.07721   0.00000  Uiso   1.00
C235   C     0.91623   0.54608   0.04137   0.00000  Uiso   1.00
C236   C     0.85106   0.87222   0.08504   0.00000  Uiso   1.00
C237   C     0.79252   0.87647   0.04363   0.00000  Uiso   1.00
C238   C     0.79727   0.91082   0.99883   0.00000  Uiso   1.00
C239   C     0.77831   0.96103   0.91766   0.00000  Uiso   1.00
C240   C     0.91427   0.90131   0.20953   0.00000  Uiso   1.00
C241   C     0.90889   0.93005   0.27279   0.00000  Uiso   1.00
C242   C     0.96686   0.98892   0.33279   0.00000  Uiso   1.00
C243   C     0.04605   0.08430   0.44491   0.00000  Uiso   1.00
C244   C     0.96981   0.89050   0.13171   0.00000  Uiso   1.00
C245   C     0.94475   0.80329   0.11104   0.00000  Uiso   1.00
C246   C     0.97698   0.75527   0.09085   0.00000  Uiso   1.00
C247   C     0.94587   0.67709   0.07398   0.00000  Uiso   1.00
C248   C     0.91218   0.90125   0.08182   0.00000  Uiso   1.00
C249   C     0.91702   0.93561   0.03707   0.00000  Uiso   1.00
C250   C     0.85850   0.93991   0.99560   0.00000  Uiso   1.00
C251   C     0.97540   0.93035   0.20631   0.00000  Uiso   1.00
C252   C     0.03339   0.98918   0.26622   0.00000  Uiso   1.00
C253   C     0.02809   0.01800   0.32956   0.00000  Uiso   1.00
H254   H     0.80970   0.81445   0.14015   0.00000  Uiso   1.00
H255   H     0.80517   0.67369   0.09991   0.00000  Uiso   1.00
H256   H     0.74523   0.85401   0.04614   0.00000  Uiso   1.00
H257   H     0.86158   0.90757   0.27526   0.00000  Uiso   1.00
H258   H     0.82709   0.53042   0.05386   0.00000  Uiso   1.00
H259   H     0.70071   0.91065   0.94050   0.00000  Uiso   1.00
H260   H     0.94606   0.02361   0.42365   0.00000  Uiso   1.00
H261   H     0.01740   0.91311   0.12920   0.00000  Uiso   1.00
H262   H     0.02427   0.77776   0.08836   0.00000  Uiso   1.00
H263   H     0.96433   0.95807   0.03459   0.00000  Uiso   1.00
H264   H     0.08068   0.01164   0.26371   0.00000  Uiso   1.00
H265   H     0.00492   0.61489   0.04448   0.00000  Uiso   1.00
H266   H     0.87854   0.99512   0.93112   0.00000  Uiso   1.00
H267   H     0.12389   0.10807   0.41427   0.00000  Uiso   1.00
O268   O     0.91677   0.48183   0.02249   0.00000  Uiso   1.00
O269   O     0.75096   0.98069   0.87377   0.00000  Uiso   1.00
O270   O     0.07285   0.12888   0.50764   0.00000  Uiso   1.00
N271   N     0.86801   0.56888   0.05727   0.00000  Uiso   1.00
N272   N     0.74984   0.92436   0.95128   0.00000  Uiso   1.00
N273   N     0.97922   0.02998   0.40297   0.00000  Uiso   1.00
N274   N     0.96370   0.61433   0.05223   0.00000  Uiso   1.00
N275   N     0.84553   0.96981   0.94623   0.00000  Uiso   1.00
N276   N     0.07491   0.07543   0.39793   0.00000  Uiso   1.00
C277   C     0.79145   0.76495   0.39773   0.00000  Uiso   1.00
C278   C     0.86364   0.77102   0.43349   0.00000  Uiso   1.00
C279   C     0.92222   0.83924   0.47049   0.00000  Uiso   1.00
C280   C     0.98339   0.83252   0.49931   0.00000  Uiso   1.00
C281   C     0.09511   0.85295   0.55607   0.00000  Uiso   1.00
C282   C     0.75210   0.72653   0.43008   0.00000  Uiso   1.00
C283   C     0.71689   0.75734   0.46420   0.00000  Uiso   1.00
C284   C     0.68416   0.71316   0.49014   0.00000  Uiso   1.00
C285   C     0.62268   0.66450   0.54156   0.00000  Uiso   1.00
C286   C     0.76167   0.70599   0.31960   0.00000  Uiso   1.00
C287   C     0.73448   0.71952   0.26083   0.00000  Uiso   1.00
C288   C     0.70980   0.65803   0.19375   0.00000  Uiso   1.00
C289   C     0.66317   0.57748   0.07364   0.00000  Uiso   1.00
C290   C     0.79592   0.63169   0.38309   0.00000  Uiso   1.00
C291   C     0.86607   0.69863   0.42554   0.00000  Uiso   1.00
C292   C     0.92717   0.69181   0.45430   0.00000  Uiso   1.00
C293   C     0.98583   0.76001   0.49134   0.00000  Uiso   1.00
C294   C     0.75453   0.65415   0.42213   0.00000  Uiso   1.00
C295   C     0.72184   0.60991   0.44802   0.00000  Uiso   1.00
C296   C     0.68659   0.64065   0.48218   0.00000  Uiso   1.00
C297   C     0.76410   0.63361   0.31165   0.00000  Uiso   1.00
C298   C     0.73944   0.57209   0.24465   0.00000  Uiso   1.00
C299   C     0.71223   0.58552   0.18579   0.00000  Uiso   1.00
H300   H     0.78955   0.82130   0.40391   0.00000  Uiso   1.00
H301   H     0.92032   0.89524   0.47663   0.00000  Uiso   1.00
H302   H     0.71501   0.81335   0.47034   0.00000  Uiso   1.00
H303   H     0.73261   0.77554   0.26700   0.00000  Uiso   1.00
H304   H     0.06636   0.94531   0.55377   0.00000  Uiso   1.00
H305   H     0.63345   0.77262   0.54048   0.00000  Uiso   1.00
H306   H     0.67056   0.69288   0.11170   0.00000  Uiso   1.00
H307   H     0.79781   0.57534   0.37691   0.00000  Uiso   1.00
H308   H     0.92903   0.63579   0.44814   0.00000  Uiso   1.00
H309   H     0.72373   0.55390   0.44185   0.00000  Uiso   1.00
H310   H     0.74133   0.51608   0.23852   0.00000  Uiso   1.00
H311   H     0.07343   0.73472   0.53066   0.00000  Uiso   1.00
H312   H     0.64052   0.56204   0.51736   0.00000  Uiso   1.00
H313   H     0.67763   0.48230   0.08858   0.00000  Uiso   1.00
O314   O     0.15607   0.88422   0.58958   0.00000  Uiso   1.00
O315   O     0.58810   0.65766   0.57213   0.00000  Uiso   1.00
O316   O     0.63678   0.55305   0.00959   0.00000  Uiso   1.00
N317   N     0.05002   0.88745   0.53854   0.00000  Uiso   1.00
N318   N     0.64528   0.72600   0.52613   0.00000  Uiso   1.00
N319   N     0.67996   0.65145   0.12525   0.00000  Uiso   1.00
N320   N     0.05382   0.77413   0.52610   0.00000  Uiso   1.00
N321   N     0.64909   0.61269   0.51369   0.00000  Uiso   1.00
N322   N     0.68376   0.53814   0.11281   0.00000  Uiso   1.00
C323   C     0.51840   0.58770   0.81528   0.00000  Uiso   1.00
C324   C     0.52805   0.66990   0.82328   0.00000  Uiso   1.00
C325   C     0.56719   0.73852   0.88648   0.00000  Uiso   1.00
C326   C     0.56951   0.80782   0.88263   0.00000  Uiso   1.00
C327   C     0.58993   0.93538   0.90491   0.00000  Uiso   1.00
C328   C     0.54028   0.55243   0.75851   0.00000  Uiso   1.00
C329   C     0.58969   0.52228   0.76725   0.00000  Uiso   1.00
C330   C     0.60229   0.49268   0.70888   0.00000  Uiso   1.00
C331   C     0.64166   0.43782   0.63058   0.00000  Uiso   1.00
C332   C     0.44201   0.54147   0.78233   0.00000  Uiso   1.00
C333   C     0.40879   0.50209   0.81109   0.00000  Uiso   1.00
C334   C     0.33865   0.46325   0.77276   0.00000  Uiso   1.00
C335   C     0.22543   0.39137   0.73145   0.00000  Uiso   1.00
C336   C     0.45291   0.58875   0.69606   0.00000  Uiso   1.00
C337   C     0.49248   0.67047   0.75853   0.00000  Uiso   1.00
C338   C     0.49473   0.73968   0.75458   0.00000  Uiso   1.00
C339   C     0.53387   0.80839   0.81776   0.00000  Uiso   1.00
C340   C     0.50471   0.55300   0.69376   0.00000  Uiso   1.00
C341   C     0.51723   0.52344   0.63535   0.00000  Uiso   1.00
C342   C     0.56666   0.49325   0.64400   0.00000  Uiso   1.00
C343   C     0.40643   0.54205   0.71758   0.00000  Uiso   1.00
C344   C     0.33633   0.50325   0.67919   0.00000  Uiso   1.00
C345   C     0.30301   0.46382   0.70789   0.00000  Uiso   1.00
H346   H     0.54610   0.58725   0.86569   0.00000  Uiso   1.00
H347   H     0.59472   0.73806   0.93658   0.00000  Uiso   1.00
H348   H     0.61721   0.52184   0.81737   0.00000  Uiso   1.00
H349   H     0.43634   0.50166   0.86120   0.00000  Uiso   1.00
H350   H     0.63296   0.90550   0.98662   0.00000  Uiso   1.00
H351   H     0.68036   0.44958   0.73524   0.00000  Uiso   1.00
H352   H     0.29895   0.40702   0.82767   0.00000  Uiso   1.00
H353   H     0.42521   0.58919   0.64564   0.00000  Uiso   1.00
H354   H     0.46720   0.74011   0.70446   0.00000  Uiso   1.00
H355   H     0.48969   0.52389   0.58525   0.00000  Uiso   1.00
H356   H     0.30882   0.50371   0.62908   0.00000  Uiso   1.00
H357   H     0.52946   0.90717   0.79822   0.00000  Uiso   1.00
H358   H     0.57686   0.45124   0.54685   0.00000  Uiso   1.00
H359   H     0.19545   0.40868   0.63928   0.00000  Uiso   1.00
O360   O     0.61102   0.00558   0.93508   0.00000  Uiso   1.00
O361   O     0.67321   0.40741   0.60529   0.00000  Uiso   1.00
O362   O     0.17281   0.35158   0.72655   0.00000  Uiso   1.00
N363   N     0.60282   0.88518   0.93421   0.00000  Uiso   1.00
N364   N     0.64715   0.45893   0.69919   0.00000  Uiso   1.00
N365   N     0.29057   0.41912   0.78560   0.00000  Uiso   1.00
N366   N     0.54713   0.88608   0.83284   0.00000  Uiso   1.00
N367   N     0.59146   0.45983   0.59782   0.00000  Uiso   1.00
N368   N     0.23488   0.42002   0.68423   0.00000  Uiso   1.00
C369   C     0.01922   0.43753   0.71192   0.00000  Uiso   1.00
C370   C     0.01993   0.45186   0.78423   0.00000  Uiso   1.00
C371   C     0.07740   0.48923   0.84966   0.00000  Uiso   1.00
C372   C     0.06733   0.49656   0.90966   0.00000  Uiso   1.00
C373   C     0.07834   0.52327   0.02275   0.00000  Uiso   1.00
C374   C     0.97410   0.47453   0.67999   0.00000  Uiso   1.00
C375   C     0.99305   0.53096   0.65776   0.00000  Uiso   1.00
C376   C     0.94440   0.55737   0.63001   0.00000  Uiso   1.00
C377   C     0.88426   0.61923   0.58121   0.00000  Uiso   1.00
C378   C     0.98134   0.34958   0.66485   0.00000  Uiso   1.00
C379   C     0.00636   0.30095   0.62987   0.00000  Uiso   1.00
C380   C     0.96379   0.22216   0.58936   0.00000  Uiso   1.00
C381   C     0.91488   0.09001   0.51705   0.00000  Uiso   1.00
C382   C     0.89913   0.38410   0.70213   0.00000  Uiso   1.00
C383   C     0.95469   0.42284   0.77891   0.00000  Uiso   1.00
C384   C     0.94453   0.43012   0.83883   0.00000  Uiso   1.00
C385   C     0.00198   0.46749   0.90434   0.00000  Uiso   1.00
C386   C     0.90888   0.44551   0.67467   0.00000  Uiso   1.00
C387   C     0.86018   0.47184   0.64694   0.00000  Uiso   1.00
C388   C     0.87905   0.52829   0.62468   0.00000  Uiso   1.00
C389   C     0.91611   0.32056   0.65953   0.00000  Uiso   1.00
C390   C     0.87349   0.24183   0.61905   0.00000  Uiso   1.00
C391   C     0.89844   0.19308   0.58403   0.00000  Uiso   1.00
H392   H     0.07000   0.46013   0.71606   0.00000  Uiso   1.00
H393   H     0.12787   0.51169   0.85375   0.00000  Uiso   1.00
H394   H     0.04353   0.55340   0.66188   0.00000  Uiso   1.00
H395   H     0.05684   0.32343   0.63400   0.00000  Uiso   1.00
H396   H     0.16326   0.55608   0.00407   0.00000  Uiso   1.00
H397   H     0.98542   0.64401   0.59947   0.00000  Uiso   1.00
H398   H     0.01348   0.15907   0.54068   0.00000  Uiso   1.00
H399   H     0.84834   0.36150   0.69799   0.00000  Uiso   1.00
H400   H     0.89405   0.40765   0.83470   0.00000  Uiso   1.00
H401   H     0.80971   0.44937   0.64283   0.00000  Uiso   1.00
H402   H     0.82301   0.21939   0.61495   0.00000  Uiso   1.00
H403   H     0.97348   0.47165   0.98860   0.00000  Uiso   1.00
H404   H     0.79564   0.55958   0.58401   0.00000  Uiso   1.00
H405   H     0.82370   0.07463   0.52522   0.00000  Uiso   1.00
O406   O     0.10244   0.54603   0.08659   0.00000  Uiso   1.00
O407   O     0.86911   0.66138   0.55577   0.00000  Uiso   1.00
O408   O     0.90592   0.02514   0.47864   0.00000  Uiso   1.00
N409   N     0.11233   0.52986   0.98166   0.00000  Uiso   1.00
N410   N     0.94606   0.61208   0.60341   0.00000  Uiso   1.00
N411   N     0.97228   0.15870   0.54843   0.00000  Uiso   1.00
N412   N     0.01021   0.48443   0.97334   0.00000  Uiso   1.00
N413   N     0.84394   0.56665   0.59508   0.00000  Uiso   1.00
N414   N     0.87016   0.11327   0.54010   0.00000  Uiso   1.00
C415   C     0.30197   0.92404   0.43923   0.00000  Uiso   1.00
C416   C     0.36720   0.92698   0.43293   0.00000  Uiso   1.00
C417   C     0.42736   0.93958   0.48699   0.00000  Uiso   1.00
C418   C     0.48128   0.94016   0.47056   0.00000  Uiso   1.00
C419   C     0.58350   0.94653   0.47114   0.00000  Uiso   1.00
C420   C     0.28427   0.98540   0.41862   0.00000  Uiso   1.00
C421   C     0.27469   0.04712   0.46064   0.00000  Uiso   1.00
C422   C     0.25879   0.09688   0.43215   0.00000  Uiso   1.00
C423   C     0.23221   0.19392   0.41049   0.00000  Uiso   1.00
C424   C     0.24676   0.84511   0.38029   0.00000  Uiso   1.00
C425   C     0.20563   0.78887   0.39007   0.00000  Uiso   1.00
C426   C     0.15814   0.72052   0.32931   0.00000  Uiso   1.00
C427   C     0.07332   0.59973   0.24813   0.00000  Uiso   1.00
C428   C     0.29075   0.90267   0.31393   0.00000  Uiso   1.00
C429   C     0.36110   0.91537   0.36487   0.00000  Uiso   1.00
C430   C     0.41495   0.91594   0.34835   0.00000  Uiso   1.00
C431   C     0.47517   0.92853   0.40238   0.00000  Uiso   1.00
C432   C     0.27818   0.97380   0.35056   0.00000  Uiso   1.00
C433   C     0.26228   0.02348   0.32200   0.00000  Uiso   1.00
C434   C     0.25269   0.08526   0.36397   0.00000  Uiso   1.00
C435   C     0.24067   0.83350   0.31223   0.00000  Uiso   1.00
C436   C     0.19322   0.76523   0.25144   0.00000  Uiso   1.00
C437   C     0.15204   0.70889   0.26113   0.00000  Uiso   1.00
H438   H     0.30672   0.93308   0.49222   0.00000  Uiso   1.00
H439   H     0.43206   0.94856   0.53965   0.00000  Uiso   1.00
H440   H     0.27941   0.05608   0.51330   0.00000  Uiso   1.00
H441   H     0.21036   0.79787   0.44275   0.00000  Uiso   1.00
H442   H     0.56834   0.96064   0.56223   0.00000  Uiso   1.00
H443   H     0.24645   0.18733   0.50666   0.00000  Uiso   1.00
H444   H     0.10085   0.64284   0.35788   0.00000  Uiso   1.00
H445   H     0.28601   0.89364   0.26094   0.00000  Uiso   1.00
H446   H     0.41021   0.90695   0.29568   0.00000  Uiso   1.00
H447   H     0.25757   0.01447   0.26933   0.00000  Uiso   1.00
H448   H     0.18852   0.75626   0.19878   0.00000  Uiso   1.00
H449   H     0.55061   0.92687   0.36422   0.00000  Uiso   1.00
H450   H     0.22872   0.15356   0.30864   0.00000  Uiso   1.00
H451   H     0.08313   0.60908   0.15987   0.00000  Uiso   1.00
O452   O     0.64156   0.95326   0.49026   0.00000  Uiso   1.00
O453   O     0.21924   0.25065   0.41734   0.00000  Uiso   1.00
O454   O     0.02823   0.53630   0.22215   0.00000  Uiso   1.00
N455   N     0.54712   0.95085   0.51086   0.00000  Uiso   1.00
N456   N     0.24618   0.16280   0.45890   0.00000  Uiso   1.00
N457   N     0.11005   0.65376   0.31981   0.00000  Uiso   1.00
N458   N     0.53758   0.93268   0.40431   0.00000  Uiso   1.00
N459   N     0.23664   0.14463   0.35235   0.00000  Uiso   1.00
N460   N     0.10051   0.63559   0.21326   0.00000  Uiso   1.00
C461   C     0.03465   0.37065   0.22125   0.00000  Uiso   1.00
C462   C     0.04853   0.34617   0.28140   0.00000  Uiso   1.00
C463   C     0.07092   0.39485   0.35303   0.00000  Uiso   1.00
C464   C     0.08061   0.36126   0.39973   0.00000  Uiso   1.00
C465   C     0.10407   0.33533   0.49681   0.00000  Uiso   1.00
C466   C     0.07862   0.34816   0.18583   0.00000  Uiso   1.00
C467   C     0.12630   0.39851   0.17710   0.00000  Uiso   1.00
C468   C     0.16131   0.36659   0.14333   0.00000  Uiso   1.00
C469   C     0.23145   0.34375   0.09198   0.00000  Uiso   1.00
C470   C     0.96132   0.31742   0.16606   0.00000  Uiso   1.00
C471   C     0.91036   0.34193   0.14068   0.00000  Uiso   1.00
C472   C     0.84662   0.28412   0.09025   0.00000  Uiso   1.00
C473   C     0.73462   0.21355   0.00821   0.00000  Uiso   1.00
C474   C     0.01206   0.22443   0.17680   0.00000  Uiso   1.00
C475   C     0.03626   0.26674   0.25726   0.00000  Uiso   1.00
C476   C     0.04592   0.23307   0.30385   0.00000  Uiso   1.00
C477   C     0.06831   0.28169   0.37554   0.00000  Uiso   1.00
C478   C     0.06636   0.26874   0.16169   0.00000  Uiso   1.00
C479   C     0.10130   0.23673   0.12792   0.00000  Uiso   1.00
C480   C     0.14902   0.28703   0.11914   0.00000  Uiso   1.00
C481   C     0.94905   0.23800   0.14191   0.00000  Uiso   1.00
C482   C     0.88537   0.18014   0.09151   0.00000  Uiso   1.00
C483   C     0.83433   0.20456   0.06606   0.00000  Uiso   1.00
H484   H     0.04420   0.43248   0.24004   0.00000  Uiso   1.00
H485   H     0.08041   0.45631   0.37170   0.00000  Uiso   1.00
H486   H     0.13578   0.45997   0.19578   0.00000  Uiso   1.00
H487   H     0.91988   0.40339   0.15938   0.00000  Uiso   1.00
H488   H     0.11517   0.44771   0.50701   0.00000  Uiso   1.00
H489   H     0.23189   0.45542   0.13607   0.00000  Uiso   1.00
H490   H     0.77662   0.33611   0.05930   0.00000  Uiso   1.00
H491   H     0.00251   0.16259   0.15800   0.00000  Uiso   1.00
H492   H     0.03642   0.17160   0.28515   0.00000  Uiso   1.00
H493   H     0.09179   0.17527   0.10924   0.00000  Uiso   1.00
H494   H     0.87589   0.11869   0.07284   0.00000  Uiso   1.00
H495   H     0.07947   0.21663   0.43678   0.00000  Uiso   1.00
H496   H     0.19619   0.22434   0.06582   0.00000  Uiso   1.00
H497   H     0.74092   0.10504   0.98906   0.00000  Uiso   1.00
O498   O     0.12040   0.34297   0.55703   0.00000  Uiso   1.00
O499   O     0.27353   0.35309   0.07034   0.00000  Uiso   1.00
O500   O     0.67623   0.19656   0.96963   0.00000  Uiso   1.00
N501   N     0.10210   0.39208   0.47303   0.00000  Uiso   1.00
N502   N     0.21124   0.39930   0.12623   0.00000  Uiso   1.00
N503   N     0.78560   0.28775   0.05444   0.00000  Uiso   1.00
N504   N     0.08289   0.26774   0.43524   0.00000  Uiso   1.00
N505   N     0.19203   0.27496   0.08843   0.00000  Uiso   1.00
N506   N     0.76639   0.16341   0.01665   0.00000  Uiso   1.00
C507   C     0.50336   0.17878   0.05191   0.00000  Uiso   1.00
C508   C     0.48321   0.24825   0.06797   0.00000  Uiso   1.00
C509   C     0.52341   0.32405   0.08581   0.00000  Uiso   1.00
C510   C     0.49574   0.37928   0.09852   0.00000  Uiso   1.00
C511   C     0.47444   0.49018   0.12424   0.00000  Uiso   1.00
C512   C     0.49525   0.14634   0.10384   0.00000  Uiso   1.00
C513   C     0.54558   0.13646   0.15184   0.00000  Uiso   1.00
C514   C     0.52804   0.10589   0.19475   0.00000  Uiso   1.00
C515   C     0.52541   0.05853   0.27612   0.00000  Uiso   1.00
C516   C     0.44894   0.11658   0.97767   0.00000  Uiso   1.00
C517   C     0.46034   0.08166   0.91958   0.00000  Uiso   1.00
C518   C     0.40381   0.02601   0.85626   0.00000  Uiso   1.00
C519   C     0.32929   0.93245   0.74173   0.00000  Uiso   1.00
C520   C     0.38271   0.14204   0.04276   0.00000  Uiso   1.00
C521   C     0.41768   0.22829   0.06300   0.00000  Uiso   1.00
C522   C     0.38994   0.28341   0.07569   0.00000  Uiso   1.00
C523   C     0.43010   0.35929   0.09354   0.00000  Uiso   1.00
C524   C     0.42972   0.12639   0.09888   0.00000  Uiso   1.00
C525   C     0.41210   0.09582   0.14172   0.00000  Uiso   1.00
C526   C     0.46239   0.08590   0.18977   0.00000  Uiso   1.00
C527   C     0.38341   0.09663   0.97270   0.00000  Uiso   1.00
C528   C     0.32686   0.04102   0.90946   0.00000  Uiso   1.00
C529   C     0.33816   0.00602   0.85128   0.00000  Uiso   1.00
H530   H     0.55437   0.19431   0.05578   0.00000  Uiso   1.00
H531   H     0.57413   0.33947   0.08965   0.00000  Uiso   1.00
H532   H     0.59628   0.15190   0.15567   0.00000  Uiso   1.00
H533   H     0.51105   0.09711   0.92344   0.00000  Uiso   1.00
H534   H     0.56713   0.49162   0.12504   0.00000  Uiso   1.00
H535   H     0.61384   0.09609   0.26422   0.00000  Uiso   1.00
H536   H     0.43413   0.98055   0.77452   0.00000  Uiso   1.00
H537   H     0.33170   0.12651   0.03890   0.00000  Uiso   1.00
H538   H     0.33923   0.26795   0.07184   0.00000  Uiso   1.00
H539   H     0.36139   0.08038   0.13785   0.00000  Uiso   1.00
H540   H     0.27616   0.02559   0.90563   0.00000  Uiso   1.00
H541   H     0.37648   0.43357   0.11058   0.00000  Uiso   1.00
H542   H     0.42320   0.03803   0.24976   0.00000  Uiso   1.00
H543   H     0.24348   0.92250   0.76007   0.00000  Uiso   1.00
O544   O     0.48079   0.55687   0.13981   0.00000  Uiso   1.00
O545   O     0.54207   0.03793   0.32239   0.00000  Uiso   1.00
O546   O     0.30628   0.88636   0.67993   0.00000  Uiso   1.00
N547   N     0.52123   0.45854   0.11710   0.00000  Uiso   1.00
N548   N     0.56490   0.08876   0.24723   0.00000  Uiso   1.00
N549   N     0.39688   0.98072   0.78942   0.00000  Uiso   1.00
N550   N     0.41864   0.42731   0.10932   0.00000  Uiso   1.00
N551   N     0.46231   0.05752   0.23945   0.00000  Uiso   1.00
N552   N     0.29429   0.94949   0.78164   0.00000  Uiso   1.00
