data_job_02407
_audit_creation_date              2018-12-19
_audit_creation_method            'Materials Studio'
_symmetry_space_group_name_H-M    'P1'
_symmetry_Int_Tables_number       1
_symmetry_cell_setting            triclinic
loop_
_symmetry_equiv_pos_as_xyz
  x,y,z
_cell_length_a                    15.7691
_cell_length_b                    10.5537
_cell_length_c                    28.2757
_cell_angle_alpha                 90.0000
_cell_angle_beta                  138.7033
_cell_angle_gamma                 90.0000
loop_
_atom_site_label
_atom_site_type_symbol
_atom_site_fract_x
_atom_site_fract_y
_atom_site_fract_z
_atom_site_U_iso_or_equiv
_atom_site_adp_type
_atom_site_occupancy
C1     C     0.59802   0.72172   0.63459   0.00000  Uiso   1.00
C2     C     0.67846   0.77780   0.70822   0.00000  Uiso   1.00
C3     C     0.72807   0.89981   0.73030   0.00000  Uiso   1.00
C4     C     0.79920   0.93298   0.79976   0.00000  Uiso   1.00
C5     C     0.92102   0.03310   0.90715   0.00000  Uiso   1.00
C6     C     0.66841   0.60246   0.64808   0.00000  Uiso   1.00
C7     C     0.70954   0.57704   0.61960   0.00000  Uiso   1.00
C8     C     0.77219   0.46260   0.63843   0.00000  Uiso   1.00
C9     C     0.87832   0.29045   0.65242   0.00000  Uiso   1.00
C10    C     0.47330   0.67658   0.60508   0.00000  Uiso   1.00
C11    C     0.35037   0.71345   0.54043   0.00000  Uiso   1.00
C12    C     0.24875   0.66140   0.52304   0.00000  Uiso   1.00
C13    C     0.05193   0.60434   0.47026   0.00000  Uiso   1.00
C14    C     0.63611   0.56367   0.71865   0.00000  Uiso   1.00
C15    C     0.69916   0.69195   0.75388   0.00000  Uiso   1.00
C16    C     0.77022   0.72495   0.82332   0.00000  Uiso   1.00
C17    C     0.81992   0.84699   0.84550   0.00000  Uiso   1.00
C18    C     0.68910   0.51661   0.69374   0.00000  Uiso   1.00
C19    C     0.75169   0.40218   0.71261   0.00000  Uiso   1.00
C20    C     0.79292   0.37660   0.68418   0.00000  Uiso   1.00
C21    C     0.49399   0.59074   0.65074   0.00000  Uiso   1.00
C22    C     0.39253   0.53860   0.63344   0.00000  Uiso   1.00
C23    C     0.26948   0.57540   0.56878   0.00000  Uiso   1.00
H24    H     0.58191   0.78854   0.59904   0.00000  Uiso   1.00
H25    H     0.71205   0.96621   0.69495   0.00000  Uiso   1.00
H26    H     0.69351   0.64348   0.58426   0.00000  Uiso   1.00
H27    H     0.33440   0.77988   0.50511   0.00000  Uiso   1.00
H28    H     0.86549   0.12531   0.82144   0.00000  Uiso   1.00
H29    H     0.82637   0.44481   0.58803   0.00000  Uiso   1.00
H30    H     0.06911   0.73244   0.42110   0.00000  Uiso   1.00
H31    H     0.65222   0.49683   0.75421   0.00000  Uiso   1.00
H32    H     0.78622   0.65850   0.85864   0.00000  Uiso   1.00
H33    H     0.76768   0.33577   0.74795   0.00000  Uiso   1.00
H34    H     0.40858   0.47217   0.66879   0.00000  Uiso   1.00
H35    H     0.92570   0.87556   0.95429   0.00000  Uiso   1.00
H36    H     0.88657   0.19505   0.72088   0.00000  Uiso   1.00
H37    H     0.12932   0.48269   0.55396   0.00000  Uiso   1.00
O38    O     0.98251   0.11204   0.95377   0.00000  Uiso   1.00
O39    O     0.93115   0.21923   0.64753   0.00000  Uiso   1.00
O40    O     0.93766   0.59660   0.42854   0.00000  Uiso   1.00
N41    N     0.86125   0.04436   0.83837   0.00000  Uiso   1.00
N42    N     0.82469   0.40813   0.62015   0.00000  Uiso   1.00
N43    N     0.11672   0.67702   0.46408   0.00000  Uiso   1.00
N44    N     0.89365   0.90997   0.90986   0.00000  Uiso   1.00
N45    N     0.85708   0.27374   0.69164   0.00000  Uiso   1.00
N46    N     0.14911   0.54263   0.53557   0.00000  Uiso   1.00
C47    C     0.40198   0.72172   0.86541   0.00000  Uiso   1.00
C48    C     0.32154   0.77780   0.79178   0.00000  Uiso   1.00
C49    C     0.27193   0.89981   0.76970   0.00000  Uiso   1.00
C50    C     0.20080   0.93298   0.70024   0.00000  Uiso   1.00
C51    C     0.07898   0.03310   0.59285   0.00000  Uiso   1.00
C52    C     0.33159   0.60246   0.85192   0.00000  Uiso   1.00
C53    C     0.29046   0.57704   0.88040   0.00000  Uiso   1.00
C54    C     0.22781   0.46260   0.86157   0.00000  Uiso   1.00
C55    C     0.12168   0.29045   0.84758   0.00000  Uiso   1.00
C56    C     0.52670   0.67658   0.89492   0.00000  Uiso   1.00
C57    C     0.64963   0.71345   0.95957   0.00000  Uiso   1.00
C58    C     0.75125   0.66140   0.97696   0.00000  Uiso   1.00
C59    C     0.94807   0.60434   0.02974   0.00000  Uiso   1.00
C60    C     0.36389   0.56367   0.78135   0.00000  Uiso   1.00
C61    C     0.30084   0.69195   0.74612   0.00000  Uiso   1.00
C62    C     0.22978   0.72495   0.67668   0.00000  Uiso   1.00
C63    C     0.18008   0.84699   0.65450   0.00000  Uiso   1.00
C64    C     0.31090   0.51661   0.80626   0.00000  Uiso   1.00
C65    C     0.24831   0.40218   0.78739   0.00000  Uiso   1.00
C66    C     0.20708   0.37660   0.81582   0.00000  Uiso   1.00
C67    C     0.50601   0.59074   0.84926   0.00000  Uiso   1.00
C68    C     0.60747   0.53860   0.86656   0.00000  Uiso   1.00
C69    C     0.73052   0.57540   0.93122   0.00000  Uiso   1.00
H70    H     0.41809   0.78854   0.90096   0.00000  Uiso   1.00
H71    H     0.28795   0.96621   0.80505   0.00000  Uiso   1.00
H72    H     0.30649   0.64348   0.91574   0.00000  Uiso   1.00
H73    H     0.66560   0.77988   0.99489   0.00000  Uiso   1.00
H74    H     0.13451   0.12531   0.67856   0.00000  Uiso   1.00
H75    H     0.17363   0.44481   0.91197   0.00000  Uiso   1.00
H76    H     0.93089   0.73244   0.07890   0.00000  Uiso   1.00
H77    H     0.34778   0.49683   0.74579   0.00000  Uiso   1.00
H78    H     0.21378   0.65850   0.64136   0.00000  Uiso   1.00
H79    H     0.23232   0.33577   0.75205   0.00000  Uiso   1.00
H80    H     0.59142   0.47217   0.83121   0.00000  Uiso   1.00
H81    H     0.07430   0.87556   0.54571   0.00000  Uiso   1.00
H82    H     0.11343   0.19505   0.77912   0.00000  Uiso   1.00
H83    H     0.87068   0.48269   0.94604   0.00000  Uiso   1.00
O84    O     0.01749   0.11204   0.54623   0.00000  Uiso   1.00
O85    O     0.06885   0.21923   0.85247   0.00000  Uiso   1.00
O86    O     0.06234   0.59660   0.07146   0.00000  Uiso   1.00
N87    N     0.13875   0.04436   0.66163   0.00000  Uiso   1.00
N88    N     0.17531   0.40813   0.87985   0.00000  Uiso   1.00
N89    N     0.88328   0.67702   0.03592   0.00000  Uiso   1.00
N90    N     0.10635   0.90997   0.59014   0.00000  Uiso   1.00
N91    N     0.14292   0.27374   0.80836   0.00000  Uiso   1.00
N92    N     0.85089   0.54263   0.96443   0.00000  Uiso   1.00
C93    C     0.40198   0.27828   0.36541   0.00000  Uiso   1.00
C94    C     0.32154   0.22220   0.29178   0.00000  Uiso   1.00
C95    C     0.27193   0.10019   0.26970   0.00000  Uiso   1.00
C96    C     0.20080   0.06702   0.20024   0.00000  Uiso   1.00
C97    C     0.07898   0.96690   0.09285   0.00000  Uiso   1.00
C98    C     0.33159   0.39754   0.35192   0.00000  Uiso   1.00
C99    C     0.29046   0.42296   0.38040   0.00000  Uiso   1.00
C100   C     0.22781   0.53740   0.36157   0.00000  Uiso   1.00
C101   C     0.12168   0.70955   0.34758   0.00000  Uiso   1.00
C102   C     0.52670   0.32342   0.39492   0.00000  Uiso   1.00
C103   C     0.64963   0.28655   0.45957   0.00000  Uiso   1.00
C104   C     0.75125   0.33860   0.47696   0.00000  Uiso   1.00
C105   C     0.94807   0.39566   0.52974   0.00000  Uiso   1.00
C106   C     0.36389   0.43633   0.28135   0.00000  Uiso   1.00
C107   C     0.30084   0.30805   0.24612   0.00000  Uiso   1.00
C108   C     0.22978   0.27505   0.17668   0.00000  Uiso   1.00
C109   C     0.18008   0.15301   0.15450   0.00000  Uiso   1.00
C110   C     0.31090   0.48339   0.30626   0.00000  Uiso   1.00
C111   C     0.24831   0.59782   0.28739   0.00000  Uiso   1.00
C112   C     0.20708   0.62340   0.31582   0.00000  Uiso   1.00
C113   C     0.50601   0.40926   0.34926   0.00000  Uiso   1.00
C114   C     0.60747   0.46140   0.36656   0.00000  Uiso   1.00
C115   C     0.73052   0.42460   0.43122   0.00000  Uiso   1.00
H116   H     0.41809   0.21146   0.40096   0.00000  Uiso   1.00
H117   H     0.28795   0.03379   0.30505   0.00000  Uiso   1.00
H118   H     0.30649   0.35652   0.41574   0.00000  Uiso   1.00
H119   H     0.66560   0.22012   0.49489   0.00000  Uiso   1.00
H120   H     0.13451   0.87469   0.17856   0.00000  Uiso   1.00
H121   H     0.17363   0.55519   0.41197   0.00000  Uiso   1.00
H122   H     0.93089   0.26756   0.57890   0.00000  Uiso   1.00
H123   H     0.34778   0.50317   0.24579   0.00000  Uiso   1.00
H124   H     0.21378   0.34150   0.14136   0.00000  Uiso   1.00
H125   H     0.23232   0.66423   0.25205   0.00000  Uiso   1.00
H126   H     0.59142   0.52783   0.33121   0.00000  Uiso   1.00
H127   H     0.07430   0.12444   0.04571   0.00000  Uiso   1.00
H128   H     0.11343   0.80495   0.27912   0.00000  Uiso   1.00
H129   H     0.87068   0.51731   0.44604   0.00000  Uiso   1.00
O130   O     0.01749   0.88796   0.04623   0.00000  Uiso   1.00
O131   O     0.06885   0.78077   0.35247   0.00000  Uiso   1.00
O132   O     0.06234   0.40340   0.57146   0.00000  Uiso   1.00
N133   N     0.13875   0.95564   0.16163   0.00000  Uiso   1.00
N134   N     0.17531   0.59187   0.37985   0.00000  Uiso   1.00
N135   N     0.88328   0.32298   0.53592   0.00000  Uiso   1.00
N136   N     0.10635   0.09003   0.09014   0.00000  Uiso   1.00
N137   N     0.14292   0.72626   0.30836   0.00000  Uiso   1.00
N138   N     0.85089   0.45737   0.46443   0.00000  Uiso   1.00
C139   C     0.59802   0.27828   0.13459   0.00000  Uiso   1.00
C140   C     0.67846   0.22220   0.20822   0.00000  Uiso   1.00
C141   C     0.72807   0.10019   0.23030   0.00000  Uiso   1.00
C142   C     0.79920   0.06702   0.29976   0.00000  Uiso   1.00
C143   C     0.92102   0.96690   0.40715   0.00000  Uiso   1.00
C144   C     0.66841   0.39754   0.14808   0.00000  Uiso   1.00
C145   C     0.70954   0.42296   0.11960   0.00000  Uiso   1.00
C146   C     0.77219   0.53740   0.13843   0.00000  Uiso   1.00
C147   C     0.87832   0.70955   0.15242   0.00000  Uiso   1.00
C148   C     0.47330   0.32342   0.10508   0.00000  Uiso   1.00
C149   C     0.35037   0.28655   0.04043   0.00000  Uiso   1.00
C150   C     0.24875   0.33860   0.02304   0.00000  Uiso   1.00
C151   C     0.05193   0.39566   0.97026   0.00000  Uiso   1.00
C152   C     0.63611   0.43633   0.21865   0.00000  Uiso   1.00
C153   C     0.69916   0.30805   0.25388   0.00000  Uiso   1.00
C154   C     0.77022   0.27505   0.32332   0.00000  Uiso   1.00
C155   C     0.81992   0.15301   0.34550   0.00000  Uiso   1.00
C156   C     0.68910   0.48339   0.19374   0.00000  Uiso   1.00
C157   C     0.75169   0.59782   0.21261   0.00000  Uiso   1.00
C158   C     0.79292   0.62340   0.18418   0.00000  Uiso   1.00
C159   C     0.49399   0.40926   0.15074   0.00000  Uiso   1.00
C160   C     0.39253   0.46140   0.13344   0.00000  Uiso   1.00
C161   C     0.26948   0.42460   0.06878   0.00000  Uiso   1.00
H162   H     0.58191   0.21146   0.09904   0.00000  Uiso   1.00
H163   H     0.71205   0.03379   0.19495   0.00000  Uiso   1.00
H164   H     0.69351   0.35652   0.08426   0.00000  Uiso   1.00
H165   H     0.33440   0.22012   0.00511   0.00000  Uiso   1.00
H166   H     0.86549   0.87469   0.32144   0.00000  Uiso   1.00
H167   H     0.82637   0.55519   0.08803   0.00000  Uiso   1.00
H168   H     0.06911   0.26756   0.92110   0.00000  Uiso   1.00
H169   H     0.65222   0.50317   0.25421   0.00000  Uiso   1.00
H170   H     0.78622   0.34150   0.35864   0.00000  Uiso   1.00
H171   H     0.76768   0.66423   0.24795   0.00000  Uiso   1.00
H172   H     0.40858   0.52783   0.16879   0.00000  Uiso   1.00
H173   H     0.92570   0.12444   0.45429   0.00000  Uiso   1.00
H174   H     0.88657   0.80495   0.22088   0.00000  Uiso   1.00
H175   H     0.12932   0.51731   0.05396   0.00000  Uiso   1.00
O176   O     0.98251   0.88796   0.45377   0.00000  Uiso   1.00
O177   O     0.93115   0.78077   0.14753   0.00000  Uiso   1.00
O178   O     0.93766   0.40340   0.92854   0.00000  Uiso   1.00
N179   N     0.86125   0.95564   0.33837   0.00000  Uiso   1.00
N180   N     0.82469   0.59187   0.12015   0.00000  Uiso   1.00
N181   N     0.11672   0.32298   0.96408   0.00000  Uiso   1.00
N182   N     0.89365   0.09003   0.40986   0.00000  Uiso   1.00
N183   N     0.85708   0.72626   0.19164   0.00000  Uiso   1.00
N184   N     0.14911   0.45737   0.03557   0.00000  Uiso   1.00
