data_job_03881
_audit_creation_date              2018-12-19
_audit_creation_method            'Materials Studio'
_symmetry_space_group_name_H-M    'P1'
_symmetry_Int_Tables_number       1
_symmetry_cell_setting            triclinic
loop_
_symmetry_equiv_pos_as_xyz
  x,y,z
_cell_length_a                    9.9886
_cell_length_b                    16.3513
_cell_length_c                    22.8728
_cell_angle_alpha                 90.0000
_cell_angle_beta                  81.3376
_cell_angle_gamma                 90.0000
loop_
_atom_site_label
_atom_site_type_symbol
_atom_site_fract_x
_atom_site_fract_y
_atom_site_fract_z
_atom_site_U_iso_or_equiv
_atom_site_adp_type
_atom_site_occupancy
C1     C     0.81757   0.36747   0.18374   0.00000  Uiso   1.00
C2     C     0.71400   0.41748   0.22472   0.00000  Uiso   1.00
C3     C     0.66674   0.39974   0.28354   0.00000  Uiso   1.00
C4     C     0.57207   0.45304   0.31347   0.00000  Uiso   1.00
C5     C     0.41814   0.52024   0.38135   0.00000  Uiso   1.00
C6     C     0.74942   0.34501   0.13059   0.00000  Uiso   1.00
C7     C     0.73196   0.26632   0.11027   0.00000  Uiso   1.00
C8     C     0.66711   0.25862   0.06095   0.00000  Uiso   1.00
C9     C     0.56826   0.21330   0.98267   0.00000  Uiso   1.00
C10    C     0.93165   0.42642   0.16064   0.00000  Uiso   1.00
C11    C     0.06743   0.41619   0.16558   0.00000  Uiso   1.00
C12    C     0.15601   0.47702   0.14155   0.00000  Uiso   1.00
C13    C     0.34011   0.55812   0.10994   0.00000  Uiso   1.00
C14    C     0.73347   0.49369   0.13229   0.00000  Uiso   1.00
C15    C     0.66832   0.48604   0.19677   0.00000  Uiso   1.00
C16    C     0.57370   0.53938   0.22662   0.00000  Uiso   1.00
C17    C     0.52631   0.52172   0.28548   0.00000  Uiso   1.00
C18    C     0.70374   0.41356   0.10264   0.00000  Uiso   1.00
C19    C     0.63891   0.40597   0.05335   0.00000  Uiso   1.00
C20    C     0.62134   0.32730   0.03296   0.00000  Uiso   1.00
C21    C     0.88598   0.49498   0.13270   0.00000  Uiso   1.00
C22    C     0.97437   0.55584   0.10866   0.00000  Uiso   1.00
C23    C     0.11025   0.54570   0.11356   0.00000  Uiso   1.00
H24    H     0.85314   0.31410   0.20549   0.00000  Uiso   1.00
H25    H     0.70211   0.34667   0.30515   0.00000  Uiso   1.00
H26    H     0.76733   0.21328   0.13190   0.00000  Uiso   1.00
H27    H     0.10274   0.36313   0.18720   0.00000  Uiso   1.00
H28    H     0.51449   0.41300   0.40331   0.00000  Uiso   1.00
H29    H     0.65205   0.13175   0.03799   0.00000  Uiso   1.00
H30    H     0.35933   0.44772   0.15461   0.00000  Uiso   1.00
H31    H     0.69791   0.54707   0.11053   0.00000  Uiso   1.00
H32    H     0.53836   0.59243   0.20498   0.00000  Uiso   1.00
H33    H     0.60358   0.45904   0.03173   0.00000  Uiso   1.00
H34    H     0.93899   0.60888   0.08704   0.00000  Uiso   1.00
H35    H     0.38158   0.61247   0.32201   0.00000  Uiso   1.00
H36    H     0.51914   0.33121   0.95669   0.00000  Uiso   1.00
H37    H     0.22642   0.64719   0.07332   0.00000  Uiso   1.00
O38    O     0.34585   0.53836   0.42650   0.00000  Uiso   1.00
O39    O     0.52635   0.16937   0.94721   0.00000  Uiso   1.00
O40    O     0.45427   0.58391   0.10022   0.00000  Uiso   1.00
N41    N     0.50513   0.45373   0.37122   0.00000  Uiso   1.00
N42    N     0.63371   0.19077   0.02967   0.00000  Uiso   1.00
N43    N     0.29497   0.48617   0.13869   0.00000  Uiso   1.00
N44    N     0.43361   0.56106   0.32747   0.00000  Uiso   1.00
N45    N     0.56220   0.29811   0.98592   0.00000  Uiso   1.00
N46    N     0.22345   0.59350   0.09494   0.00000  Uiso   1.00
C47    C     0.18243   0.86747   0.31626   0.00000  Uiso   1.00
C48    C     0.28600   0.91748   0.27528   0.00000  Uiso   1.00
C49    C     0.33326   0.89974   0.21646   0.00000  Uiso   1.00
C50    C     0.42793   0.95304   0.18653   0.00000  Uiso   1.00
C51    C     0.58186   0.02024   0.11865   0.00000  Uiso   1.00
C52    C     0.25058   0.84501   0.36941   0.00000  Uiso   1.00
C53    C     0.26804   0.76632   0.38973   0.00000  Uiso   1.00
C54    C     0.33289   0.75862   0.43905   0.00000  Uiso   1.00
C55    C     0.43174   0.71330   0.51733   0.00000  Uiso   1.00
C56    C     0.06835   0.92642   0.33936   0.00000  Uiso   1.00
C57    C     0.93257   0.91619   0.33442   0.00000  Uiso   1.00
C58    C     0.84399   0.97702   0.35845   0.00000  Uiso   1.00
C59    C     0.65989   0.05812   0.39006   0.00000  Uiso   1.00
C60    C     0.26653   0.99369   0.36771   0.00000  Uiso   1.00
C61    C     0.33168   0.98604   0.30323   0.00000  Uiso   1.00
C62    C     0.42630   0.03938   0.27338   0.00000  Uiso   1.00
C63    C     0.47369   0.02172   0.21452   0.00000  Uiso   1.00
C64    C     0.29626   0.91356   0.39736   0.00000  Uiso   1.00
C65    C     0.36109   0.90597   0.44665   0.00000  Uiso   1.00
C66    C     0.37866   0.82730   0.46704   0.00000  Uiso   1.00
C67    C     0.11402   0.99498   0.36730   0.00000  Uiso   1.00
C68    C     0.02563   0.05584   0.39134   0.00000  Uiso   1.00
C69    C     0.88975   0.04570   0.38644   0.00000  Uiso   1.00
H70    H     0.14686   0.81410   0.29451   0.00000  Uiso   1.00
H71    H     0.29789   0.84667   0.19485   0.00000  Uiso   1.00
H72    H     0.23267   0.71328   0.36810   0.00000  Uiso   1.00
H73    H     0.89726   0.86313   0.31280   0.00000  Uiso   1.00
H74    H     0.48551   0.91300   0.09669   0.00000  Uiso   1.00
H75    H     0.34795   0.63175   0.46201   0.00000  Uiso   1.00
H76    H     0.64067   0.94772   0.34539   0.00000  Uiso   1.00
H77    H     0.30209   0.04707   0.38947   0.00000  Uiso   1.00
H78    H     0.46164   0.09243   0.29502   0.00000  Uiso   1.00
H79    H     0.39642   0.95904   0.46827   0.00000  Uiso   1.00
H80    H     0.06101   0.10888   0.41296   0.00000  Uiso   1.00
H81    H     0.61842   0.11247   0.17799   0.00000  Uiso   1.00
H82    H     0.48086   0.83121   0.54331   0.00000  Uiso   1.00
H83    H     0.77358   0.14719   0.42668   0.00000  Uiso   1.00
O84    O     0.65415   0.03836   0.07350   0.00000  Uiso   1.00
O85    O     0.47365   0.66937   0.55279   0.00000  Uiso   1.00
O86    O     0.54573   0.08391   0.39978   0.00000  Uiso   1.00
N87    N     0.49487   0.95373   0.12878   0.00000  Uiso   1.00
N88    N     0.36629   0.69077   0.47033   0.00000  Uiso   1.00
N89    N     0.70503   0.98617   0.36131   0.00000  Uiso   1.00
N90    N     0.56639   0.06106   0.17253   0.00000  Uiso   1.00
N91    N     0.43780   0.79811   0.51408   0.00000  Uiso   1.00
N92    N     0.77655   0.09350   0.40506   0.00000  Uiso   1.00
C93    C     0.18243   0.63253   0.81626   0.00000  Uiso   1.00
C94    C     0.28600   0.58252   0.77528   0.00000  Uiso   1.00
C95    C     0.33326   0.60026   0.71646   0.00000  Uiso   1.00
C96    C     0.42793   0.54696   0.68653   0.00000  Uiso   1.00
C97    C     0.58186   0.47976   0.61865   0.00000  Uiso   1.00
C98    C     0.25058   0.65499   0.86941   0.00000  Uiso   1.00
C99    C     0.26804   0.73368   0.88973   0.00000  Uiso   1.00
C100   C     0.33289   0.74138   0.93905   0.00000  Uiso   1.00
C101   C     0.43174   0.78670   0.01733   0.00000  Uiso   1.00
C102   C     0.06835   0.57358   0.83936   0.00000  Uiso   1.00
C103   C     0.93257   0.58381   0.83442   0.00000  Uiso   1.00
C104   C     0.84399   0.52298   0.85845   0.00000  Uiso   1.00
C105   C     0.65989   0.44188   0.89006   0.00000  Uiso   1.00
C106   C     0.26653   0.50631   0.86771   0.00000  Uiso   1.00
C107   C     0.33168   0.51396   0.80323   0.00000  Uiso   1.00
C108   C     0.42630   0.46062   0.77338   0.00000  Uiso   1.00
C109   C     0.47369   0.47828   0.71452   0.00000  Uiso   1.00
C110   C     0.29626   0.58644   0.89736   0.00000  Uiso   1.00
C111   C     0.36109   0.59403   0.94665   0.00000  Uiso   1.00
C112   C     0.37866   0.67270   0.96704   0.00000  Uiso   1.00
C113   C     0.11402   0.50502   0.86730   0.00000  Uiso   1.00
C114   C     0.02563   0.44416   0.89134   0.00000  Uiso   1.00
C115   C     0.88975   0.45430   0.88644   0.00000  Uiso   1.00
H116   H     0.14686   0.68590   0.79451   0.00000  Uiso   1.00
H117   H     0.29789   0.65333   0.69485   0.00000  Uiso   1.00
H118   H     0.23267   0.78672   0.86810   0.00000  Uiso   1.00
H119   H     0.89726   0.63687   0.81280   0.00000  Uiso   1.00
H120   H     0.48551   0.58700   0.59669   0.00000  Uiso   1.00
H121   H     0.34795   0.86825   0.96201   0.00000  Uiso   1.00
H122   H     0.64067   0.55228   0.84539   0.00000  Uiso   1.00
H123   H     0.30209   0.45293   0.88947   0.00000  Uiso   1.00
H124   H     0.46164   0.40757   0.79502   0.00000  Uiso   1.00
H125   H     0.39642   0.54096   0.96827   0.00000  Uiso   1.00
H126   H     0.06101   0.39112   0.91296   0.00000  Uiso   1.00
H127   H     0.61842   0.38753   0.67799   0.00000  Uiso   1.00
H128   H     0.48086   0.66879   0.04331   0.00000  Uiso   1.00
H129   H     0.77358   0.35281   0.92668   0.00000  Uiso   1.00
O130   O     0.65415   0.46164   0.57350   0.00000  Uiso   1.00
O131   O     0.47365   0.83063   0.05279   0.00000  Uiso   1.00
O132   O     0.54573   0.41609   0.89978   0.00000  Uiso   1.00
N133   N     0.49487   0.54627   0.62878   0.00000  Uiso   1.00
N134   N     0.36629   0.80923   0.97033   0.00000  Uiso   1.00
N135   N     0.70503   0.51383   0.86131   0.00000  Uiso   1.00
N136   N     0.56639   0.43894   0.67253   0.00000  Uiso   1.00
N137   N     0.43780   0.70189   0.01408   0.00000  Uiso   1.00
N138   N     0.77655   0.40650   0.90506   0.00000  Uiso   1.00
C139   C     0.81757   0.13253   0.68374   0.00000  Uiso   1.00
C140   C     0.71400   0.08252   0.72472   0.00000  Uiso   1.00
C141   C     0.66674   0.10026   0.78354   0.00000  Uiso   1.00
C142   C     0.57207   0.04696   0.81347   0.00000  Uiso   1.00
C143   C     0.41814   0.97976   0.88135   0.00000  Uiso   1.00
C144   C     0.74942   0.15499   0.63059   0.00000  Uiso   1.00
C145   C     0.73196   0.23368   0.61027   0.00000  Uiso   1.00
C146   C     0.66711   0.24138   0.56095   0.00000  Uiso   1.00
C147   C     0.56826   0.28670   0.48267   0.00000  Uiso   1.00
C148   C     0.93165   0.07358   0.66064   0.00000  Uiso   1.00
C149   C     0.06743   0.08381   0.66558   0.00000  Uiso   1.00
C150   C     0.15601   0.02298   0.64155   0.00000  Uiso   1.00
C151   C     0.34011   0.94188   0.60994   0.00000  Uiso   1.00
C152   C     0.73347   0.00631   0.63229   0.00000  Uiso   1.00
C153   C     0.66832   0.01396   0.69677   0.00000  Uiso   1.00
C154   C     0.57370   0.96062   0.72662   0.00000  Uiso   1.00
C155   C     0.52631   0.97828   0.78548   0.00000  Uiso   1.00
C156   C     0.70374   0.08644   0.60264   0.00000  Uiso   1.00
C157   C     0.63891   0.09403   0.55335   0.00000  Uiso   1.00
C158   C     0.62134   0.17270   0.53296   0.00000  Uiso   1.00
C159   C     0.88598   0.00502   0.63270   0.00000  Uiso   1.00
C160   C     0.97437   0.94416   0.60866   0.00000  Uiso   1.00
C161   C     0.11025   0.95430   0.61356   0.00000  Uiso   1.00
H162   H     0.85314   0.18590   0.70549   0.00000  Uiso   1.00
H163   H     0.70211   0.15333   0.80515   0.00000  Uiso   1.00
H164   H     0.76733   0.28672   0.63190   0.00000  Uiso   1.00
H165   H     0.10274   0.13687   0.68720   0.00000  Uiso   1.00
H166   H     0.51449   0.08700   0.90331   0.00000  Uiso   1.00
H167   H     0.65205   0.36825   0.53799   0.00000  Uiso   1.00
H168   H     0.35933   0.05228   0.65461   0.00000  Uiso   1.00
H169   H     0.69791   0.95293   0.61053   0.00000  Uiso   1.00
H170   H     0.53836   0.90757   0.70498   0.00000  Uiso   1.00
H171   H     0.60358   0.04096   0.53173   0.00000  Uiso   1.00
H172   H     0.93899   0.89112   0.58704   0.00000  Uiso   1.00
H173   H     0.38158   0.88753   0.82201   0.00000  Uiso   1.00
H174   H     0.51914   0.16879   0.45669   0.00000  Uiso   1.00
H175   H     0.22642   0.85281   0.57332   0.00000  Uiso   1.00
O176   O     0.34585   0.96164   0.92650   0.00000  Uiso   1.00
O177   O     0.52635   0.33063   0.44721   0.00000  Uiso   1.00
O178   O     0.45427   0.91609   0.60022   0.00000  Uiso   1.00
N179   N     0.50513   0.04627   0.87122   0.00000  Uiso   1.00
N180   N     0.63371   0.30923   0.52967   0.00000  Uiso   1.00
N181   N     0.29497   0.01383   0.63869   0.00000  Uiso   1.00
N182   N     0.43361   0.93894   0.82747   0.00000  Uiso   1.00
N183   N     0.56220   0.20189   0.48592   0.00000  Uiso   1.00
N184   N     0.22345   0.90650   0.59494   0.00000  Uiso   1.00
