data_job_01000
_audit_creation_date              2018-12-19
_audit_creation_method            'Materials Studio'
_symmetry_space_group_name_H-M    'P1'
_symmetry_Int_Tables_number       1
_symmetry_cell_setting            triclinic
loop_
_symmetry_equiv_pos_as_xyz
  x,y,z
_cell_length_a                    18.1194
_cell_length_b                    14.3206
_cell_length_c                    16.9435
_cell_angle_alpha                 90.0000
_cell_angle_beta                  147.9700
_cell_angle_gamma                 90.0000
loop_
_atom_site_label
_atom_site_type_symbol
_atom_site_fract_x
_atom_site_fract_y
_atom_site_fract_z
_atom_site_U_iso_or_equiv
_atom_site_adp_type
_atom_site_occupancy
C1     C     0.47684   0.20310   0.74453   0.00000  Uiso   1.00
C2     C     0.38123   0.16478   0.59374   0.00000  Uiso   1.00
C3     C     0.23777   0.17532   0.46085   0.00000  Uiso   1.00
C4     C     0.16909   0.13502   0.33504   0.00000  Uiso   1.00
C5     C     0.00963   0.08294   0.09985   0.00000  Uiso   1.00
C6     C     0.55622   0.11934   0.84908   0.00000  Uiso   1.00
C7     C     0.55989   0.09168   0.93088   0.00000  Uiso   1.00
C8     C     0.63854   0.01314   0.02004   0.00000  Uiso   1.00
C9     C     0.75082   0.89056   0.18134   0.00000  Uiso   1.00
C10    C     0.58433   0.26329   0.79963   0.00000  Uiso   1.00
C11    C     0.61168   0.35667   0.83990   0.00000  Uiso   1.00
C12    C     0.71403   0.39933   0.88747   0.00000  Uiso   1.00
C13    C     0.86997   0.50026   0.97199   0.00000  Uiso   1.00
C14    C     0.61001   0.11281   0.75744   0.00000  Uiso   1.00
C15    C     0.45357   0.11573   0.60075   0.00000  Uiso   1.00
C16    C     0.38510   0.07542   0.47512   0.00000  Uiso   1.00
C17    C     0.24156   0.08590   0.34206   0.00000  Uiso   1.00
C18    C     0.62855   0.07029   0.85609   0.00000  Uiso   1.00
C19    C     0.70723   0.99178   0.94516   0.00000  Uiso   1.00
C20    C     0.71101   0.96401   0.02706   0.00000  Uiso   1.00
C21    C     0.65667   0.21425   0.80664   0.00000  Uiso   1.00
C22    C     0.75901   0.25677   0.85416   0.00000  Uiso   1.00
C23    C     0.78650   0.35020   0.89449   0.00000  Uiso   1.00
H24    H     0.42053   0.24128   0.73908   0.00000  Uiso   1.00
H25    H     0.18182   0.21327   0.45547   0.00000  Uiso   1.00
H26    H     0.50391   0.12965   0.92544   0.00000  Uiso   1.00
H27    H     0.55568   0.39460   0.83446   0.00000  Uiso   1.00
H28    H     0.94906   0.16056   0.14413   0.00000  Uiso   1.00
H29    H     0.62824   0.98427   0.13513   0.00000  Uiso   1.00
H30    H     0.73742   0.54297   0.94330   0.00000  Uiso   1.00
H31    H     0.66633   0.07462   0.76290   0.00000  Uiso   1.00
H32    H     0.44110   0.03747   0.48058   0.00000  Uiso   1.00
H33    H     0.76319   0.95385   0.95056   0.00000  Uiso   1.00
H34    H     0.81496   0.21880   0.85958   0.00000  Uiso   1.00
H35    H     0.15950   0.01787   0.16451   0.00000  Uiso   1.00
H36    H     0.83869   0.84158   0.15553   0.00000  Uiso   1.00
H37    H     0.94786   0.40028   0.96368   0.00000  Uiso   1.00
O38    O     0.90168   0.06775   0.96819   0.00000  Uiso   1.00
O39    O     0.79276   0.83648   0.26837   0.00000  Uiso   1.00
O40    O     0.93598   0.56948   0.01666   0.00000  Uiso   1.00
N41    N     0.02950   0.13209   0.18767   0.00000  Uiso   1.00
N42    N     0.66448   0.96726   0.11418   0.00000  Uiso   1.00
N43    N     0.76657   0.48959   0.93486   0.00000  Uiso   1.00
N44    N     0.14274   0.05531   0.19863   0.00000  Uiso   1.00
N45    N     0.77771   0.89048   0.12515   0.00000  Uiso   1.00
N46    N     0.87981   0.41281   0.94583   0.00000  Uiso   1.00
C47    C     0.52316   0.70310   0.75547   0.00000  Uiso   1.00
C48    C     0.61877   0.66478   0.90626   0.00000  Uiso   1.00
C49    C     0.76223   0.67532   0.03915   0.00000  Uiso   1.00
C50    C     0.83091   0.63502   0.16496   0.00000  Uiso   1.00
C51    C     0.99037   0.58294   0.40015   0.00000  Uiso   1.00
C52    C     0.44378   0.61934   0.65092   0.00000  Uiso   1.00
C53    C     0.44011   0.59168   0.56912   0.00000  Uiso   1.00
C54    C     0.36146   0.51314   0.47996   0.00000  Uiso   1.00
C55    C     0.24918   0.39056   0.31866   0.00000  Uiso   1.00
C56    C     0.41567   0.76329   0.70037   0.00000  Uiso   1.00
C57    C     0.38832   0.85667   0.66010   0.00000  Uiso   1.00
C58    C     0.28597   0.89933   0.61253   0.00000  Uiso   1.00
C59    C     0.13003   0.00026   0.52801   0.00000  Uiso   1.00
C60    C     0.38999   0.61281   0.74256   0.00000  Uiso   1.00
C61    C     0.54643   0.61573   0.89925   0.00000  Uiso   1.00
C62    C     0.61490   0.57542   0.02488   0.00000  Uiso   1.00
C63    C     0.75844   0.58590   0.15794   0.00000  Uiso   1.00
C64    C     0.37145   0.57029   0.64391   0.00000  Uiso   1.00
C65    C     0.29277   0.49178   0.55484   0.00000  Uiso   1.00
C66    C     0.28899   0.46401   0.47294   0.00000  Uiso   1.00
C67    C     0.34333   0.71425   0.69336   0.00000  Uiso   1.00
C68    C     0.24099   0.75677   0.64584   0.00000  Uiso   1.00
C69    C     0.21350   0.85020   0.60551   0.00000  Uiso   1.00
H70    H     0.57947   0.74128   0.76092   0.00000  Uiso   1.00
H71    H     0.81818   0.71327   0.04453   0.00000  Uiso   1.00
H72    H     0.49609   0.62965   0.57456   0.00000  Uiso   1.00
H73    H     0.44432   0.89460   0.66554   0.00000  Uiso   1.00
H74    H     0.05094   0.66056   0.35587   0.00000  Uiso   1.00
H75    H     0.37176   0.48427   0.36487   0.00000  Uiso   1.00
H76    H     0.26258   0.04297   0.55670   0.00000  Uiso   1.00
H77    H     0.33367   0.57462   0.73710   0.00000  Uiso   1.00
H78    H     0.55890   0.53747   0.01942   0.00000  Uiso   1.00
H79    H     0.23681   0.45385   0.54944   0.00000  Uiso   1.00
H80    H     0.18504   0.71880   0.64042   0.00000  Uiso   1.00
H81    H     0.84050   0.51787   0.33549   0.00000  Uiso   1.00
H82    H     0.16131   0.34158   0.34447   0.00000  Uiso   1.00
H83    H     0.05214   0.90028   0.53632   0.00000  Uiso   1.00
O84    O     0.09832   0.56775   0.53181   0.00000  Uiso   1.00
O85    O     0.20724   0.33648   0.23163   0.00000  Uiso   1.00
O86    O     0.06402   0.06948   0.48334   0.00000  Uiso   1.00
N87    N     0.97050   0.63209   0.31233   0.00000  Uiso   1.00
N88    N     0.33552   0.46726   0.38582   0.00000  Uiso   1.00
N89    N     0.23343   0.98959   0.56514   0.00000  Uiso   1.00
N90    N     0.85726   0.55531   0.30137   0.00000  Uiso   1.00
N91    N     0.22229   0.39048   0.37485   0.00000  Uiso   1.00
N92    N     0.12019   0.91281   0.55417   0.00000  Uiso   1.00
C93    C     0.52316   0.79690   0.25547   0.00000  Uiso   1.00
C94    C     0.61877   0.83522   0.40626   0.00000  Uiso   1.00
C95    C     0.76223   0.82468   0.53915   0.00000  Uiso   1.00
C96    C     0.83091   0.86498   0.66496   0.00000  Uiso   1.00
C97    C     0.99037   0.91706   0.90015   0.00000  Uiso   1.00
C98    C     0.44378   0.88066   0.15092   0.00000  Uiso   1.00
C99    C     0.44011   0.90832   0.06912   0.00000  Uiso   1.00
C100   C     0.36146   0.98686   0.97996   0.00000  Uiso   1.00
C101   C     0.24918   0.10944   0.81866   0.00000  Uiso   1.00
C102   C     0.41567   0.73671   0.20037   0.00000  Uiso   1.00
C103   C     0.38832   0.64333   0.16010   0.00000  Uiso   1.00
C104   C     0.28597   0.60067   0.11253   0.00000  Uiso   1.00
C105   C     0.13003   0.49974   0.02801   0.00000  Uiso   1.00
C106   C     0.38999   0.88719   0.24256   0.00000  Uiso   1.00
C107   C     0.54643   0.88427   0.39925   0.00000  Uiso   1.00
C108   C     0.61490   0.92458   0.52488   0.00000  Uiso   1.00
C109   C     0.75844   0.91410   0.65794   0.00000  Uiso   1.00
C110   C     0.37145   0.92971   0.14391   0.00000  Uiso   1.00
C111   C     0.29277   0.00822   0.05484   0.00000  Uiso   1.00
C112   C     0.28899   0.03599   0.97294   0.00000  Uiso   1.00
C113   C     0.34333   0.78575   0.19336   0.00000  Uiso   1.00
C114   C     0.24099   0.74323   0.14584   0.00000  Uiso   1.00
C115   C     0.21350   0.64980   0.10551   0.00000  Uiso   1.00
H116   H     0.57947   0.75872   0.26092   0.00000  Uiso   1.00
H117   H     0.81818   0.78673   0.54453   0.00000  Uiso   1.00
H118   H     0.49609   0.87035   0.07456   0.00000  Uiso   1.00
H119   H     0.44432   0.60540   0.16554   0.00000  Uiso   1.00
H120   H     0.05094   0.83944   0.85587   0.00000  Uiso   1.00
H121   H     0.37176   0.01573   0.86487   0.00000  Uiso   1.00
H122   H     0.26258   0.45703   0.05670   0.00000  Uiso   1.00
H123   H     0.33367   0.92538   0.23710   0.00000  Uiso   1.00
H124   H     0.55890   0.96253   0.51942   0.00000  Uiso   1.00
H125   H     0.23681   0.04615   0.04944   0.00000  Uiso   1.00
H126   H     0.18504   0.78120   0.14042   0.00000  Uiso   1.00
H127   H     0.84050   0.98213   0.83549   0.00000  Uiso   1.00
H128   H     0.16131   0.15842   0.84447   0.00000  Uiso   1.00
H129   H     0.05214   0.59972   0.03632   0.00000  Uiso   1.00
O130   O     0.09832   0.93225   0.03181   0.00000  Uiso   1.00
O131   O     0.20724   0.16352   0.73163   0.00000  Uiso   1.00
O132   O     0.06402   0.43052   0.98334   0.00000  Uiso   1.00
N133   N     0.97050   0.86791   0.81233   0.00000  Uiso   1.00
N134   N     0.33552   0.03274   0.88582   0.00000  Uiso   1.00
N135   N     0.23343   0.51041   0.06514   0.00000  Uiso   1.00
N136   N     0.85726   0.94469   0.80137   0.00000  Uiso   1.00
N137   N     0.22229   0.10952   0.87485   0.00000  Uiso   1.00
N138   N     0.12019   0.58719   0.05417   0.00000  Uiso   1.00
C139   C     0.47684   0.29690   0.24453   0.00000  Uiso   1.00
C140   C     0.38123   0.33522   0.09374   0.00000  Uiso   1.00
C141   C     0.23777   0.32468   0.96085   0.00000  Uiso   1.00
C142   C     0.16909   0.36498   0.83504   0.00000  Uiso   1.00
C143   C     0.00963   0.41706   0.59985   0.00000  Uiso   1.00
C144   C     0.55622   0.38066   0.34908   0.00000  Uiso   1.00
C145   C     0.55989   0.40832   0.43088   0.00000  Uiso   1.00
C146   C     0.63854   0.48686   0.52004   0.00000  Uiso   1.00
C147   C     0.75082   0.60944   0.68134   0.00000  Uiso   1.00
C148   C     0.58433   0.23671   0.29963   0.00000  Uiso   1.00
C149   C     0.61168   0.14333   0.33990   0.00000  Uiso   1.00
C150   C     0.71403   0.10067   0.38747   0.00000  Uiso   1.00
C151   C     0.86997   0.99974   0.47199   0.00000  Uiso   1.00
C152   C     0.61001   0.38719   0.25744   0.00000  Uiso   1.00
C153   C     0.45357   0.38427   0.10075   0.00000  Uiso   1.00
C154   C     0.38510   0.42458   0.97512   0.00000  Uiso   1.00
C155   C     0.24156   0.41410   0.84206   0.00000  Uiso   1.00
C156   C     0.62855   0.42971   0.35609   0.00000  Uiso   1.00
C157   C     0.70723   0.50822   0.44516   0.00000  Uiso   1.00
C158   C     0.71101   0.53599   0.52706   0.00000  Uiso   1.00
C159   C     0.65667   0.28575   0.30664   0.00000  Uiso   1.00
C160   C     0.75901   0.24323   0.35416   0.00000  Uiso   1.00
C161   C     0.78650   0.14980   0.39449   0.00000  Uiso   1.00
H162   H     0.42053   0.25872   0.23908   0.00000  Uiso   1.00
H163   H     0.18182   0.28673   0.95547   0.00000  Uiso   1.00
H164   H     0.50391   0.37035   0.42544   0.00000  Uiso   1.00
H165   H     0.55568   0.10540   0.33446   0.00000  Uiso   1.00
H166   H     0.94906   0.33944   0.64413   0.00000  Uiso   1.00
H167   H     0.62824   0.51573   0.63513   0.00000  Uiso   1.00
H168   H     0.73742   0.95703   0.44330   0.00000  Uiso   1.00
H169   H     0.66633   0.42538   0.26290   0.00000  Uiso   1.00
H170   H     0.44110   0.46253   0.98058   0.00000  Uiso   1.00
H171   H     0.76319   0.54615   0.45056   0.00000  Uiso   1.00
H172   H     0.81496   0.28120   0.35958   0.00000  Uiso   1.00
H173   H     0.15950   0.48213   0.66451   0.00000  Uiso   1.00
H174   H     0.83869   0.65842   0.65553   0.00000  Uiso   1.00
H175   H     0.94786   0.09972   0.46368   0.00000  Uiso   1.00
O176   O     0.90168   0.43225   0.46819   0.00000  Uiso   1.00
O177   O     0.79276   0.66352   0.76837   0.00000  Uiso   1.00
O178   O     0.93598   0.93052   0.51666   0.00000  Uiso   1.00
N179   N     0.02950   0.36791   0.68767   0.00000  Uiso   1.00
N180   N     0.66448   0.53274   0.61418   0.00000  Uiso   1.00
N181   N     0.76657   0.01041   0.43486   0.00000  Uiso   1.00
N182   N     0.14274   0.44469   0.69863   0.00000  Uiso   1.00
N183   N     0.77771   0.60952   0.62515   0.00000  Uiso   1.00
N184   N     0.87981   0.08719   0.44583   0.00000  Uiso   1.00
