data_job_03454
_audit_creation_date              2018-12-19
_audit_creation_method            'Materials Studio'
_symmetry_space_group_name_H-M    'P1'
_symmetry_Int_Tables_number       1
_symmetry_cell_setting            triclinic
loop_
_symmetry_equiv_pos_as_xyz
  x,y,z
_cell_length_a                    7.9820
_cell_length_b                    34.9552
_cell_length_c                    10.0542
_cell_angle_alpha                 90.0000
_cell_angle_beta                  90.0000
_cell_angle_gamma                 90.0000
loop_
_atom_site_label
_atom_site_type_symbol
_atom_site_fract_x
_atom_site_fract_y
_atom_site_fract_z
_atom_site_U_iso_or_equiv
_atom_site_adp_type
_atom_site_occupancy
C1     C     0.45671   0.13751   0.69697   0.00000  Uiso   1.00
C2     C     0.44564   0.13800   0.54556   0.00000  Uiso   1.00
C3     C     0.55998   0.12148   0.45889   0.00000  Uiso   1.00
C4     C     0.52750   0.12507   0.32381   0.00000  Uiso   1.00
C5     C     0.53192   0.12290   0.09580   0.00000  Uiso   1.00
C6     C     0.45229   0.17927   0.74077   0.00000  Uiso   1.00
C7     C     0.57221   0.19743   0.81825   0.00000  Uiso   1.00
C8     C     0.54531   0.23576   0.84751   0.00000  Uiso   1.00
C9     C     0.56000   0.29764   0.92266   0.00000  Uiso   1.00
C10    C     0.29334   0.11979   0.74578   0.00000  Uiso   1.00
C11    C     0.27960   0.08794   0.82751   0.00000  Uiso   1.00
C12    C     0.11888   0.07620   0.86101   0.00000  Uiso   1.00
C13    C     0.88677   0.04572   0.94393   0.00000  Uiso   1.00
C14    C     0.19571   0.17328   0.61118   0.00000  Uiso   1.00
C15    C     0.30388   0.15743   0.49897   0.00000  Uiso   1.00
C16    C     0.27121   0.16105   0.36398   0.00000  Uiso   1.00
C17    C     0.38548   0.14454   0.27713   0.00000  Uiso   1.00
C18    C     0.31053   0.19870   0.69418   0.00000  Uiso   1.00
C19    C     0.28344   0.23701   0.72334   0.00000  Uiso   1.00
C20    C     0.40329   0.25522   0.80084   0.00000  Uiso   1.00
C21    C     0.15157   0.13921   0.69919   0.00000  Uiso   1.00
C22    C     0.99084   0.12752   0.73258   0.00000  Uiso   1.00
C23    C     0.97686   0.09566   0.81433   0.00000  Uiso   1.00
H24    H     0.56708   0.12239   0.73325   0.00000  Uiso   1.00
H25    H     0.66968   0.10644   0.49499   0.00000  Uiso   1.00
H26    H     0.68189   0.18238   0.85431   0.00000  Uiso   1.00
H27    H     0.38934   0.07291   0.86354   0.00000  Uiso   1.00
H28    H     0.72094   0.09735   0.21029   0.00000  Uiso   1.00
H29    H     0.74667   0.25747   0.96796   0.00000  Uiso   1.00
H30    H     0.12976   0.02663   0.98745   0.00000  Uiso   1.00
H31    H     0.08533   0.18841   0.57491   0.00000  Uiso   1.00
H32    H     0.16150   0.17609   0.32795   0.00000  Uiso   1.00
H33    H     0.17372   0.25203   0.68727   0.00000  Uiso   1.00
H34    H     0.88116   0.14256   0.69651   0.00000  Uiso   1.00
H35    H     0.30849   0.15388   0.07471   0.00000  Uiso   1.00
H36    H     0.33422   0.31400   0.83240   0.00000  Uiso   1.00
H37    H     0.71730   0.08316   0.85188   0.00000  Uiso   1.00
O38    O     0.57354   0.11633   0.98290   0.00000  Uiso   1.00
O39    O     0.60728   0.32640   0.97697   0.00000  Uiso   1.00
O40    O     0.79791   0.02354   0.00252   0.00000  Uiso   1.00
N41    N     0.61340   0.11234   0.21227   0.00000  Uiso   1.00
N42    N     0.63747   0.26204   0.92064   0.00000  Uiso   1.00
N43    N     0.06071   0.04623   0.93888   0.00000  Uiso   1.00
N44    N     0.39146   0.14276   0.13932   0.00000  Uiso   1.00
N45    N     0.41553   0.29246   0.84769   0.00000  Uiso   1.00
N46    N     0.83877   0.07665   0.86593   0.00000  Uiso   1.00
C47    C     0.54329   0.86249   0.69697   0.00000  Uiso   1.00
C48    C     0.55436   0.86200   0.54556   0.00000  Uiso   1.00
C49    C     0.44002   0.87852   0.45889   0.00000  Uiso   1.00
C50    C     0.47250   0.87493   0.32381   0.00000  Uiso   1.00
C51    C     0.46808   0.87710   0.09580   0.00000  Uiso   1.00
C52    C     0.54771   0.82073   0.74077   0.00000  Uiso   1.00
C53    C     0.42779   0.80257   0.81825   0.00000  Uiso   1.00
C54    C     0.45469   0.76424   0.84751   0.00000  Uiso   1.00
C55    C     0.44000   0.70236   0.92266   0.00000  Uiso   1.00
C56    C     0.70666   0.88021   0.74578   0.00000  Uiso   1.00
C57    C     0.72040   0.91206   0.82751   0.00000  Uiso   1.00
C58    C     0.88112   0.92380   0.86101   0.00000  Uiso   1.00
C59    C     0.11323   0.95428   0.94393   0.00000  Uiso   1.00
C60    C     0.80429   0.82672   0.61118   0.00000  Uiso   1.00
C61    C     0.69612   0.84257   0.49897   0.00000  Uiso   1.00
C62    C     0.72879   0.83895   0.36398   0.00000  Uiso   1.00
C63    C     0.61452   0.85546   0.27713   0.00000  Uiso   1.00
C64    C     0.68947   0.80130   0.69418   0.00000  Uiso   1.00
C65    C     0.71656   0.76299   0.72334   0.00000  Uiso   1.00
C66    C     0.59671   0.74478   0.80084   0.00000  Uiso   1.00
C67    C     0.84843   0.86079   0.69919   0.00000  Uiso   1.00
C68    C     0.00916   0.87248   0.73258   0.00000  Uiso   1.00
C69    C     0.02314   0.90434   0.81433   0.00000  Uiso   1.00
H70    H     0.43292   0.87761   0.73325   0.00000  Uiso   1.00
H71    H     0.33032   0.89356   0.49499   0.00000  Uiso   1.00
H72    H     0.31811   0.81762   0.85431   0.00000  Uiso   1.00
H73    H     0.61066   0.92709   0.86354   0.00000  Uiso   1.00
H74    H     0.27906   0.90265   0.21029   0.00000  Uiso   1.00
H75    H     0.25333   0.74253   0.96796   0.00000  Uiso   1.00
H76    H     0.87024   0.97337   0.98745   0.00000  Uiso   1.00
H77    H     0.91467   0.81159   0.57491   0.00000  Uiso   1.00
H78    H     0.83850   0.82391   0.32795   0.00000  Uiso   1.00
H79    H     0.82628   0.74797   0.68727   0.00000  Uiso   1.00
H80    H     0.11884   0.85744   0.69651   0.00000  Uiso   1.00
H81    H     0.69151   0.84612   0.07471   0.00000  Uiso   1.00
H82    H     0.66578   0.68600   0.83240   0.00000  Uiso   1.00
H83    H     0.28270   0.91684   0.85188   0.00000  Uiso   1.00
O84    O     0.42646   0.88367   0.98290   0.00000  Uiso   1.00
O85    O     0.39272   0.67360   0.97697   0.00000  Uiso   1.00
O86    O     0.20209   0.97646   0.00252   0.00000  Uiso   1.00
N87    N     0.38660   0.88766   0.21227   0.00000  Uiso   1.00
N88    N     0.36253   0.73796   0.92064   0.00000  Uiso   1.00
N89    N     0.93929   0.95377   0.93888   0.00000  Uiso   1.00
N90    N     0.60854   0.85724   0.13932   0.00000  Uiso   1.00
N91    N     0.58447   0.70754   0.84769   0.00000  Uiso   1.00
N92    N     0.16123   0.92335   0.86593   0.00000  Uiso   1.00
C93    C     0.04329   0.63751   0.30303   0.00000  Uiso   1.00
C94    C     0.05436   0.63800   0.45444   0.00000  Uiso   1.00
C95    C     0.94002   0.62148   0.54111   0.00000  Uiso   1.00
C96    C     0.97250   0.62507   0.67619   0.00000  Uiso   1.00
C97    C     0.96808   0.62290   0.90420   0.00000  Uiso   1.00
C98    C     0.04771   0.67927   0.25923   0.00000  Uiso   1.00
C99    C     0.92779   0.69743   0.18175   0.00000  Uiso   1.00
C100   C     0.95469   0.73576   0.15249   0.00000  Uiso   1.00
C101   C     0.94000   0.79764   0.07734   0.00000  Uiso   1.00
C102   C     0.20666   0.61979   0.25422   0.00000  Uiso   1.00
C103   C     0.22040   0.58794   0.17249   0.00000  Uiso   1.00
C104   C     0.38112   0.57620   0.13899   0.00000  Uiso   1.00
C105   C     0.61323   0.54572   0.05607   0.00000  Uiso   1.00
C106   C     0.30429   0.67328   0.38882   0.00000  Uiso   1.00
C107   C     0.19612   0.65743   0.50103   0.00000  Uiso   1.00
C108   C     0.22879   0.66105   0.63602   0.00000  Uiso   1.00
C109   C     0.11452   0.64454   0.72287   0.00000  Uiso   1.00
C110   C     0.18947   0.69870   0.30582   0.00000  Uiso   1.00
C111   C     0.21656   0.73701   0.27666   0.00000  Uiso   1.00
C112   C     0.09671   0.75522   0.19916   0.00000  Uiso   1.00
C113   C     0.34843   0.63921   0.30081   0.00000  Uiso   1.00
C114   C     0.50916   0.62752   0.26742   0.00000  Uiso   1.00
C115   C     0.52314   0.59566   0.18567   0.00000  Uiso   1.00
H116   H     0.93292   0.62239   0.26675   0.00000  Uiso   1.00
H117   H     0.83032   0.60644   0.50501   0.00000  Uiso   1.00
H118   H     0.81811   0.68238   0.14569   0.00000  Uiso   1.00
H119   H     0.11066   0.57291   0.13646   0.00000  Uiso   1.00
H120   H     0.77906   0.59735   0.78971   0.00000  Uiso   1.00
H121   H     0.75333   0.75747   0.03204   0.00000  Uiso   1.00
H122   H     0.37024   0.52663   0.01255   0.00000  Uiso   1.00
H123   H     0.41467   0.68841   0.42509   0.00000  Uiso   1.00
H124   H     0.33850   0.67609   0.67205   0.00000  Uiso   1.00
H125   H     0.32628   0.75203   0.31273   0.00000  Uiso   1.00
H126   H     0.61884   0.64256   0.30349   0.00000  Uiso   1.00
H127   H     0.19151   0.65388   0.92529   0.00000  Uiso   1.00
H128   H     0.16578   0.81400   0.16760   0.00000  Uiso   1.00
H129   H     0.78270   0.58316   0.14812   0.00000  Uiso   1.00
O130   O     0.92646   0.61633   0.01710   0.00000  Uiso   1.00
O131   O     0.89272   0.82640   0.02303   0.00000  Uiso   1.00
O132   O     0.70209   0.52354   0.99748   0.00000  Uiso   1.00
N133   N     0.88660   0.61234   0.78773   0.00000  Uiso   1.00
N134   N     0.86253   0.76204   0.07936   0.00000  Uiso   1.00
N135   N     0.43929   0.54623   0.06112   0.00000  Uiso   1.00
N136   N     0.10854   0.64276   0.86068   0.00000  Uiso   1.00
N137   N     0.08447   0.79246   0.15231   0.00000  Uiso   1.00
N138   N     0.66123   0.57665   0.13407   0.00000  Uiso   1.00
C139   C     0.95671   0.36249   0.30303   0.00000  Uiso   1.00
C140   C     0.94564   0.36200   0.45444   0.00000  Uiso   1.00
C141   C     0.05998   0.37852   0.54111   0.00000  Uiso   1.00
C142   C     0.02750   0.37493   0.67619   0.00000  Uiso   1.00
C143   C     0.03192   0.37710   0.90420   0.00000  Uiso   1.00
C144   C     0.95229   0.32073   0.25923   0.00000  Uiso   1.00
C145   C     0.07221   0.30257   0.18175   0.00000  Uiso   1.00
C146   C     0.04531   0.26424   0.15249   0.00000  Uiso   1.00
C147   C     0.06000   0.20236   0.07734   0.00000  Uiso   1.00
C148   C     0.79334   0.38021   0.25422   0.00000  Uiso   1.00
C149   C     0.77960   0.41206   0.17249   0.00000  Uiso   1.00
C150   C     0.61888   0.42380   0.13899   0.00000  Uiso   1.00
C151   C     0.38677   0.45428   0.05607   0.00000  Uiso   1.00
C152   C     0.69571   0.32672   0.38882   0.00000  Uiso   1.00
C153   C     0.80388   0.34257   0.50103   0.00000  Uiso   1.00
C154   C     0.77121   0.33895   0.63602   0.00000  Uiso   1.00
C155   C     0.88548   0.35546   0.72287   0.00000  Uiso   1.00
C156   C     0.81053   0.30130   0.30582   0.00000  Uiso   1.00
C157   C     0.78344   0.26299   0.27666   0.00000  Uiso   1.00
C158   C     0.90329   0.24478   0.19916   0.00000  Uiso   1.00
C159   C     0.65157   0.36079   0.30081   0.00000  Uiso   1.00
C160   C     0.49084   0.37248   0.26742   0.00000  Uiso   1.00
C161   C     0.47686   0.40434   0.18567   0.00000  Uiso   1.00
H162   H     0.06708   0.37761   0.26675   0.00000  Uiso   1.00
H163   H     0.16968   0.39356   0.50501   0.00000  Uiso   1.00
H164   H     0.18189   0.31762   0.14569   0.00000  Uiso   1.00
H165   H     0.88934   0.42709   0.13646   0.00000  Uiso   1.00
H166   H     0.22094   0.40265   0.78971   0.00000  Uiso   1.00
H167   H     0.24667   0.24253   0.03204   0.00000  Uiso   1.00
H168   H     0.62976   0.47337   0.01255   0.00000  Uiso   1.00
H169   H     0.58533   0.31159   0.42509   0.00000  Uiso   1.00
H170   H     0.66150   0.32391   0.67205   0.00000  Uiso   1.00
H171   H     0.67372   0.24797   0.31273   0.00000  Uiso   1.00
H172   H     0.38116   0.35744   0.30349   0.00000  Uiso   1.00
H173   H     0.80849   0.34612   0.92529   0.00000  Uiso   1.00
H174   H     0.83422   0.18600   0.16760   0.00000  Uiso   1.00
H175   H     0.21730   0.41684   0.14812   0.00000  Uiso   1.00
O176   O     0.07354   0.38367   0.01710   0.00000  Uiso   1.00
O177   O     0.10728   0.17360   0.02303   0.00000  Uiso   1.00
O178   O     0.29791   0.47646   0.99748   0.00000  Uiso   1.00
N179   N     0.11340   0.38766   0.78773   0.00000  Uiso   1.00
N180   N     0.13747   0.23796   0.07936   0.00000  Uiso   1.00
N181   N     0.56071   0.45377   0.06112   0.00000  Uiso   1.00
N182   N     0.89146   0.35724   0.86068   0.00000  Uiso   1.00
N183   N     0.91553   0.20754   0.15231   0.00000  Uiso   1.00
N184   N     0.33877   0.42335   0.13407   0.00000  Uiso   1.00
