data_job_06588
_audit_creation_date              2018-12-19
_audit_creation_method            'Materials Studio'
_symmetry_space_group_name_H-M    'P1'
_symmetry_Int_Tables_number       1
_symmetry_cell_setting            triclinic
loop_
_symmetry_equiv_pos_as_xyz
  x,y,z
_cell_length_a                    19.5866
_cell_length_b                    20.1049
_cell_length_c                    23.2242
_cell_angle_alpha                 112.0468
_cell_angle_beta                  88.1662
_cell_angle_gamma                 75.5473
loop_
_atom_site_label
_atom_site_type_symbol
_atom_site_fract_x
_atom_site_fract_y
_atom_site_fract_z
_atom_site_U_iso_or_equiv
_atom_site_adp_type
_atom_site_occupancy
C1     C     0.71346   0.19420   0.03495   0.00000  Uiso   1.00
C2     C     0.69290   0.22836   0.10600   0.00000  Uiso   1.00
C3     C     0.73069   0.26732   0.14952   0.00000  Uiso   1.00
C4     C     0.70306   0.29414   0.21238   0.00000  Uiso   1.00
C5     C     0.68076   0.34894   0.31987   0.00000  Uiso   1.00
C6     C     0.71800   0.11146   0.01367   0.00000  Uiso   1.00
C7     C     0.77689   0.05215   0.97955   0.00000  Uiso   1.00
C8     C     0.77039   0.98057   0.96468   0.00000  Uiso   1.00
C9     C     0.78704   0.85388   0.92879   0.00000  Uiso   1.00
C10    C     0.64981   0.22794   0.00865   0.00000  Uiso   1.00
C11    C     0.65137   0.26654   0.97029   0.00000  Uiso   1.00
C12    C     0.58745   0.29301   0.95117   0.00000  Uiso   1.00
C13    C     0.49822   0.34717   0.90748   0.00000  Uiso   1.00
C14    C     0.59719   0.17255   0.06920   0.00000  Uiso   1.00
C15    C     0.62975   0.21659   0.12460   0.00000  Uiso   1.00
C16    C     0.60205   0.24337   0.18742   0.00000  Uiso   1.00
C17    C     0.63979   0.28237   0.23102   0.00000  Uiso   1.00
C18    C     0.65485   0.09970   0.03228   0.00000  Uiso   1.00
C19    C     0.64825   0.02819   0.01745   0.00000  Uiso   1.00
C20    C     0.70712   0.96878   0.98332   0.00000  Uiso   1.00
C21    C     0.58665   0.21618   0.02725   0.00000  Uiso   1.00
C22    C     0.52272   0.24259   0.00819   0.00000  Uiso   1.00
C23    C     0.52418   0.28123   0.96981   0.00000  Uiso   1.00
H24    H     0.76263   0.20335   0.02046   0.00000  Uiso   1.00
H25    H     0.77957   0.27641   0.13510   0.00000  Uiso   1.00
H26    H     0.82576   0.06127   0.96515   0.00000  Uiso   1.00
H27    H     0.70025   0.27563   0.95590   0.00000  Uiso   1.00
H28    H     0.77051   0.35219   0.27040   0.00000  Uiso   1.00
H29    H     0.86789   0.89855   0.91205   0.00000  Uiso   1.00
H30    H     0.60324   0.35058   0.89252   0.00000  Uiso   1.00
H31    H     0.54802   0.16339   0.08369   0.00000  Uiso   1.00
H32    H     0.55318   0.23426   0.20180   0.00000  Uiso   1.00
H33    H     0.59937   0.01912   0.03185   0.00000  Uiso   1.00
H34    H     0.47386   0.23348   0.02259   0.00000  Uiso   1.00
H35    H     0.58676   0.31798   0.32454   0.00000  Uiso   1.00
H36    H     0.68415   0.86434   0.96618   0.00000  Uiso   1.00
H37    H     0.41949   0.31637   0.94666   0.00000  Uiso   1.00
O38    O     0.68591   0.38240   0.37403   0.00000  Uiso   1.00
O39    O     0.81368   0.78725   0.90387   0.00000  Uiso   1.00
O40    O     0.46645   0.38030   0.87826   0.00000  Uiso   1.00
N41    N     0.72655   0.33442   0.26694   0.00000  Uiso   1.00
N42    N     0.81760   0.91030   0.93190   0.00000  Uiso   1.00
N43    N     0.57017   0.33289   0.91363   0.00000  Uiso   1.00
N44    N     0.62768   0.31602   0.29606   0.00000  Uiso   1.00
N45    N     0.71873   0.89189   0.96103   0.00000  Uiso   1.00
N46    N     0.47130   0.31448   0.94276   0.00000  Uiso   1.00
C47    C     0.10660   0.83282   0.71998   0.00000  Uiso   1.00
C48    C     0.06640   0.90039   0.70751   0.00000  Uiso   1.00
C49    C     0.06003   0.97463   0.74499   0.00000  Uiso   1.00
C50    C     0.02103   0.02825   0.72551   0.00000  Uiso   1.00
C51    C     0.96336   0.13621   0.71453   0.00000  Uiso   1.00
C52    C     0.05288   0.78989   0.72140   0.00000  Uiso   1.00
C53    C     0.03515   0.77123   0.77056   0.00000  Uiso   1.00
C54    C     0.98477   0.73182   0.76277   0.00000  Uiso   1.00
C55    C     0.90616   0.66819   0.77334   0.00000  Uiso   1.00
C56    C     0.16082   0.78295   0.66165   0.00000  Uiso   1.00
C57    C     0.23385   0.75843   0.66056   0.00000  Uiso   1.00
C58    C     0.27436   0.71316   0.60245   0.00000  Uiso   1.00
C59    C     0.36334   0.63876   0.52024   0.00000  Uiso   1.00
C60    C     0.04868   0.79602   0.61873   0.00000  Uiso   1.00
C61    C     0.03494   0.88040   0.65252   0.00000  Uiso   1.00
C62    C     0.99594   0.93392   0.63297   0.00000  Uiso   1.00
C63    C     0.98951   0.00823   0.67041   0.00000  Uiso   1.00
C64    C     0.02142   0.76991   0.66641   0.00000  Uiso   1.00
C65    C     0.97106   0.73052   0.65854   0.00000  Uiso   1.00
C66    C     0.95325   0.71180   0.70767   0.00000  Uiso   1.00
C67    C     0.12936   0.76296   0.60665   0.00000  Uiso   1.00
C68    C     0.16976   0.71772   0.54853   0.00000  Uiso   1.00
C69    C     0.24284   0.69314   0.54736   0.00000  Uiso   1.00
H70    H     0.13109   0.84837   0.76280   0.00000  Uiso   1.00
H71    H     0.08438   0.99007   0.78755   0.00000  Uiso   1.00
H72    H     0.05951   0.78669   0.81311   0.00000  Uiso   1.00
H73    H     0.25818   0.77390   0.70312   0.00000  Uiso   1.00
H74    H     0.01869   0.13836   0.79076   0.00000  Uiso   1.00
H75    H     0.96627   0.70951   0.84464   0.00000  Uiso   1.00
H76    H     0.38521   0.68253   0.61271   0.00000  Uiso   1.00
H77    H     0.02418   0.78046   0.57591   0.00000  Uiso   1.00
H78    H     0.97160   0.91844   0.59041   0.00000  Uiso   1.00
H79    H     0.94673   0.71506   0.61597   0.00000  Uiso   1.00
H80    H     0.14540   0.70227   0.50599   0.00000  Uiso   1.00
H81    H     0.92715   0.08022   0.63075   0.00000  Uiso   1.00
H82    H     0.87473   0.65136   0.68464   0.00000  Uiso   1.00
H83    H     0.29367   0.62439   0.45270   0.00000  Uiso   1.00
O84    O     0.94024   0.20129   0.72367   0.00000  Uiso   1.00
O85    O     0.87148   0.63863   0.79437   0.00000  Uiso   1.00
O86    O     0.42111   0.60324   0.49008   0.00000  Uiso   1.00
N87    N     0.00437   0.10574   0.75110   0.00000  Uiso   1.00
N88    N     0.95536   0.70480   0.80149   0.00000  Uiso   1.00
N89    N     0.34703   0.67956   0.58465   0.00000  Uiso   1.00
N90    N     0.95512   0.07446   0.66500   0.00000  Uiso   1.00
N91    N     0.90610   0.67351   0.71539   0.00000  Uiso   1.00
N92    N     0.29777   0.64827   0.49855   0.00000  Uiso   1.00
C93    C     0.02497   0.79657   0.06420   0.00000  Uiso   1.00
C94    C     0.10428   0.75600   0.04540   0.00000  Uiso   1.00
C95    C     0.15247   0.77263   0.01160   0.00000  Uiso   1.00
C96    C     0.22269   0.72896   0.99914   0.00000  Uiso   1.00
C97    C     0.34260   0.67480   0.96678   0.00000  Uiso   1.00
C98    C     0.98639   0.73670   0.03783   0.00000  Uiso   1.00
C99    C     0.93545   0.73711   0.99768   0.00000  Uiso   1.00
C100   C     0.90643   0.67719   0.97885   0.00000  Uiso   1.00
C101   C     0.84327   0.59309   0.93477   0.00000  Uiso   1.00
C102   C     0.01100   0.82358   0.13537   0.00000  Uiso   1.00
C103   C     0.98073   0.89704   0.17725   0.00000  Uiso   1.00
C104   C     0.97242   0.91026   0.24054   0.00000  Uiso   1.00
C105   C     0.94748   0.96105   0.34793   0.00000  Uiso   1.00
C106   C     0.06400   0.68943   0.10215   0.00000  Uiso   1.00
C107   C     0.12547   0.69781   0.06601   0.00000  Uiso   1.00
C108   C     0.19564   0.65410   0.05360   0.00000  Uiso   1.00
C109   C     0.24393   0.67067   0.01979   0.00000  Uiso   1.00
C110   C     0.00758   0.67851   0.05844   0.00000  Uiso   1.00
C111   C     0.97863   0.61857   0.03967   0.00000  Uiso   1.00
C112   C     0.92766   0.61889   0.99950   0.00000  Uiso   1.00
C113   C     0.03219   0.76539   0.15599   0.00000  Uiso   1.00
C114   C     0.02392   0.77850   0.21924   0.00000  Uiso   1.00
C115   C     0.99365   0.85196   0.26120   0.00000  Uiso   1.00
H116   H     0.00847   0.84187   0.04815   0.00000  Uiso   1.00
H117   H     0.13604   0.81767   0.99565   0.00000  Uiso   1.00
H118   H     0.91905   0.78215   0.98174   0.00000  Uiso   1.00
H119   H     0.96434   0.94205   0.16127   0.00000  Uiso   1.00
H120   H     0.28682   0.76516   0.94653   0.00000  Uiso   1.00
H121   H     0.82927   0.69028   0.91720   0.00000  Uiso   1.00
H122   H     0.92476   0.02746   0.29579   0.00000  Uiso   1.00
H123   H     0.08050   0.64412   0.11821   0.00000  Uiso   1.00
H124   H     0.21203   0.60907   0.06956   0.00000  Uiso   1.00
H125   H     0.99504   0.57355   0.05564   0.00000  Uiso   1.00
H126   H     0.04033   0.73345   0.23517   0.00000  Uiso   1.00
H127   H     0.34850   0.59585   0.00651   0.00000  Uiso   1.00
H128   H     0.89094   0.52097   0.97718   0.00000  Uiso   1.00
H129   H     0.98644   0.85815   0.35577   0.00000  Uiso   1.00
O130   O     0.40288   0.66099   0.94323   0.00000  Uiso   1.00
O131   O     0.80258   0.56277   0.90476   0.00000  Uiso   1.00
O132   O     0.92787   0.00514   0.40147   0.00000  Uiso   1.00
N133   N     0.28329   0.73013   0.96733   0.00000  Uiso   1.00
N134   N     0.85552   0.66012   0.93990   0.00000  Uiso   1.00
N135   N     0.94477   0.97535   0.29385   0.00000  Uiso   1.00
N136   N     0.31648   0.63903   0.99960   0.00000  Uiso   1.00
N137   N     0.88870   0.56902   0.97217   0.00000  Uiso   1.00
N138   N     0.97796   0.88425   0.32613   0.00000  Uiso   1.00
C139   C     0.63442   0.65291   0.62504   0.00000  Uiso   1.00
C140   C     0.64860   0.64920   0.68810   0.00000  Uiso   1.00
C141   C     0.60960   0.69830   0.74596   0.00000  Uiso   1.00
C142   C     0.63108   0.68538   0.79814   0.00000  Uiso   1.00
C143   C     0.64420   0.68871   0.89691   0.00000  Uiso   1.00
C144   C     0.62484   0.57718   0.58404   0.00000  Uiso   1.00
C145   C     0.56585   0.56575   0.55440   0.00000  Uiso   1.00
C146   C     0.56733   0.49220   0.51897   0.00000  Uiso   1.00
C147   C     0.54357   0.38374   0.45613   0.00000  Uiso   1.00
C148   C     0.70349   0.65677   0.59597   0.00000  Uiso   1.00
C149   C     0.71064   0.71223   0.57635   0.00000  Uiso   1.00
C150   C     0.77834   0.70568   0.55096   0.00000  Uiso   1.00
C151   C     0.87671   0.72078   0.50665   0.00000  Uiso   1.00
C152   C     0.74193   0.54264   0.61482   0.00000  Uiso   1.00
C153   C     0.70700   0.58930   0.68255   0.00000  Uiso   1.00
C154   C     0.72854   0.57630   0.73466   0.00000  Uiso   1.00
C155   C     0.68958   0.62538   0.79259   0.00000  Uiso   1.00
C156   C     0.68323   0.51729   0.57848   0.00000  Uiso   1.00
C157   C     0.68479   0.44375   0.54309   0.00000  Uiso   1.00
C158   C     0.62583   0.43220   0.51341   0.00000  Uiso   1.00
C159   C     0.76189   0.59687   0.59042   0.00000  Uiso   1.00
C160   C     0.82959   0.59023   0.56505   0.00000  Uiso   1.00
C161   C     0.83684   0.64568   0.54540   0.00000  Uiso   1.00
H162   H     0.58896   0.69953   0.62935   0.00000  Uiso   1.00
H163   H     0.56441   0.74464   0.75024   0.00000  Uiso   1.00
H164   H     0.52068   0.61210   0.55869   0.00000  Uiso   1.00
H165   H     0.66545   0.75857   0.58065   0.00000  Uiso   1.00
H166   H     0.56293   0.76822   0.88181   0.00000  Uiso   1.00
H167   H     0.47072   0.48877   0.47791   0.00000  Uiso   1.00
H168   H     0.77600   0.79761   0.52421   0.00000  Uiso   1.00
H169   H     0.78739   0.49601   0.61050   0.00000  Uiso   1.00
H170   H     0.77373   0.52995   0.73035   0.00000  Uiso   1.00
H171   H     0.72999   0.39742   0.53880   0.00000  Uiso   1.00
H172   H     0.87476   0.54388   0.56076   0.00000  Uiso   1.00
H173   H     0.73282   0.59397   0.86566   0.00000  Uiso   1.00
H174   H     0.64061   0.31452   0.46177   0.00000  Uiso   1.00
H175   H     0.94588   0.62336   0.50807   0.00000  Uiso   1.00
O176   O     0.63530   0.70708   0.95291   0.00000  Uiso   1.00
O177   O     0.51432   0.34046   0.42301   0.00000  Uiso   1.00
O178   O     0.91484   0.74565   0.48376   0.00000  Uiso   1.00
N179   N     0.60480   0.72256   0.86156   0.00000  Uiso   1.00
N180   N     0.51858   0.46129   0.48395   0.00000  Uiso   1.00
N181   N     0.80398   0.75002   0.52722   0.00000  Uiso   1.00
N182   N     0.69621   0.62880   0.85287   0.00000  Uiso   1.00
N183   N     0.60999   0.36753   0.47527   0.00000  Uiso   1.00
N184   N     0.89540   0.65626   0.51853   0.00000  Uiso   1.00
C185   C     0.39207   0.94049   0.22688   0.00000  Uiso   1.00
C186   C     0.46216   0.88608   0.18804   0.00000  Uiso   1.00
C187   C     0.52848   0.87943   0.20828   0.00000  Uiso   1.00
C188   C     0.58610   0.82628   0.16566   0.00000  Uiso   1.00
C189   C     0.69622   0.74859   0.11458   0.00000  Uiso   1.00
C190   C     0.34249   0.89278   0.22671   0.00000  Uiso   1.00
C191   C     0.30820   0.89176   0.27948   0.00000  Uiso   1.00
C192   C     0.26508   0.84426   0.26942   0.00000  Uiso   1.00
C193   C     0.18937   0.77701   0.27838   0.00000  Uiso   1.00
C194   C     0.36086   0.98604   0.18937   0.00000  Uiso   1.00
C195   C     0.34198   0.06344   0.21073   0.00000  Uiso   1.00
C196   C     0.31430   0.09446   0.16923   0.00000  Uiso   1.00
C197   C     0.26710   0.17202   0.12021   0.00000  Uiso   1.00
C198   C     0.37646   0.85794   0.11520   0.00000  Uiso   1.00
C199   C     0.45368   0.84124   0.12738   0.00000  Uiso   1.00
C200   C     0.51121   0.78810   0.08471   0.00000  Uiso   1.00
C201   C     0.57761   0.78137   0.10489   0.00000  Uiso   1.00
C202   C     0.33402   0.84794   0.16606   0.00000  Uiso   1.00
C203   C     0.29093   0.80043   0.15591   0.00000  Uiso   1.00
C204   C     0.25658   0.79934   0.20865   0.00000  Uiso   1.00
C205   C     0.35238   0.94120   0.12870   0.00000  Uiso   1.00
C206   C     0.32472   0.97211   0.08716   0.00000  Uiso   1.00
C207   C     0.30580   0.04955   0.10846   0.00000  Uiso   1.00
H208   H     0.39867   0.97539   0.27411   0.00000  Uiso   1.00
H209   H     0.53502   0.91413   0.25523   0.00000  Uiso   1.00
H210   H     0.31476   0.92647   0.32642   0.00000  Uiso   1.00
H211   H     0.34854   0.09812   0.25768   0.00000  Uiso   1.00
H212   H     0.68245   0.82641   0.20755   0.00000  Uiso   1.00
H213   H     0.21801   0.85245   0.35765   0.00000  Uiso   1.00
H214   H     0.28924   0.21442   0.21270   0.00000  Uiso   1.00
H215   H     0.36986   0.82303   0.06797   0.00000  Uiso   1.00
H216   H     0.50464   0.75341   0.03777   0.00000  Uiso   1.00
H217   H     0.28438   0.76575   0.10896   0.00000  Uiso   1.00
H218   H     0.31816   0.93740   0.04022   0.00000  Uiso   1.00
H219   H     0.65779   0.69596   0.03106   0.00000  Uiso   1.00
H220   H     0.19335   0.72200   0.18116   0.00000  Uiso   1.00
H221   H     0.26458   0.08397   0.03621   0.00000  Uiso   1.00
O222   O     0.75930   0.71812   0.10317   0.00000  Uiso   1.00
O223   O     0.14996   0.75229   0.30009   0.00000  Uiso   1.00
O224   O     0.24342   0.22718   0.10992   0.00000  Uiso   1.00
N225   N     0.65815   0.80528   0.17015   0.00000  Uiso   1.00
N226   N     0.22394   0.82961   0.31049   0.00000  Uiso   1.00
N227   N     0.29051   0.16802   0.17498   0.00000  Uiso   1.00
N228   N     0.64488   0.73508   0.07518   0.00000  Uiso   1.00
N229   N     0.21067   0.75942   0.21552   0.00000  Uiso   1.00
N230   N     0.27725   0.09783   0.08001   0.00000  Uiso   1.00
C231   C     0.17358   0.30362   0.58487   0.00000  Uiso   1.00
C232   C     0.12690   0.34493   0.55056   0.00000  Uiso   1.00
C233   C     0.14847   0.38459   0.51927   0.00000  Uiso   1.00
C234   C     0.09777   0.41842   0.49082   0.00000  Uiso   1.00
C235   C     0.03590   0.48339   0.43709   0.00000  Uiso   1.00
C236   C     0.17025   0.22294   0.55566   0.00000  Uiso   1.00
C237   C     0.22828   0.16003   0.52867   0.00000  Uiso   1.00
C238   C     0.21407   0.09118   0.50453   0.00000  Uiso   1.00
C239   C     0.21952   0.96675   0.45876   0.00000  Uiso   1.00
C240   C     0.13560   0.33585   0.65191   0.00000  Uiso   1.00
C241   C     0.16450   0.36786   0.70586   0.00000  Uiso   1.00
C242   C     0.12111   0.39406   0.76276   0.00000  Uiso   1.00
C243   C     0.07275   0.44494   0.86643   0.00000  Uiso   1.00
C244   C     0.04516   0.29319   0.59000   0.00000  Uiso   1.00
C245   C     0.05714   0.33926   0.55334   0.00000  Uiso   1.00
C246   C     0.00639   0.37305   0.52494   0.00000  Uiso   1.00
C247   C     0.02789   0.41275   0.49361   0.00000  Uiso   1.00
C248   C     0.10050   0.21727   0.55844   0.00000  Uiso   1.00
C249   C     0.08620   0.14849   0.53434   0.00000  Uiso   1.00
C250   C     0.14420   0.08550   0.50732   0.00000  Uiso   1.00
C251   C     0.06584   0.33019   0.65470   0.00000  Uiso   1.00
C252   C     0.02241   0.35633   0.71152   0.00000  Uiso   1.00
C253   C     0.05124   0.38838   0.76554   0.00000  Uiso   1.00
H254   H     0.22789   0.30803   0.58270   0.00000  Uiso   1.00
H255   H     0.20246   0.38895   0.51712   0.00000  Uiso   1.00
H256   H     0.28226   0.16443   0.52653   0.00000  Uiso   1.00
H257   H     0.21848   0.37223   0.70368   0.00000  Uiso   1.00
H258   H     0.14352   0.47615   0.44561   0.00000  Uiso   1.00
H259   H     0.31177   0.00273   0.46547   0.00000  Uiso   1.00
H260   H     0.17728   0.44093   0.83904   0.00000  Uiso   1.00
H261   H     0.99086   0.28878   0.59217   0.00000  Uiso   1.00
H262   H     0.95242   0.36866   0.52710   0.00000  Uiso   1.00
H263   H     0.03222   0.14413   0.53651   0.00000  Uiso   1.00
H264   H     0.96844   0.35194   0.71366   0.00000  Uiso   1.00
H265   H     0.94057   0.45967   0.45371   0.00000  Uiso   1.00
H266   H     0.10883   0.98626   0.47357   0.00000  Uiso   1.00
H267   H     0.97434   0.42445   0.84714   0.00000  Uiso   1.00
O268   O     0.02104   0.52078   0.40667   0.00000  Uiso   1.00
O269   O     0.24179   0.89968   0.43273   0.00000  Uiso   1.00
O270   O     0.06534   0.47458   0.92284   0.00000  Uiso   1.00
N271   N     0.10103   0.46132   0.45646   0.00000  Uiso   1.00
N272   N     0.25833   0.01871   0.47501   0.00000  Uiso   1.00
N273   N     0.13260   0.42836   0.82427   0.00000  Uiso   1.00
N274   N     0.99182   0.45246   0.46082   0.00000  Uiso   1.00
N275   N     0.14913   0.00984   0.47937   0.00000  Uiso   1.00
N276   N     0.02340   0.41950   0.82863   0.00000  Uiso   1.00
C277   C     0.21140   0.65846   0.80120   0.00000  Uiso   1.00
C278   C     0.23405   0.61712   0.73055   0.00000  Uiso   1.00
C279   C     0.18874   0.60982   0.68523   0.00000  Uiso   1.00
C280   C     0.21987   0.56988   0.62311   0.00000  Uiso   1.00
C281   C     0.24382   0.51051   0.51586   0.00000  Uiso   1.00
C282   C     0.25243   0.71673   0.82306   0.00000  Uiso   1.00
C283   C     0.22257   0.79318   0.85553   0.00000  Uiso   1.00
C284   C     0.26917   0.83709   0.87129   0.00000  Uiso   1.00
C285   C     0.32165   0.93236   0.90771   0.00000  Uiso   1.00
C286   C     0.24084   0.60182   0.82961   0.00000  Uiso   1.00
C287   C     0.20124   0.58167   0.86761   0.00000  Uiso   1.00
C288   C     0.23809   0.52885   0.88890   0.00000  Uiso   1.00
C289   C     0.27258   0.44571   0.93550   0.00000  Uiso   1.00
C290   C     0.34728   0.60050   0.77146   0.00000  Uiso   1.00
C291   C     0.30786   0.58564   0.71440   0.00000  Uiso   1.00
C292   C     0.33907   0.54570   0.65233   0.00000  Uiso   1.00
C293   C     0.29381   0.53834   0.60693   0.00000  Uiso   1.00
C294   C     0.32623   0.68525   0.80691   0.00000  Uiso   1.00
C295   C     0.37289   0.72906   0.82263   0.00000  Uiso   1.00
C296   C     0.34311   0.80555   0.85511   0.00000  Uiso   1.00
C297   C     0.31464   0.57034   0.81346   0.00000  Uiso   1.00
C298   C     0.35157   0.51755   0.83471   0.00000  Uiso   1.00
C299   C     0.31203   0.49732   0.87272   0.00000  Uiso   1.00
H300   H     0.15395   0.68297   0.81377   0.00000  Uiso   1.00
H301   H     0.13163   0.63420   0.69775   0.00000  Uiso   1.00
H302   H     0.16545   0.81752   0.86803   0.00000  Uiso   1.00
H303   H     0.14413   0.60604   0.88010   0.00000  Uiso   1.00
H304   H     0.13943   0.56626   0.56198   0.00000  Uiso   1.00
H305   H     0.21075   0.95281   0.92105   0.00000  Uiso   1.00
H306   H     0.16578   0.50687   0.94651   0.00000  Uiso   1.00
H307   H     0.40474   0.57600   0.75889   0.00000  Uiso   1.00
H308   H     0.39618   0.52135   0.63985   0.00000  Uiso   1.00
H309   H     0.43000   0.70468   0.81013   0.00000  Uiso   1.00
H310   H     0.40868   0.49320   0.82220   0.00000  Uiso   1.00
H311   H     0.35415   0.47467   0.51499   0.00000  Uiso   1.00
H312   H     0.42547   0.86123   0.87406   0.00000  Uiso   1.00
H313   H     0.38051   0.41528   0.89951   0.00000  Uiso   1.00
O314   O     0.23664   0.48647   0.46116   0.00000  Uiso   1.00
O315   O     0.33021   0.99361   0.93225   0.00000  Uiso   1.00
O316   O     0.27121   0.40854   0.96565   0.00000  Uiso   1.00
N317   N     0.19114   0.55219   0.56726   0.00000  Uiso   1.00
N318   N     0.25782   0.91360   0.90296   0.00000  Uiso   1.00
N319   N     0.21578   0.49669   0.92677   0.00000  Uiso   1.00
N320   N     0.30668   0.50291   0.54197   0.00000  Uiso   1.00
N321   N     0.37336   0.86431   0.87767   0.00000  Uiso   1.00
N322   N     0.33132   0.44741   0.90148   0.00000  Uiso   1.00
C323   C     0.72815   0.02211   0.17683   0.00000  Uiso   1.00
C324   C     0.75517   0.97247   0.21211   0.00000  Uiso   1.00
C325   C     0.77504   0.89485   0.18670   0.00000  Uiso   1.00
C326   C     0.79834   0.85979   0.22672   0.00000  Uiso   1.00
C327   C     0.83983   0.77645   0.27189   0.00000  Uiso   1.00
C328   C     0.77758   0.07186   0.18518   0.00000  Uiso   1.00
C329   C     0.81629   0.07781   0.13712   0.00000  Uiso   1.00
C330   C     0.85844   0.12643   0.15447   0.00000  Uiso   1.00
C331   C     0.93469   0.19744   0.15783   0.00000  Uiso   1.00
C332   C     0.65583   0.07392   0.21287   0.00000  Uiso   1.00
C333   C     0.59216   0.08162   0.18810   0.00000  Uiso   1.00
C334   C     0.53181   0.13197   0.22877   0.00000  Uiso   1.00
C335   C     0.41902   0.20618   0.27513   0.00000  Uiso   1.00
C336   C     0.73417   0.09788   0.29310   0.00000  Uiso   1.00
C337   C     0.75844   0.01363   0.27526   0.00000  Uiso   1.00
C338   C     0.78171   0.97867   0.31533   0.00000  Uiso   1.00
C339   C     0.80161   0.90101   0.28999   0.00000  Uiso   1.00
C340   C     0.78085   0.11301   0.24833   0.00000  Uiso   1.00
C341   C     0.82295   0.16163   0.26576   0.00000  Uiso   1.00
C342   C     0.86172   0.16765   0.21774   0.00000  Uiso   1.00
C343   C     0.65909   0.11507   0.27603   0.00000  Uiso   1.00
C344   C     0.59883   0.16543   0.31674   0.00000  Uiso   1.00
C345   C     0.53509   0.17320   0.29204   0.00000  Uiso   1.00
H346   H     0.72560   0.99008   0.12766   0.00000  Uiso   1.00
H347   H     0.77251   0.86302   0.13782   0.00000  Uiso   1.00
H348   H     0.81374   0.04596   0.08825   0.00000  Uiso   1.00
H349   H     0.58965   0.04976   0.13923   0.00000  Uiso   1.00
H350   H     0.82598   0.74031   0.17693   0.00000  Uiso   1.00
H351   H     0.91291   0.12607   0.07241   0.00000  Uiso   1.00
H352   H     0.44037   0.13408   0.17991   0.00000  Uiso   1.00
H353   H     0.73672   0.12992   0.34226   0.00000  Uiso   1.00
H354   H     0.78423   0.01053   0.36420   0.00000  Uiso   1.00
H355   H     0.82547   0.19347   0.31463   0.00000  Uiso   1.00
H356   H     0.60138   0.19727   0.36561   0.00000  Uiso   1.00
H357   H     0.83550   0.86003   0.36067   0.00000  Uiso   1.00
H358   H     0.92242   0.24580   0.25615   0.00000  Uiso   1.00
H359   H     0.44989   0.25380   0.36365   0.00000  Uiso   1.00
O360   O     0.86182   0.71912   0.27935   0.00000  Uiso   1.00
O361   O     0.97585   0.22523   0.14223   0.00000  Uiso   1.00
O362   O     0.35590   0.23573   0.28326   0.00000  Uiso   1.00
N363   N     0.82169   0.78487   0.21717   0.00000  Uiso   1.00
N364   N     0.90297   0.14552   0.11945   0.00000  Uiso   1.00
N365   N     0.46119   0.15302   0.21994   0.00000  Uiso   1.00
N366   N     0.82681   0.84929   0.31603   0.00000  Uiso   1.00
N367   N     0.90809   0.20995   0.21832   0.00000  Uiso   1.00
N368   N     0.46631   0.21745   0.31881   0.00000  Uiso   1.00
C369   C     0.82623   0.93071   0.75538   0.00000  Uiso   1.00
C370   C     0.75288   0.93806   0.78543   0.00000  Uiso   1.00
C371   C     0.73326   0.88305   0.79869   0.00000  Uiso   1.00
C372   C     0.66363   0.90071   0.82625   0.00000  Uiso   1.00
C373   C     0.55708   0.90146   0.87085   0.00000  Uiso   1.00
C374   C     0.85081   0.99475   0.80084   0.00000  Uiso   1.00
C375   C     0.91354   0.98740   0.82703   0.00000  Uiso   1.00
C376   C     0.92635   0.05278   0.86756   0.00000  Uiso   1.00
C377   C     0.97187   0.14155   0.93603   0.00000  Uiso   1.00
C378   C     0.81417   0.94786   0.69727   0.00000  Uiso   1.00
C379   C     0.84609   0.90109   0.63639   0.00000  Uiso   1.00
C380   C     0.82806   0.92701   0.58971   0.00000  Uiso   1.00
C381   C     0.81668   0.94297   0.49738   0.00000  Uiso   1.00
C382   C     0.73746   0.05990   0.78075   0.00000  Uiso   1.00
C383   C     0.70467   0.00823   0.79921   0.00000  Uiso   1.00
C384   C     0.63504   0.02598   0.82676   0.00000  Uiso   1.00
C385   C     0.61532   0.97101   0.84006   0.00000  Uiso   1.00
C386   C     0.80260   0.06491   0.81462   0.00000  Uiso   1.00
C387   C     0.81533   0.13033   0.85510   0.00000  Uiso   1.00
C388   C     0.87805   0.12308   0.88136   0.00000  Uiso   1.00
C389   C     0.76595   0.01803   0.71105   0.00000  Uiso   1.00
C390   C     0.74787   0.04402   0.66446   0.00000  Uiso   1.00
C391   C     0.77976   0.99731   0.60352   0.00000  Uiso   1.00
H392   H     0.86377   0.87608   0.74466   0.00000  Uiso   1.00
H393   H     0.77059   0.82875   0.78803   0.00000  Uiso   1.00
H394   H     0.95084   0.93309   0.81636   0.00000  Uiso   1.00
H395   H     0.88340   0.84680   0.62574   0.00000  Uiso   1.00
H396   H     0.64602   0.80724   0.84221   0.00000  Uiso   1.00
H397   H     0.02611   0.02723   0.90193   0.00000  Uiso   1.00
H398   H     0.88390   0.84527   0.49998   0.00000  Uiso   1.00
H399   H     0.69992   0.11453   0.79148   0.00000  Uiso   1.00
H400   H     0.59775   0.08029   0.83742   0.00000  Uiso   1.00
H401   H     0.77800   0.18462   0.86575   0.00000  Uiso   1.00
H402   H     0.71056   0.09833   0.67514   0.00000  Uiso   1.00
H403   H     0.50574   0.01139   0.88230   0.00000  Uiso   1.00
H404   H     0.88583   0.23139   0.94202   0.00000  Uiso   1.00
H405   H     0.74362   0.04942   0.54007   0.00000  Uiso   1.00
O406   O     0.51163   0.88249   0.89165   0.00000  Uiso   1.00
O407   O     0.01030   0.17112   0.96999   0.00000  Uiso   1.00
O408   O     0.82372   0.93238   0.44265   0.00000  Uiso   1.00
N409   N     0.62703   0.85998   0.84533   0.00000  Uiso   1.00
N410   N     0.98238   0.06566   0.90117   0.00000  Uiso   1.00
N411   N     0.84944   0.89555   0.52539   0.00000  Uiso   1.00
N412   N     0.55154   0.96983   0.86690   0.00000  Uiso   1.00
N413   N     0.90689   0.17551   0.92275   0.00000  Uiso   1.00
N414   N     0.77395   0.00540   0.54696   0.00000  Uiso   1.00
C415   C     0.12426   0.08832   0.30858   0.00000  Uiso   1.00
C416   C     0.12237   0.08784   0.24284   0.00000  Uiso   1.00
C417   C     0.13459   0.02470   0.18745   0.00000  Uiso   1.00
C418   C     0.13042   0.03606   0.13212   0.00000  Uiso   1.00
C419   C     0.12993   0.02437   0.03002   0.00000  Uiso   1.00
C420   C     0.17847   0.12957   0.33706   0.00000  Uiso   1.00
C421   C     0.23786   0.10151   0.36090   0.00000  Uiso   1.00
C422   C     0.28091   0.14800   0.38490   0.00000  Uiso   1.00
C423   C     0.36749   0.20112   0.42912   0.00000  Uiso   1.00
C424   C     0.05197   0.13832   0.34600   0.00000  Uiso   1.00
C425   C     0.00500   0.11763   0.37737   0.00000  Uiso   1.00
C426   C     0.94156   0.17149   0.40891   0.00000  Uiso   1.00
C427   C     0.83173   0.23819   0.46700   0.00000  Uiso   1.00
C428   C     0.09511   0.22077   0.30880   0.00000  Uiso   1.00
C429   C     0.10654   0.15979   0.24296   0.00000  Uiso   1.00
C430   C     0.10235   0.17124   0.18770   0.00000  Uiso   1.00
C431   C     0.11456   0.10813   0.13224   0.00000  Uiso   1.00
C432   C     0.16264   0.20151   0.33718   0.00000  Uiso   1.00
C433   C     0.20562   0.24805   0.36115   0.00000  Uiso   1.00
C434   C     0.26506   0.22008   0.38502   0.00000  Uiso   1.00
C435   C     0.03614   0.21026   0.34612   0.00000  Uiso   1.00
C436   C     0.97276   0.26417   0.37761   0.00000  Uiso   1.00
C437   C     0.92570   0.24356   0.40903   0.00000  Uiso   1.00
H438   H     0.13658   0.03231   0.30849   0.00000  Uiso   1.00
H439   H     0.14685   0.96904   0.18738   0.00000  Uiso   1.00
H440   H     0.25009   0.04584   0.36081   0.00000  Uiso   1.00
H441   H     0.01727   0.06195   0.37727   0.00000  Uiso   1.00
H442   H     0.15127   0.93061   0.05316   0.00000  Uiso   1.00
H443   H     0.36895   0.09256   0.41886   0.00000  Uiso   1.00
H444   H     0.87800   0.12653   0.45358   0.00000  Uiso   1.00
H445   H     0.08279   0.27678   0.30890   0.00000  Uiso   1.00
H446   H     0.09010   0.22692   0.18781   0.00000  Uiso   1.00
H447   H     0.19335   0.30372   0.36124   0.00000  Uiso   1.00
H448   H     0.96053   0.31983   0.37770   0.00000  Uiso   1.00
H449   H     0.10522   0.13992   0.05351   0.00000  Uiso   1.00
H450   H     0.32290   0.30187   0.41921   0.00000  Uiso   1.00
H451   H     0.83195   0.33584   0.45393   0.00000  Uiso   1.00
O452   O     0.13405   0.99805   0.97367   0.00000  Uiso   1.00
O453   O     0.41963   0.21053   0.45347   0.00000  Uiso   1.00
O454   O     0.77552   0.25510   0.49901   0.00000  Uiso   1.00
N455   N     0.13941   0.98671   0.06986   0.00000  Uiso   1.00
N456   N     0.34294   0.13813   0.41176   0.00000  Uiso   1.00
N457   N     0.88395   0.16989   0.44423   0.00000  Uiso   1.00
N458   N     0.11463   0.09934   0.07005   0.00000  Uiso   1.00
N459   N     0.31816   0.25075   0.41195   0.00000  Uiso   1.00
N460   N     0.85917   0.28252   0.44442   0.00000  Uiso   1.00
C461   C     0.24488   0.14482   0.70966   0.00000  Uiso   1.00
C462   C     0.18601   0.18582   0.76567   0.00000  Uiso   1.00
C463   C     0.11364   0.20746   0.76257   0.00000  Uiso   1.00
C464   C     0.06838   0.24440   0.81913   0.00000  Uiso   1.00
C465   C     0.97299   0.30586   0.89735   0.00000  Uiso   1.00
C466   C     0.29561   0.19337   0.71914   0.00000  Uiso   1.00
C467   C     0.31539   0.22134   0.67692   0.00000  Uiso   1.00
C468   C     0.36239   0.26462   0.69432   0.00000  Uiso   1.00
C469   C     0.43718   0.33776   0.70028   0.00000  Uiso   1.00
C470   C     0.28611   0.07386   0.71678   0.00000  Uiso   1.00
C471   C     0.29793   0.00135   0.67257   0.00000  Uiso   1.00
C472   C     0.33695   0.94402   0.68797   0.00000  Uiso   1.00
C473   C     0.39701   0.83160   0.69027   0.00000  Uiso   1.00
C474   C     0.29318   0.17196   0.81562   0.00000  Uiso   1.00
C475   C     0.21225   0.20057   0.82322   0.00000  Uiso   1.00
C476   C     0.16708   0.23748   0.87981   0.00000  Uiso   1.00
C477   C     0.09466   0.25916   0.87679   0.00000  Uiso   1.00
C478   C     0.32184   0.20811   0.77670   0.00000  Uiso   1.00
C479   C     0.36883   0.25136   0.79416   0.00000  Uiso   1.00
C480   C     0.38867   0.27939   0.75198   0.00000  Uiso   1.00
C481   C     0.31235   0.08860   0.77434   0.00000  Uiso   1.00
C482   C     0.35137   0.03138   0.78981   0.00000  Uiso   1.00
C483   C     0.36324   0.95879   0.74563   0.00000  Uiso   1.00
H484   H     0.22446   0.13334   0.66485   0.00000  Uiso   1.00
H485   H     0.09336   0.19604   0.71802   0.00000  Uiso   1.00
H486   H     0.29508   0.20991   0.63238   0.00000  Uiso   1.00
H487   H     0.27762   0.98996   0.62803   0.00000  Uiso   1.00
H488   H     0.95959   0.27208   0.80235   0.00000  Uiso   1.00
H489   H     0.38495   0.30131   0.62177   0.00000  Uiso   1.00
H490   H     0.34813   0.83749   0.61260   0.00000  Uiso   1.00
H491   H     0.31361   0.18343   0.86044   0.00000  Uiso   1.00
H492   H     0.18740   0.24888   0.92434   0.00000  Uiso   1.00
H493   H     0.38912   0.26276   0.83870   0.00000  Uiso   1.00
H494   H     0.37166   0.04280   0.83435   0.00000  Uiso   1.00
H495   H     0.03592   0.31497   0.96981   0.00000  Uiso   1.00
H496   H     0.46128   0.34420   0.78922   0.00000  Uiso   1.00
H497   H     0.42446   0.88038   0.78006   0.00000  Uiso   1.00
O498   O     0.91313   0.33570   0.92459   0.00000  Uiso   1.00
O499   O     0.47119   0.37403   0.68767   0.00000  Uiso   1.00
O500   O     0.42288   0.76552   0.67564   0.00000  Uiso   1.00
N501   N     0.99488   0.27318   0.83299   0.00000  Uiso   1.00
N502   N     0.39255   0.30052   0.66416   0.00000  Uiso   1.00
N503   N     0.35814   0.86689   0.65558   0.00000  Uiso   1.00
N504   N     0.03595   0.29626   0.92310   0.00000  Uiso   1.00
N505   N     0.43362   0.32360   0.75427   0.00000  Uiso   1.00
N506   N     0.39921   0.88997   0.74569   0.00000  Uiso   1.00
C507   C     0.59031   0.59900   0.27667   0.00000  Uiso   1.00
C508   C     0.65647   0.57877   0.30638   0.00000  Uiso   1.00
C509   C     0.66628   0.53369   0.34008   0.00000  Uiso   1.00
C510   C     0.73056   0.52193   0.36346   0.00000  Uiso   1.00
C511   C     0.82529   0.48565   0.41114   0.00000  Uiso   1.00
C512   C     0.56461   0.68424   0.30378   0.00000  Uiso   1.00
C513   C     0.49719   0.72782   0.33528   0.00000  Uiso   1.00
C514   C     0.48414   0.80485   0.35647   0.00000  Uiso   1.00
C515   C     0.43624   0.93230   0.40006   0.00000  Uiso   1.00
C516   C     0.61611   0.57464   0.20727   0.00000  Uiso   1.00
C517   C     0.59199   0.52608   0.15761   0.00000  Uiso   1.00
C518   C     0.62229   0.51084   0.09754   0.00000  Uiso   1.00
C519   C     0.65436   0.46812   0.99128   0.00000  Uiso   1.00
C520   C     0.68701   0.65829   0.25829   0.00000  Uiso   1.00
C521   C     0.70899   0.61098   0.29640   0.00000  Uiso   1.00
C522   C     0.77327   0.59928   0.31974   0.00000  Uiso   1.00
C523   C     0.78318   0.55419   0.35346   0.00000  Uiso   1.00
C524   C     0.61713   0.71644   0.29380   0.00000  Uiso   1.00
C525   C     0.60418   0.79341   0.31494   0.00000  Uiso   1.00
C526   C     0.53676   0.83711   0.34646   0.00000  Uiso   1.00
C527   C     0.66864   0.60683   0.19728   0.00000  Uiso   1.00
C528   C     0.69898   0.59167   0.13727   0.00000  Uiso   1.00
C529   C     0.67491   0.54310   0.08753   0.00000  Uiso   1.00
H530   H     0.54941   0.57394   0.28445   0.00000  Uiso   1.00
H531   H     0.62562   0.50879   0.34780   0.00000  Uiso   1.00
H532   H     0.45655   0.70289   0.34299   0.00000  Uiso   1.00
H533   H     0.55134   0.50118   0.16536   0.00000  Uiso   1.00
H534   H     0.73326   0.45078   0.41365   0.00000  Uiso   1.00
H535   H     0.37677   0.86005   0.40350   0.00000  Uiso   1.00
H536   H     0.57664   0.43470   0.02891   0.00000  Uiso   1.00
H537   H     0.72790   0.68336   0.25051   0.00000  Uiso   1.00
H538   H     0.81391   0.62421   0.31200   0.00000  Uiso   1.00
H539   H     0.64484   0.81831   0.30720   0.00000  Uiso   1.00
H540   H     0.73963   0.61660   0.12956   0.00000  Uiso   1.00
H541   H     0.88608   0.54446   0.38460   0.00000  Uiso   1.00
H542   H     0.52958   0.95374   0.37445   0.00000  Uiso   1.00
H543   H     0.72946   0.52839   0.99986   0.00000  Uiso   1.00
O544   O     0.86302   0.45675   0.44020   0.00000  Uiso   1.00
O545   O     0.39531   0.99370   0.42688   0.00000  Uiso   1.00
O546   O     0.65754   0.43565   0.93543   0.00000  Uiso   1.00
N547   N     0.75743   0.48093   0.39836   0.00000  Uiso   1.00
N548   N     0.42413   0.86358   0.38888   0.00000  Uiso   1.00
N549   N     0.61099   0.46593   0.03868   0.00000  Uiso   1.00
N550   N     0.83966   0.53134   0.38273   0.00000  Uiso   1.00
N551   N     0.50636   0.91399   0.37325   0.00000  Uiso   1.00
N552   N     0.69322   0.51634   0.02304   0.00000  Uiso   1.00
