data_job_06246
_audit_creation_date              2018-12-19
_audit_creation_method            'Materials Studio'
_symmetry_space_group_name_H-M    'P1'
_symmetry_Int_Tables_number       1
_symmetry_cell_setting            triclinic
loop_
_symmetry_equiv_pos_as_xyz
  x,y,z
_cell_length_a                    16.4987
_cell_length_b                    17.0158
_cell_length_c                    17.4370
_cell_angle_alpha                 110.4030
_cell_angle_beta                  71.0021
_cell_angle_gamma                 73.4422
loop_
_atom_site_label
_atom_site_type_symbol
_atom_site_fract_x
_atom_site_fract_y
_atom_site_fract_z
_atom_site_U_iso_or_equiv
_atom_site_adp_type
_atom_site_occupancy
C1     C     0.70251   0.77902   0.24339   0.00000  Uiso   1.00
C2     C     0.67164   0.79095   0.34085   0.00000  Uiso   1.00
C3     C     0.58268   0.85451   0.41783   0.00000  Uiso   1.00
C4     C     0.56850   0.85454   0.50081   0.00000  Uiso   1.00
C5     C     0.50959   0.88243   0.65128   0.00000  Uiso   1.00
C6     C     0.79318   0.79260   0.21709   0.00000  Uiso   1.00
C7     C     0.80641   0.85754   0.19000   0.00000  Uiso   1.00
C8     C     0.89455   0.85893   0.16879   0.00000  Uiso   1.00
C9     C     0.02435   0.88933   0.12706   0.00000  Uiso   1.00
C10    C     0.73388   0.67608   0.17943   0.00000  Uiso   1.00
C11    C     0.69727   0.64305   0.12064   0.00000  Uiso   1.00
C12    C     0.73551   0.54635   0.06770   0.00000  Uiso   1.00
C13    C     0.77324   0.39585   0.96749   0.00000  Uiso   1.00
C14    C     0.83552   0.66602   0.25388   0.00000  Uiso   1.00
C15    C     0.74389   0.72957   0.34655   0.00000  Uiso   1.00
C16    C     0.72984   0.72949   0.42943   0.00000  Uiso   1.00
C17    C     0.64088   0.79304   0.50652   0.00000  Uiso   1.00
C18    C     0.86542   0.73122   0.22279   0.00000  Uiso   1.00
C19    C     0.95357   0.73252   0.20161   0.00000  Uiso   1.00
C20    C     0.96693   0.79744   0.17450   0.00000  Uiso   1.00
C21    C     0.80612   0.61471   0.18512   0.00000  Uiso   1.00
C22    C     0.84443   0.51803   0.13225   0.00000  Uiso   1.00
C23    C     0.80788   0.48486   0.07341   0.00000  Uiso   1.00
H24    H     0.64627   0.82680   0.23896   0.00000  Uiso   1.00
H25    H     0.52680   0.90201   0.41339   0.00000  Uiso   1.00
H26    H     0.75049   0.90502   0.18559   0.00000  Uiso   1.00
H27    H     0.64137   0.69057   0.11625   0.00000  Uiso   1.00
H28    H     0.42620   0.95834   0.60931   0.00000  Uiso   1.00
H29    H     0.89789   0.96467   0.12895   0.00000  Uiso   1.00
H30    H     0.66779   0.51246   0.98273   0.00000  Uiso   1.00
H31    H     0.89177   0.61824   0.25831   0.00000  Uiso   1.00
H32    H     0.78576   0.68199   0.43382   0.00000  Uiso   1.00
H33    H     0.00946   0.68501   0.20602   0.00000  Uiso   1.00
H34    H     0.90033   0.47056   0.13668   0.00000  Uiso   1.00
H35    H     0.63639   0.77977   0.62589   0.00000  Uiso   1.00
H36    H     0.10808   0.78610   0.14552   0.00000  Uiso   1.00
H37    H     0.87797   0.33389   0.99931   0.00000  Uiso   1.00
O38    O     0.45714   0.91478   0.73270   0.00000  Uiso   1.00
O39    O     0.07599   0.92307   0.10248   0.00000  Uiso   1.00
O40    O     0.77408   0.32979   0.91065   0.00000  Uiso   1.00
N41    N     0.49021   0.90755   0.58912   0.00000  Uiso   1.00
N42    N     0.93121   0.91348   0.14003   0.00000  Uiso   1.00
N43    N     0.71609   0.49070   0.00331   0.00000  Uiso   1.00
N44    N     0.60331   0.81146   0.59804   0.00000  Uiso   1.00
N45    N     0.04431   0.81739   0.14895   0.00000  Uiso   1.00
N46    N     0.82919   0.39461   0.01223   0.00000  Uiso   1.00
C47    C     0.94509   0.74876   0.53782   0.00000  Uiso   1.00
C48    C     0.01031   0.65109   0.45366   0.00000  Uiso   1.00
C49    C     0.99707   0.57141   0.44092   0.00000  Uiso   1.00
C50    C     0.06475   0.48873   0.35920   0.00000  Uiso   1.00
C51    C     0.15418   0.33750   0.23866   0.00000  Uiso   1.00
C52    C     0.00910   0.77782   0.57587   0.00000  Uiso   1.00
C53    C     0.99483   0.80470   0.66590   0.00000  Uiso   1.00
C54    C     0.06149   0.82871   0.68706   0.00000  Uiso   1.00
C55    C     0.14899   0.87429   0.75628   0.00000  Uiso   1.00
C56    C     0.91437   0.81383   0.49999   0.00000  Uiso   1.00
C57    C     0.82044   0.87102   0.52623   0.00000  Uiso   1.00
C58    C     0.80734   0.92537   0.48352   0.00000  Uiso   1.00
C59    C     0.74775   0.02686   0.43492   0.00000  Uiso   1.00
C60    C     0.08883   0.74362   0.41533   0.00000  Uiso   1.00
C61    C     0.08839   0.64831   0.38713   0.00000  Uiso   1.00
C62    C     0.15611   0.56572   0.30540   0.00000  Uiso   1.00
C63    C     0.14297   0.48593   0.29254   0.00000  Uiso   1.00
C64    C     0.08717   0.77503   0.50935   0.00000  Uiso   1.00
C65    C     0.15386   0.79901   0.53038   0.00000  Uiso   1.00
C66    C     0.13970   0.82592   0.62041   0.00000  Uiso   1.00
C67    C     0.99244   0.81104   0.43346   0.00000  Uiso   1.00
C68    C     0.97948   0.86532   0.39071   0.00000  Uiso   1.00
C69    C     0.88556   0.92257   0.41687   0.00000  Uiso   1.00
H70    H     0.88430   0.75093   0.58962   0.00000  Uiso   1.00
H71    H     0.93664   0.57360   0.49243   0.00000  Uiso   1.00
H72    H     0.93440   0.80686   0.71737   0.00000  Uiso   1.00
H73    H     0.76004   0.87316   0.57772   0.00000  Uiso   1.00
H74    H     0.02912   0.37575   0.35535   0.00000  Uiso   1.00
H75    H     0.02437   0.86763   0.82966   0.00000  Uiso   1.00
H76    H     0.65670   0.00743   0.53518   0.00000  Uiso   1.00
H77    H     0.14962   0.74145   0.36354   0.00000  Uiso   1.00
H78    H     0.21652   0.56359   0.25393   0.00000  Uiso   1.00
H79    H     0.21427   0.79685   0.47888   0.00000  Uiso   1.00
H80    H     0.03992   0.86315   0.33923   0.00000  Uiso   1.00
H81    H     0.25628   0.36762   0.16178   0.00000  Uiso   1.00
H82    H     0.25152   0.85951   0.63610   0.00000  Uiso   1.00
H83    H     0.88386   0.99931   0.34161   0.00000  Uiso   1.00
O84    O     0.18194   0.25485   0.19056   0.00000  Uiso   1.00
O85    O     0.17569   0.90019   0.81284   0.00000  Uiso   1.00
O86    O     0.69332   0.08361   0.42648   0.00000  Uiso   1.00
N87    N     0.07339   0.39825   0.32482   0.00000  Uiso   1.00
N88    N     0.06895   0.85811   0.76828   0.00000  Uiso   1.00
N89    N     0.72522   0.98884   0.49298   0.00000  Uiso   1.00
N90    N     0.19563   0.39388   0.22066   0.00000  Uiso   1.00
N91    N     0.19119   0.85374   0.66412   0.00000  Uiso   1.00
N92    N     0.84745   0.98447   0.38882   0.00000  Uiso   1.00
C93    C     0.48522   0.45777   0.21516   0.00000  Uiso   1.00
C94    C     0.46818   0.54398   0.20198   0.00000  Uiso   1.00
C95    C     0.44336   0.55664   0.13688   0.00000  Uiso   1.00
C96    C     0.43100   0.64042   0.13590   0.00000  Uiso   1.00
C97    C     0.40276   0.76382   0.10598   0.00000  Uiso   1.00
C98    C     0.58600   0.42208   0.20516   0.00000  Uiso   1.00
C99    C     0.66023   0.33225   0.14272   0.00000  Uiso   1.00
C100   C     0.74704   0.31342   0.14443   0.00000  Uiso   1.00
C101   C     0.90168   0.24756   0.11948   0.00000  Uiso   1.00
C102   C     0.41670   0.49378   0.31649   0.00000  Uiso   1.00
C103   C     0.34860   0.46423   0.34768   0.00000  Uiso   1.00
C104   C     0.29288   0.50575   0.44312   0.00000  Uiso   1.00
C105   C     0.18466   0.55121   0.59104   0.00000  Uiso   1.00
C106   C     0.50740   0.58404   0.32921   0.00000  Uiso   1.00
C107   C     0.48023   0.61256   0.26393   0.00000  Uiso   1.00
C108   C     0.46790   0.69634   0.26305   0.00000  Uiso   1.00
C109   C     0.44307   0.70913   0.19796   0.00000  Uiso   1.00
C110   C     0.59805   0.49066   0.26710   0.00000  Uiso   1.00
C111   C     0.68477   0.47195   0.26890   0.00000  Uiso   1.00
C112   C     0.75911   0.38213   0.20648   0.00000  Uiso   1.00
C113   C     0.42874   0.56237   0.37844   0.00000  Uiso   1.00
C114   C     0.37313   0.60394   0.47385   0.00000  Uiso   1.00
C115   C     0.30495   0.57445   0.50518   0.00000  Uiso   1.00
H116   H     0.47585   0.40437   0.16693   0.00000  Uiso   1.00
H117   H     0.43406   0.50354   0.08894   0.00000  Uiso   1.00
H118   H     0.65088   0.27919   0.09480   0.00000  Uiso   1.00
H119   H     0.33929   0.41115   0.29972   0.00000  Uiso   1.00
H120   H     0.39307   0.64372   0.02977   0.00000  Uiso   1.00
H121   H     0.85024   0.17066   0.04214   0.00000  Uiso   1.00
H122   H     0.19320   0.44892   0.47426   0.00000  Uiso   1.00
H123   H     0.51678   0.63743   0.37743   0.00000  Uiso   1.00
H124   H     0.47723   0.74940   0.31100   0.00000  Uiso   1.00
H125   H     0.69406   0.52505   0.31685   0.00000  Uiso   1.00
H126   H     0.38247   0.65701   0.52177   0.00000  Uiso   1.00
H127   H     0.42812   0.84327   0.21000   0.00000  Uiso   1.00
H128   H     0.88529   0.37020   0.22237   0.00000  Uiso   1.00
H129   H     0.22825   0.64846   0.65448   0.00000  Uiso   1.00
O130   O     0.38387   0.81293   0.07236   0.00000  Uiso   1.00
O131   O     0.98365   0.19228   0.08860   0.00000  Uiso   1.00
O132   O     0.12164   0.55736   0.65552   0.00000  Uiso   1.00
N133   N     0.40672   0.67533   0.08132   0.00000  Uiso   1.00
N134   N     0.83416   0.23304   0.09287   0.00000  Uiso   1.00
N135   N     0.21990   0.49317   0.49686   0.00000  Uiso   1.00
N136   N     0.42558   0.78270   0.17830   0.00000  Uiso   1.00
N137   N     0.85302   0.34042   0.18985   0.00000  Uiso   1.00
N138   N     0.23876   0.60055   0.59384   0.00000  Uiso   1.00
C139   C     0.29749   0.22098   0.75661   0.00000  Uiso   1.00
C140   C     0.32836   0.20905   0.65915   0.00000  Uiso   1.00
C141   C     0.41732   0.14549   0.58217   0.00000  Uiso   1.00
C142   C     0.43150   0.14546   0.49919   0.00000  Uiso   1.00
C143   C     0.49041   0.11757   0.34872   0.00000  Uiso   1.00
C144   C     0.20682   0.20740   0.78291   0.00000  Uiso   1.00
C145   C     0.19359   0.14247   0.81000   0.00000  Uiso   1.00
C146   C     0.10545   0.14107   0.83121   0.00000  Uiso   1.00
C147   C     0.97565   0.11067   0.87294   0.00000  Uiso   1.00
C148   C     0.26612   0.32392   0.82057   0.00000  Uiso   1.00
C149   C     0.30273   0.35695   0.87936   0.00000  Uiso   1.00
C150   C     0.26449   0.45365   0.93230   0.00000  Uiso   1.00
C151   C     0.22676   0.60415   0.03251   0.00000  Uiso   1.00
C152   C     0.16448   0.33398   0.74612   0.00000  Uiso   1.00
C153   C     0.25611   0.27043   0.65345   0.00000  Uiso   1.00
C154   C     0.27016   0.27051   0.57057   0.00000  Uiso   1.00
C155   C     0.35912   0.20696   0.49348   0.00000  Uiso   1.00
C156   C     0.13458   0.26878   0.77721   0.00000  Uiso   1.00
C157   C     0.04643   0.26748   0.79839   0.00000  Uiso   1.00
C158   C     0.03307   0.20256   0.82550   0.00000  Uiso   1.00
C159   C     0.19388   0.38529   0.81488   0.00000  Uiso   1.00
C160   C     0.15557   0.48197   0.86775   0.00000  Uiso   1.00
C161   C     0.19212   0.51514   0.92659   0.00000  Uiso   1.00
H162   H     0.35373   0.17320   0.76104   0.00000  Uiso   1.00
H163   H     0.47321   0.09799   0.58661   0.00000  Uiso   1.00
H164   H     0.24951   0.09498   0.81441   0.00000  Uiso   1.00
H165   H     0.35863   0.30943   0.88375   0.00000  Uiso   1.00
H166   H     0.57380   0.04166   0.39069   0.00000  Uiso   1.00
H167   H     0.10211   0.03533   0.87105   0.00000  Uiso   1.00
H168   H     0.33222   0.48754   0.01727   0.00000  Uiso   1.00
H169   H     0.10823   0.38176   0.74169   0.00000  Uiso   1.00
H170   H     0.21424   0.31801   0.56618   0.00000  Uiso   1.00
H171   H     0.99054   0.31499   0.79398   0.00000  Uiso   1.00
H172   H     0.09967   0.52944   0.86332   0.00000  Uiso   1.00
H173   H     0.36361   0.22023   0.37411   0.00000  Uiso   1.00
H174   H     0.89192   0.21390   0.85448   0.00000  Uiso   1.00
H175   H     0.12203   0.66611   0.00069   0.00000  Uiso   1.00
O176   O     0.54286   0.08522   0.26730   0.00000  Uiso   1.00
O177   O     0.92401   0.07693   0.89752   0.00000  Uiso   1.00
O178   O     0.22592   0.67021   0.08935   0.00000  Uiso   1.00
N179   N     0.50979   0.09245   0.41088   0.00000  Uiso   1.00
N180   N     0.06879   0.08652   0.85997   0.00000  Uiso   1.00
N181   N     0.28391   0.50930   0.99669   0.00000  Uiso   1.00
N182   N     0.39669   0.18854   0.40196   0.00000  Uiso   1.00
N183   N     0.95569   0.18261   0.85105   0.00000  Uiso   1.00
N184   N     0.17081   0.60539   0.98777   0.00000  Uiso   1.00
C185   C     0.05491   0.25124   0.46218   0.00000  Uiso   1.00
C186   C     0.98969   0.34891   0.54634   0.00000  Uiso   1.00
C187   C     0.00293   0.42859   0.55908   0.00000  Uiso   1.00
C188   C     0.93525   0.51127   0.64080   0.00000  Uiso   1.00
C189   C     0.84582   0.66250   0.76134   0.00000  Uiso   1.00
C190   C     0.99090   0.22218   0.42413   0.00000  Uiso   1.00
C191   C     0.00517   0.19530   0.33410   0.00000  Uiso   1.00
C192   C     0.93851   0.17129   0.31294   0.00000  Uiso   1.00
C193   C     0.85101   0.12571   0.24372   0.00000  Uiso   1.00
C194   C     0.08564   0.18617   0.50001   0.00000  Uiso   1.00
C195   C     0.17956   0.12898   0.47377   0.00000  Uiso   1.00
C196   C     0.19266   0.07463   0.51648   0.00000  Uiso   1.00
C197   C     0.25225   0.97314   0.56508   0.00000  Uiso   1.00
C198   C     0.91117   0.25638   0.58467   0.00000  Uiso   1.00
C199   C     0.91161   0.35169   0.61287   0.00000  Uiso   1.00
C200   C     0.84389   0.43428   0.69460   0.00000  Uiso   1.00
C201   C     0.85703   0.51407   0.70745   0.00000  Uiso   1.00
C202   C     0.91283   0.22497   0.49065   0.00000  Uiso   1.00
C203   C     0.84614   0.20099   0.46962   0.00000  Uiso   1.00
C204   C     0.86030   0.17408   0.37959   0.00000  Uiso   1.00
C205   C     0.00756   0.18896   0.56654   0.00000  Uiso   1.00
C206   C     0.02052   0.13468   0.60929   0.00000  Uiso   1.00
C207   C     0.11444   0.07743   0.58313   0.00000  Uiso   1.00
H208   H     0.11570   0.24907   0.41038   0.00000  Uiso   1.00
H209   H     0.06336   0.42640   0.50757   0.00000  Uiso   1.00
H210   H     0.06560   0.19314   0.28263   0.00000  Uiso   1.00
H211   H     0.23996   0.12684   0.42228   0.00000  Uiso   1.00
H212   H     0.97088   0.62425   0.64465   0.00000  Uiso   1.00
H213   H     0.97563   0.13237   0.17034   0.00000  Uiso   1.00
H214   H     0.34330   0.99257   0.46482   0.00000  Uiso   1.00
H215   H     0.85038   0.25855   0.63646   0.00000  Uiso   1.00
H216   H     0.78348   0.43641   0.74607   0.00000  Uiso   1.00
H217   H     0.78573   0.20315   0.52112   0.00000  Uiso   1.00
H218   H     0.96008   0.13685   0.66077   0.00000  Uiso   1.00
H219   H     0.74372   0.63238   0.83822   0.00000  Uiso   1.00
H220   H     0.74848   0.14049   0.36390   0.00000  Uiso   1.00
H221   H     0.11614   0.00069   0.65839   0.00000  Uiso   1.00
O222   O     0.81806   0.74515   0.80944   0.00000  Uiso   1.00
O223   O     0.82431   0.09981   0.18716   0.00000  Uiso   1.00
O224   O     0.30668   0.91639   0.57352   0.00000  Uiso   1.00
N225   N     0.92661   0.60175   0.67518   0.00000  Uiso   1.00
N226   N     0.93105   0.14189   0.23172   0.00000  Uiso   1.00
N227   N     0.27478   0.01116   0.50702   0.00000  Uiso   1.00
N228   N     0.80438   0.60612   0.77934   0.00000  Uiso   1.00
N229   N     0.80881   0.14626   0.33588   0.00000  Uiso   1.00
N230   N     0.15255   0.01553   0.61118   0.00000  Uiso   1.00
C231   C     0.51478   0.54223   0.78484   0.00000  Uiso   1.00
C232   C     0.53182   0.45603   0.79802   0.00000  Uiso   1.00
C233   C     0.55664   0.44336   0.86312   0.00000  Uiso   1.00
C234   C     0.56900   0.35958   0.86410   0.00000  Uiso   1.00
C235   C     0.59724   0.23618   0.89402   0.00000  Uiso   1.00
C236   C     0.41400   0.57792   0.79484   0.00000  Uiso   1.00
C237   C     0.33977   0.66775   0.85728   0.00000  Uiso   1.00
C238   C     0.25296   0.68658   0.85557   0.00000  Uiso   1.00
C239   C     0.09832   0.75244   0.88052   0.00000  Uiso   1.00
C240   C     0.58330   0.50622   0.68351   0.00000  Uiso   1.00
C241   C     0.65141   0.53577   0.65232   0.00000  Uiso   1.00
C242   C     0.70712   0.49425   0.55688   0.00000  Uiso   1.00
C243   C     0.81534   0.44879   0.40896   0.00000  Uiso   1.00
C244   C     0.49260   0.41596   0.67079   0.00000  Uiso   1.00
C245   C     0.51977   0.38744   0.73607   0.00000  Uiso   1.00
C246   C     0.53210   0.30366   0.73695   0.00000  Uiso   1.00
C247   C     0.55693   0.29087   0.80204   0.00000  Uiso   1.00
C248   C     0.40195   0.50934   0.73290   0.00000  Uiso   1.00
C249   C     0.31524   0.52805   0.73110   0.00000  Uiso   1.00
C250   C     0.24089   0.61787   0.79352   0.00000  Uiso   1.00
C251   C     0.57126   0.43763   0.62156   0.00000  Uiso   1.00
C252   C     0.62687   0.39606   0.52615   0.00000  Uiso   1.00
C253   C     0.69505   0.42555   0.49482   0.00000  Uiso   1.00
H254   H     0.52415   0.59563   0.83307   0.00000  Uiso   1.00
H255   H     0.56594   0.49646   0.91106   0.00000  Uiso   1.00
H256   H     0.34912   0.72081   0.90520   0.00000  Uiso   1.00
H257   H     0.66071   0.58885   0.70028   0.00000  Uiso   1.00
H258   H     0.60693   0.35628   0.97023   0.00000  Uiso   1.00
H259   H     0.14976   0.82934   0.95786   0.00000  Uiso   1.00
H260   H     0.80680   0.55108   0.52574   0.00000  Uiso   1.00
H261   H     0.48322   0.36257   0.62257   0.00000  Uiso   1.00
H262   H     0.52277   0.25060   0.68900   0.00000  Uiso   1.00
H263   H     0.30594   0.47495   0.68315   0.00000  Uiso   1.00
H264   H     0.61753   0.34299   0.47823   0.00000  Uiso   1.00
H265   H     0.57188   0.15673   0.79000   0.00000  Uiso   1.00
H266   H     0.11471   0.62980   0.77763   0.00000  Uiso   1.00
H267   H     0.77175   0.35154   0.34552   0.00000  Uiso   1.00
O268   O     0.61613   0.18707   0.92764   0.00000  Uiso   1.00
O269   O     0.01635   0.80772   0.91140   0.00000  Uiso   1.00
O270   O     0.87837   0.44264   0.34448   0.00000  Uiso   1.00
N271   N     0.59328   0.32467   0.91868   0.00000  Uiso   1.00
N272   N     0.16584   0.76696   0.90713   0.00000  Uiso   1.00
N273   N     0.78010   0.50683   0.50314   0.00000  Uiso   1.00
N274   N     0.57442   0.21730   0.82170   0.00000  Uiso   1.00
N275   N     0.14698   0.65958   0.81015   0.00000  Uiso   1.00
N276   N     0.76124   0.39945   0.40616   0.00000  Uiso   1.00
