data_job_03012
_audit_creation_date              2018-12-19
_audit_creation_method            'Materials Studio'
_symmetry_space_group_name_H-M    'P1'
_symmetry_Int_Tables_number       1
_symmetry_cell_setting            triclinic
loop_
_symmetry_equiv_pos_as_xyz
  x,y,z
_cell_length_a                    9.5204
_cell_length_b                    12.3978
_cell_length_c                    12.8333
_cell_angle_alpha                 104.6177
_cell_angle_beta                  95.6824
_cell_angle_gamma                 103.1464
loop_
_atom_site_label
_atom_site_type_symbol
_atom_site_fract_x
_atom_site_fract_y
_atom_site_fract_z
_atom_site_U_iso_or_equiv
_atom_site_adp_type
_atom_site_occupancy
C1     C     0.74376   0.35195   0.80339   0.00000  Uiso   1.00
C2     C     0.83165   0.34733   0.71000   0.00000  Uiso   1.00
C3     C     0.97927   0.35129   0.71786   0.00000  Uiso   1.00
C4     C     0.03943   0.34591   0.62304   0.00000  Uiso   1.00
C5     C     0.18874   0.34005   0.49308   0.00000  Uiso   1.00
C6     C     0.61622   0.24364   0.76603   0.00000  Uiso   1.00
C7     C     0.58270   0.16043   0.82101   0.00000  Uiso   1.00
C8     C     0.46150   0.06778   0.77336   0.00000  Uiso   1.00
C9     C     0.27628   0.90099   0.73044   0.00000  Uiso   1.00
C10    C     0.67674   0.45349   0.80916   0.00000  Uiso   1.00
C11    C     0.69408   0.54671   0.90041   0.00000  Uiso   1.00
C12    C     0.62380   0.63073   0.88908   0.00000  Uiso   1.00
C13    C     0.53256   0.78976   0.91312   0.00000  Uiso   1.00
C14    C     0.58809   0.33537   0.62103   0.00000  Uiso   1.00
C15    C     0.74709   0.33832   0.61095   0.00000  Uiso   1.00
C16    C     0.80704   0.33295   0.51609   0.00000  Uiso   1.00
C17    C     0.95473   0.33689   0.52381   0.00000  Uiso   1.00
C18    C     0.53166   0.23464   0.66698   0.00000  Uiso   1.00
C19    C     0.41047   0.14209   0.61925   0.00000  Uiso   1.00
C20    C     0.37679   0.05875   0.67413   0.00000  Uiso   1.00
C21    C     0.59219   0.44449   0.71011   0.00000  Uiso   1.00
C22    C     0.52186   0.52837   0.69864   0.00000  Uiso   1.00
C23    C     0.53909   0.62170   0.78985   0.00000  Uiso   1.00
H24    H     0.80958   0.35895   0.88051   0.00000  Uiso   1.00
H25    H     0.04466   0.35825   0.79453   0.00000  Uiso   1.00
H26    H     0.64815   0.16743   0.89767   0.00000  Uiso   1.00
H27    H     0.75952   0.55365   0.97705   0.00000  Uiso   1.00
H28    H     0.26799   0.35345   0.65551   0.00000  Uiso   1.00
H29    H     0.43189   0.95112   0.87301   0.00000  Uiso   1.00
H30    H     0.66673   0.76554   0.04040   0.00000  Uiso   1.00
H31    H     0.52226   0.32836   0.54391   0.00000  Uiso   1.00
H32    H     0.74158   0.32598   0.43945   0.00000  Uiso   1.00
H33    H     0.34506   0.13515   0.54260   0.00000  Uiso   1.00
H34    H     0.45643   0.52137   0.62198   0.00000  Uiso   1.00
H35    H     0.02200   0.32725   0.36732   0.00000  Uiso   1.00
H36    H     0.18589   0.92492   0.58482   0.00000  Uiso   1.00
H37    H     0.42073   0.73935   0.75221   0.00000  Uiso   1.00
O38    O     0.29444   0.33929   0.44876   0.00000  Uiso   1.00
O39    O     0.19749   0.81147   0.73413   0.00000  Uiso   1.00
O40    O     0.50561   0.87997   0.95374   0.00000  Uiso   1.00
N41    N     0.18001   0.34763   0.60202   0.00000  Uiso   1.00
N42    N     0.39831   0.97147   0.80536   0.00000  Uiso   1.00
N43    N     0.61784   0.73287   0.96187   0.00000  Uiso   1.00
N44    N     0.04764   0.33354   0.44695   0.00000  Uiso   1.00
N45    N     0.26594   0.95737   0.65029   0.00000  Uiso   1.00
N46    N     0.48547   0.71878   0.80680   0.00000  Uiso   1.00
C47    C     0.25624   0.64805   0.19661   0.00000  Uiso   1.00
C48    C     0.16835   0.65267   0.29000   0.00000  Uiso   1.00
C49    C     0.02073   0.64871   0.28214   0.00000  Uiso   1.00
C50    C     0.96057   0.65409   0.37696   0.00000  Uiso   1.00
C51    C     0.81126   0.65995   0.50692   0.00000  Uiso   1.00
C52    C     0.38378   0.75636   0.23397   0.00000  Uiso   1.00
C53    C     0.41730   0.83957   0.17899   0.00000  Uiso   1.00
C54    C     0.53850   0.93222   0.22664   0.00000  Uiso   1.00
C55    C     0.72372   0.09901   0.26956   0.00000  Uiso   1.00
C56    C     0.32326   0.54651   0.19084   0.00000  Uiso   1.00
C57    C     0.30592   0.45329   0.09959   0.00000  Uiso   1.00
C58    C     0.37620   0.36927   0.11092   0.00000  Uiso   1.00
C59    C     0.46744   0.21024   0.08688   0.00000  Uiso   1.00
C60    C     0.41191   0.66463   0.37897   0.00000  Uiso   1.00
C61    C     0.25291   0.66168   0.38905   0.00000  Uiso   1.00
C62    C     0.19296   0.66705   0.48391   0.00000  Uiso   1.00
C63    C     0.04527   0.66311   0.47619   0.00000  Uiso   1.00
C64    C     0.46834   0.76536   0.33302   0.00000  Uiso   1.00
C65    C     0.58953   0.85791   0.38075   0.00000  Uiso   1.00
C66    C     0.62321   0.94125   0.32587   0.00000  Uiso   1.00
C67    C     0.40781   0.55551   0.28989   0.00000  Uiso   1.00
C68    C     0.47814   0.47163   0.30136   0.00000  Uiso   1.00
C69    C     0.46091   0.37830   0.21015   0.00000  Uiso   1.00
H70    H     0.19042   0.64105   0.11949   0.00000  Uiso   1.00
H71    H     0.95534   0.64175   0.20547   0.00000  Uiso   1.00
H72    H     0.35185   0.83257   0.10233   0.00000  Uiso   1.00
H73    H     0.24048   0.44635   0.02295   0.00000  Uiso   1.00
H74    H     0.73201   0.64655   0.34449   0.00000  Uiso   1.00
H75    H     0.56811   0.04888   0.12699   0.00000  Uiso   1.00
H76    H     0.33327   0.23446   0.95960   0.00000  Uiso   1.00
H77    H     0.47774   0.67164   0.45609   0.00000  Uiso   1.00
H78    H     0.25842   0.67402   0.56055   0.00000  Uiso   1.00
H79    H     0.65494   0.86485   0.45740   0.00000  Uiso   1.00
H80    H     0.54357   0.47863   0.37802   0.00000  Uiso   1.00
H81    H     0.97800   0.67275   0.63268   0.00000  Uiso   1.00
H82    H     0.81411   0.07508   0.41518   0.00000  Uiso   1.00
H83    H     0.57927   0.26065   0.24779   0.00000  Uiso   1.00
O84    O     0.70556   0.66071   0.55124   0.00000  Uiso   1.00
O85    O     0.80251   0.18853   0.26587   0.00000  Uiso   1.00
O86    O     0.49439   0.12003   0.04626   0.00000  Uiso   1.00
N87    N     0.81999   0.65237   0.39798   0.00000  Uiso   1.00
N88    N     0.60169   0.02853   0.19464   0.00000  Uiso   1.00
N89    N     0.38216   0.26713   0.03813   0.00000  Uiso   1.00
N90    N     0.95236   0.66646   0.55305   0.00000  Uiso   1.00
N91    N     0.73406   0.04263   0.34971   0.00000  Uiso   1.00
N92    N     0.51453   0.28122   0.19320   0.00000  Uiso   1.00
