data_job_06513
_audit_creation_date              2018-12-19
_audit_creation_method            'Materials Studio'
_symmetry_space_group_name_H-M    'P1'
_symmetry_Int_Tables_number       1
_symmetry_cell_setting            triclinic
loop_
_symmetry_equiv_pos_as_xyz
  x,y,z
_cell_length_a                    19.6876
_cell_length_b                    22.1004
_cell_length_c                    23.5155
_cell_angle_alpha                 116.5330
_cell_angle_beta                  87.0180
_cell_angle_gamma                 114.3350
loop_
_atom_site_label
_atom_site_type_symbol
_atom_site_fract_x
_atom_site_fract_y
_atom_site_fract_z
_atom_site_U_iso_or_equiv
_atom_site_adp_type
_atom_site_occupancy
C1     C     0.82520   0.04235   0.29164   0.00000  Uiso   1.00
C2     C     0.89322   0.09295   0.27434   0.00000  Uiso   1.00
C3     C     0.92915   0.17082   0.30778   0.00000  Uiso   1.00
C4     C     0.99039   0.20681   0.28421   0.00000  Uiso   1.00
C5     C     0.09229   0.29155   0.26570   0.00000  Uiso   1.00
C6     C     0.76435   0.99467   0.23203   0.00000  Uiso   1.00
C7     C     0.69191   0.98990   0.22990   0.00000  Uiso   1.00
C8     C     0.64467   0.94314   0.17071   0.00000  Uiso   1.00
C9     C     0.54646   0.87526   0.08652   0.00000  Uiso   1.00
C10    C     0.84878   0.98832   0.29912   0.00000  Uiso   1.00
C11    C     0.84732   0.97819   0.35339   0.00000  Uiso   1.00
C12    C     0.87115   0.92606   0.35068   0.00000  Uiso   1.00
C13    C     0.90404   0.84831   0.37065   0.00000  Uiso   1.00
C14    C     0.87009   0.96778   0.19032   0.00000  Uiso   1.00
C15    C     0.91760   0.05245   0.21930   0.00000  Uiso   1.00
C16    C     0.97882   0.08832   0.19568   0.00000  Uiso   1.00
C17    C     0.01483   0.16623   0.22908   0.00000  Uiso   1.00
C18    C     0.78873   0.95417   0.17699   0.00000  Uiso   1.00
C19    C     0.74158   0.90740   0.11779   0.00000  Uiso   1.00
C20    C     0.66910   0.90257   0.11557   0.00000  Uiso   1.00
C21    C     0.87317   0.94782   0.24408   0.00000  Uiso   1.00
C22    C     0.89700   0.89569   0.24128   0.00000  Uiso   1.00
C23    C     0.89558   0.88549   0.29554   0.00000  Uiso   1.00
H24    H     0.80621   0.07388   0.33449   0.00000  Uiso   1.00
H25    H     0.91025   0.20215   0.35037   0.00000  Uiso   1.00
H26    H     0.67306   0.02125   0.27250   0.00000  Uiso   1.00
H27    H     0.82845   0.00954   0.39597   0.00000  Uiso   1.00
H28    H     0.03634   0.32650   0.34369   0.00000  Uiso   1.00
H29    H     0.53619   0.94504   0.17950   0.00000  Uiso   1.00
H30    H     0.86386   0.92035   0.43987   0.00000  Uiso   1.00
H31    H     0.88907   0.93625   0.14746   0.00000  Uiso   1.00
H32    H     0.99767   0.05697   0.15308   0.00000  Uiso   1.00
H33    H     0.76047   0.87607   0.07521   0.00000  Uiso   1.00
H34    H     0.91586   0.86436   0.19868   0.00000  Uiso   1.00
H35    H     0.10729   0.20866   0.18357   0.00000  Uiso   1.00
H36    H     0.60714   0.82720   0.01938   0.00000  Uiso   1.00
H37    H     0.93481   0.80252   0.27974   0.00000  Uiso   1.00
O38    O     0.14175   0.34948   0.27069   0.00000  Uiso   1.00
O39    O     0.48556   0.84901   0.05528   0.00000  Uiso   1.00
O40    O     0.91546   0.81662   0.39688   0.00000  Uiso   1.00
N41    N     0.03815   0.28220   0.30524   0.00000  Uiso   1.00
N42    N     0.57054   0.92557   0.15173   0.00000  Uiso   1.00
N43    N     0.87686   0.90247   0.39515   0.00000  Uiso   1.00
N44    N     0.07633   0.21879   0.21908   0.00000  Uiso   1.00
N45    N     0.60872   0.86216   0.06557   0.00000  Uiso   1.00
N46    N     0.91504   0.83906   0.30899   0.00000  Uiso   1.00
C47    C     0.24469   0.85474   0.95357   0.00000  Uiso   1.00
C48    C     0.24508   0.93175   0.99146   0.00000  Uiso   1.00
C49    C     0.28395   0.98535   0.05314   0.00000  Uiso   1.00
C50    C     0.27704   0.05226   0.07946   0.00000  Uiso   1.00
C51    C     0.28434   0.16987   0.14352   0.00000  Uiso   1.00
C52    C     0.16196   0.79765   0.93562   0.00000  Uiso   1.00
C53    C     0.13094   0.73849   0.95034   0.00000  Uiso   1.00
C54    C     0.05406   0.69251   0.92964   0.00000  Uiso   1.00
C55    C     0.93232   0.60190   0.90696   0.00000  Uiso   1.00
C56    C     0.27126   0.85095   0.89049   0.00000  Uiso   1.00
C57    C     0.33214   0.83659   0.86724   0.00000  Uiso   1.00
C58    C     0.34727   0.83546   0.80854   0.00000  Uiso   1.00
C59    C     0.39524   0.82760   0.71578   0.00000  Uiso   1.00
C60    C     0.16331   0.87825   0.89063   0.00000  Uiso   1.00
C61    C     0.20088   0.94452   0.95728   0.00000  Uiso   1.00
C62    C     0.19391   0.01136   0.98351   0.00000  Uiso   1.00
C63    C     0.23276   0.06506   0.04522   0.00000  Uiso   1.00
C64    C     0.11775   0.81041   0.90144   0.00000  Uiso   1.00
C65    C     0.04090   0.76451   0.88071   0.00000  Uiso   1.00
C66    C     0.00977   0.70530   0.89540   0.00000  Uiso   1.00
C67    C     0.22706   0.86372   0.85630   0.00000  Uiso   1.00
C68    C     0.24210   0.86261   0.79761   0.00000  Uiso   1.00
C69    C     0.30298   0.84825   0.77429   0.00000  Uiso   1.00
H70    H     0.27910   0.84480   0.98018   0.00000  Uiso   1.00
H71    H     0.31815   0.97544   0.07959   0.00000  Uiso   1.00
H72    H     0.16516   0.72862   0.97679   0.00000  Uiso   1.00
H73    H     0.36633   0.82671   0.89371   0.00000  Uiso   1.00
H74    H     0.34192   0.12591   0.17473   0.00000  Uiso   1.00
H75    H     0.01935   0.60546   0.95796   0.00000  Uiso   1.00
H76    H     0.44355   0.81228   0.78277   0.00000  Uiso   1.00
H77    H     0.12889   0.88820   0.86401   0.00000  Uiso   1.00
H78    H     0.15970   0.02123   0.95704   0.00000  Uiso   1.00
H79    H     0.00671   0.77441   0.85425   0.00000  Uiso   1.00
H80    H     0.20788   0.87249   0.77117   0.00000  Uiso   1.00
H81    H     0.21331   0.16307   0.07527   0.00000  Uiso   1.00
H82    H     0.89074   0.64261   0.85850   0.00000  Uiso   1.00
H83    H     0.31494   0.84944   0.68331   0.00000  Uiso   1.00
O84    O     0.30057   0.23121   0.18830   0.00000  Uiso   1.00
O85    O     0.87738   0.54839   0.90391   0.00000  Uiso   1.00
O86    O     0.43391   0.81974   0.67406   0.00000  Uiso   1.00
N87    N     0.30743   0.11641   0.13855   0.00000  Uiso   1.00
N88    N     0.00585   0.62982   0.93590   0.00000  Uiso   1.00
N89    N     0.40243   0.82316   0.77210   0.00000  Uiso   1.00
N90    N     0.23823   0.13640   0.08503   0.00000  Uiso   1.00
N91    N     0.93665   0.64982   0.88238   0.00000  Uiso   1.00
N92    N     0.33322   0.84316   0.71858   0.00000  Uiso   1.00
C93    C     0.92571   0.23772   0.86002   0.00000  Uiso   1.00
C94    C     0.95034   0.20439   0.89489   0.00000  Uiso   1.00
C95    C     0.02028   0.23688   0.93208   0.00000  Uiso   1.00
C96    C     0.03180   0.19748   0.95995   0.00000  Uiso   1.00
C97    C     0.07865   0.15627   0.01545   0.00000  Uiso   1.00
C98    C     0.90164   0.17857   0.78935   0.00000  Uiso   1.00
C99    C     0.93064   0.18936   0.73781   0.00000  Uiso   1.00
C100   C     0.90115   0.12821   0.67684   0.00000  Uiso   1.00
C101   C     0.87236   0.04694   0.56847   0.00000  Uiso   1.00
C102   C     0.85391   0.24263   0.88442   0.00000  Uiso   1.00
C103   C     0.84276   0.30728   0.91278   0.00000  Uiso   1.00
C104   C     0.77308   0.30007   0.93184   0.00000  Uiso   1.00
C105   C     0.67018   0.31825   0.97108   0.00000  Uiso   1.00
C106   C     0.82177   0.10996   0.84340   0.00000  Uiso   1.00
C107   C     0.89389   0.13500   0.88586   0.00000  Uiso   1.00
C108   C     0.90530   0.09553   0.91369   0.00000  Uiso   1.00
C109   C     0.97525   0.12796   0.95091   0.00000  Uiso   1.00
C110   C     0.84519   0.10918   0.78032   0.00000  Uiso   1.00
C111   C     0.81565   0.04801   0.71941   0.00000  Uiso   1.00
C112   C     0.84460   0.05870   0.66779   0.00000  Uiso   1.00
C113   C     0.79746   0.17324   0.87539   0.00000  Uiso   1.00
C114   C     0.72778   0.16593   0.89440   0.00000  Uiso   1.00
C115   C     0.71653   0.23055   0.92279   0.00000  Uiso   1.00
H116   H     0.96965   0.29174   0.86705   0.00000  Uiso   1.00
H117   H     0.06396   0.29058   0.93905   0.00000  Uiso   1.00
H118   H     0.97432   0.24307   0.74481   0.00000  Uiso   1.00
H119   H     0.88646   0.36097   0.91976   0.00000  Uiso   1.00
H120   H     0.14363   0.25868   0.01488   0.00000  Uiso   1.00
H121   H     0.95460   0.15850   0.60531   0.00000  Uiso   1.00
H122   H     0.76933   0.40712   0.97423   0.00000  Uiso   1.00
H123   H     0.77782   0.05593   0.83637   0.00000  Uiso   1.00
H124   H     0.86160   0.04183   0.90669   0.00000  Uiso   1.00
H125   H     0.77196   0.99432   0.71245   0.00000  Uiso   1.00
H126   H     0.68411   0.11222   0.88740   0.00000  Uiso   1.00
H127   H     0.97939   0.05679   0.98861   0.00000  Uiso   1.00
H128   H     0.79036   0.95660   0.57904   0.00000  Uiso   1.00
H129   H     0.60510   0.20522   0.94797   0.00000  Uiso   1.00
O130   O     0.12009   0.15271   0.04854   0.00000  Uiso   1.00
O131   O     0.87209   0.02127   0.51120   0.00000  Uiso   1.00
O132   O     0.62902   0.34746   0.99523   0.00000  Uiso   1.00
N133   N     0.09347   0.21311   0.99906   0.00000  Uiso   1.00
N134   N     0.91675   0.11944   0.61613   0.00000  Uiso   1.00
N135   N     0.74354   0.35188   0.96103   0.00000  Uiso   1.00
N136   N     0.00510   0.10447   0.98492   0.00000  Uiso   1.00
N137   N     0.82838   0.01080   0.60200   0.00000  Uiso   1.00
N138   N     0.65516   0.24324   0.94690   0.00000  Uiso   1.00
C139   C     0.28421   0.75035   0.43444   0.00000  Uiso   1.00
C140   C     0.35372   0.74328   0.45061   0.00000  Uiso   1.00
C141   C     0.39354   0.77649   0.51185   0.00000  Uiso   1.00
C142   C     0.45554   0.76318   0.51653   0.00000  Uiso   1.00
C143   C     0.56021   0.75900   0.54994   0.00000  Uiso   1.00
C144   C     0.22240   0.67032   0.39781   0.00000  Uiso   1.00
C145   C     0.15180   0.64218   0.41465   0.00000  Uiso   1.00
C146   C     0.10326   0.56745   0.37488   0.00000  Uiso   1.00
C147   C     0.00403   0.45001   0.32629   0.00000  Uiso   1.00
C148   C     0.30345   0.78080   0.38598   0.00000  Uiso   1.00
C149   C     0.30097   0.84555   0.39286   0.00000  Uiso   1.00
C150   C     0.32064   0.86383   0.34311   0.00000  Uiso   1.00
C151   C     0.34725   0.91792   0.27616   0.00000  Uiso   1.00
C152   C     0.32354   0.66768   0.33385   0.00000  Uiso   1.00
C153   C     0.37508   0.69837   0.39597   0.00000  Uiso   1.00
C154   C     0.43705   0.68502   0.40055   0.00000  Uiso   1.00
C155   C     0.47695   0.71820   0.46179   0.00000  Uiso   1.00
C156   C     0.24376   0.62541   0.34317   0.00000  Uiso   1.00
C157   C     0.19532   0.55071   0.30336   0.00000  Uiso   1.00
C158   C     0.12466   0.52246   0.32014   0.00000  Uiso   1.00
C159   C     0.32481   0.73589   0.33134   0.00000  Uiso   1.00
C160   C     0.34449   0.75407   0.28157   0.00000  Uiso   1.00
C161   C     0.34204   0.81884   0.28838   0.00000  Uiso   1.00
H162   H     0.26757   0.78531   0.47698   0.00000  Uiso   1.00
H163   H     0.37698   0.81123   0.55412   0.00000  Uiso   1.00
H164   H     0.13528   0.67695   0.45693   0.00000  Uiso   1.00
H165   H     0.28443   0.88028   0.43515   0.00000  Uiso   1.00
H166   H     0.50768   0.82014   0.61555   0.00000  Uiso   1.00
H167   H     0.99804   0.53701   0.41062   0.00000  Uiso   1.00
H168   H     0.31255   0.96578   0.36468   0.00000  Uiso   1.00
H169   H     0.34017   0.63271   0.29131   0.00000  Uiso   1.00
H170   H     0.45357   0.65026   0.35826   0.00000  Uiso   1.00
H171   H     0.21187   0.51597   0.26108   0.00000  Uiso   1.00
H172   H     0.36102   0.71931   0.23929   0.00000  Uiso   1.00
H173   H     0.56984   0.68949   0.45659   0.00000  Uiso   1.00
H174   H     0.06019   0.40635   0.25165   0.00000  Uiso   1.00
H175   H     0.37471   0.83512   0.20572   0.00000  Uiso   1.00
O176   O     0.61203   0.76909   0.58347   0.00000  Uiso   1.00
O177   O     0.94339   0.39763   0.31460   0.00000  Uiso   1.00
O178   O     0.35603   0.96017   0.25433   0.00000  Uiso   1.00
N179   N     0.50676   0.78700   0.56895   0.00000  Uiso   1.00
N180   N     0.03028   0.52228   0.37736   0.00000  Uiso   1.00
N181   N     0.32430   0.92313   0.33440   0.00000  Uiso   1.00
N182   N     0.54021   0.71670   0.48341   0.00000  Uiso   1.00
N183   N     0.06372   0.45197   0.29182   0.00000  Uiso   1.00
N184   N     0.35775   0.85283   0.24886   0.00000  Uiso   1.00
C185   C     0.72347   0.48049   0.29992   0.00000  Uiso   1.00
C186   C     0.72116   0.55069   0.35435   0.00000  Uiso   1.00
C187   C     0.77069   0.62427   0.37002   0.00000  Uiso   1.00
C188   C     0.75909   0.68064   0.42148   0.00000  Uiso   1.00
C189   C     0.76446   0.79218   0.50073   0.00000  Uiso   1.00
C190   C     0.64592   0.43486   0.25778   0.00000  Uiso   1.00
C191   C     0.63220   0.41104   0.19224   0.00000  Uiso   1.00
C192   C     0.55727   0.36990   0.16241   0.00000  Uiso   1.00
C193   C     0.44584   0.30157   0.09172   0.00000  Uiso   1.00
C194   C     0.72884   0.43487   0.33116   0.00000  Uiso   1.00
C195   C     0.78482   0.41103   0.32731   0.00000  Uiso   1.00
C196   C     0.77968   0.36988   0.35925   0.00000  Uiso   1.00
C197   C     0.79698   0.30155   0.40250   0.00000  Uiso   1.00
C198   C     0.61478   0.44978   0.36345   0.00000  Uiso   1.00
C199   C     0.66212   0.53401   0.38886   0.00000  Uiso   1.00
C200   C     0.65044   0.59029   0.44031   0.00000  Uiso   1.00
C201   C     0.69995   0.66393   0.45605   0.00000  Uiso   1.00
C202   C     0.58689   0.41818   0.29228   0.00000  Uiso   1.00
C203   C     0.51196   0.37706   0.26254   0.00000  Uiso   1.00
C204   C     0.49813   0.35319   0.19698   0.00000  Uiso   1.00
C205   C     0.66980   0.41819   0.36567   0.00000  Uiso   1.00
C206   C     0.66457   0.37706   0.39761   0.00000  Uiso   1.00
C207   C     0.72054   0.35316   0.39382   0.00000  Uiso   1.00
H208   H     0.76942   0.49347   0.27305   0.00000  Uiso   1.00
H209   H     0.81636   0.63715   0.34329   0.00000  Uiso   1.00
H210   H     0.67790   0.42395   0.16555   0.00000  Uiso   1.00
H211   H     0.83049   0.42395   0.30060   0.00000  Uiso   1.00
H212   H     0.84235   0.78909   0.43638   0.00000  Uiso   1.00
H213   H     0.55040   0.33953   0.06159   0.00000  Uiso   1.00
H214   H     0.87216   0.33951   0.34638   0.00000  Uiso   1.00
H215   H     0.56882   0.43679   0.39032   0.00000  Uiso   1.00
H216   H     0.60476   0.57736   0.46700   0.00000  Uiso   1.00
H217   H     0.46629   0.36416   0.28926   0.00000  Uiso   1.00
H218   H     0.61888   0.36416   0.42431   0.00000  Uiso   1.00
H219   H     0.67060   0.74056   0.53679   0.00000  Uiso   1.00
H220   H     0.37865   0.29099   0.16199   0.00000  Uiso   1.00
H221   H     0.70041   0.29098   0.44678   0.00000  Uiso   1.00
O222   O     0.78372   0.85832   0.53490   0.00000  Uiso   1.00
O223   O     0.40069   0.26850   0.04319   0.00000  Uiso   1.00
O224   O     0.82284   0.26848   0.41682   0.00000  Uiso   1.00
N225   N     0.79701   0.75838   0.44950   0.00000  Uiso   1.00
N226   N     0.52405   0.33807   0.09909   0.00000  Uiso   1.00
N227   N     0.82486   0.33804   0.36533   0.00000  Uiso   1.00
N228   N     0.70459   0.73226   0.50352   0.00000  Uiso   1.00
N229   N     0.43163   0.31196   0.15312   0.00000  Uiso   1.00
N230   N     0.73244   0.31193   0.41935   0.00000  Uiso   1.00
C231   C     0.49322   0.30629   0.79536   0.00000  Uiso   1.00
C232   C     0.54762   0.38291   0.80200   0.00000  Uiso   1.00
C233   C     0.62493   0.41839   0.82321   0.00000  Uiso   1.00
C234   C     0.66482   0.48831   0.82585   0.00000  Uiso   1.00
C235   C     0.75481   0.60221   0.83886   0.00000  Uiso   1.00
C236   C     0.45364   0.25885   0.72552   0.00000  Uiso   1.00
C237   C     0.45192   0.19001   0.68243   0.00000  Uiso   1.00
C238   C     0.41269   0.15549   0.62069   0.00000  Uiso   1.00
C239   C     0.35673   0.07676   0.51496   0.00000  Uiso   1.00
C240   C     0.43273   0.31898   0.83594   0.00000  Uiso   1.00
C241   C     0.41340   0.30069   0.88568   0.00000  Uiso   1.00
C242   C     0.35654   0.31678   0.91691   0.00000  Uiso   1.00
C243   C     0.26811   0.33142   0.98263   0.00000  Uiso   1.00
C244   C     0.42659   0.36738   0.76234   0.00000  Uiso   1.00
C245   C     0.51144   0.41609   0.78406   0.00000  Uiso   1.00
C246   C     0.55122   0.48598   0.78668   0.00000  Uiso   1.00
C247   C     0.62857   0.52155   0.80789   0.00000  Uiso   1.00
C248   C     0.41746   0.29202   0.70758   0.00000  Uiso   1.00
C249   C     0.37821   0.25760   0.64589   0.00000  Uiso   1.00
C250   C     0.37644   0.18873   0.60272   0.00000  Uiso   1.00
C251   C     0.39654   0.35216   0.81801   0.00000  Uiso   1.00
C252   C     0.33970   0.36828   0.84915   0.00000  Uiso   1.00
C253   C     0.32029   0.35002   0.89894   0.00000  Uiso   1.00
H254   H     0.52138   0.28046   0.80932   0.00000  Uiso   1.00
H255   H     0.65291   0.39269   0.83708   0.00000  Uiso   1.00
H256   H     0.47992   0.16434   0.69632   0.00000  Uiso   1.00
H257   H     0.44141   0.27501   0.89955   0.00000  Uiso   1.00
H258   H     0.78278   0.53174   0.85992   0.00000  Uiso   1.00
H259   H     0.41800   0.05025   0.56313   0.00000  Uiso   1.00
H260   H     0.33679   0.28361   0.99168   0.00000  Uiso   1.00
H261   H     0.39842   0.39321   0.74838   0.00000  Uiso   1.00
H262   H     0.52320   0.51164   0.77279   0.00000  Uiso   1.00
H263   H     0.35022   0.28329   0.63203   0.00000  Uiso   1.00
H264   H     0.31171   0.39396   0.83526   0.00000  Uiso   1.00
H265   H     0.67750   0.62828   0.80774   0.00000  Uiso   1.00
H266   H     0.31273   0.14679   0.51095   0.00000  Uiso   1.00
H267   H     0.23152   0.38015   0.93950   0.00000  Uiso   1.00
O268   O     0.81445   0.65587   0.85097   0.00000  Uiso   1.00
O269   O     0.33587   0.02416   0.46160   0.00000  Uiso   1.00
O270   O     0.22933   0.33033   0.02384   0.00000  Uiso   1.00
N271   N     0.74087   0.53822   0.84430   0.00000  Uiso   1.00
N272   N     0.39984   0.08806   0.56682   0.00000  Uiso   1.00
N273   N     0.32391   0.30621   0.96746   0.00000  Uiso   1.00
N274   N     0.68423   0.59016   0.81623   0.00000  Uiso   1.00
N275   N     0.34320   0.14000   0.53874   0.00000  Uiso   1.00
N276   N     0.26726   0.35816   0.93939   0.00000  Uiso   1.00
C277   C     0.17480   0.95765   0.70836   0.00000  Uiso   1.00
C278   C     0.10678   0.90705   0.72566   0.00000  Uiso   1.00
C279   C     0.07085   0.82918   0.69222   0.00000  Uiso   1.00
C280   C     0.00961   0.79319   0.71579   0.00000  Uiso   1.00
C281   C     0.90771   0.70845   0.73430   0.00000  Uiso   1.00
C282   C     0.23565   0.00533   0.76797   0.00000  Uiso   1.00
C283   C     0.30809   0.01010   0.77010   0.00000  Uiso   1.00
C284   C     0.35533   0.05686   0.82929   0.00000  Uiso   1.00
C285   C     0.45354   0.12474   0.91348   0.00000  Uiso   1.00
C286   C     0.15122   0.01168   0.70088   0.00000  Uiso   1.00
C287   C     0.15268   0.02181   0.64661   0.00000  Uiso   1.00
C288   C     0.12885   0.07394   0.64932   0.00000  Uiso   1.00
C289   C     0.09596   0.15169   0.62935   0.00000  Uiso   1.00
C290   C     0.12991   0.03222   0.80968   0.00000  Uiso   1.00
C291   C     0.08240   0.94755   0.78070   0.00000  Uiso   1.00
C292   C     0.02118   0.91168   0.80432   0.00000  Uiso   1.00
C293   C     0.98517   0.83377   0.77092   0.00000  Uiso   1.00
C294   C     0.21127   0.04583   0.82301   0.00000  Uiso   1.00
C295   C     0.25842   0.09260   0.88221   0.00000  Uiso   1.00
C296   C     0.33090   0.09743   0.88443   0.00000  Uiso   1.00
C297   C     0.12683   0.05218   0.75592   0.00000  Uiso   1.00
C298   C     0.10300   0.10431   0.75872   0.00000  Uiso   1.00
C299   C     0.10442   0.11451   0.70446   0.00000  Uiso   1.00
H300   H     0.19379   0.92612   0.66551   0.00000  Uiso   1.00
H301   H     0.08975   0.79785   0.64963   0.00000  Uiso   1.00
H302   H     0.32694   0.97875   0.72750   0.00000  Uiso   1.00
H303   H     0.17155   0.99046   0.60403   0.00000  Uiso   1.00
H304   H     0.96366   0.67350   0.65631   0.00000  Uiso   1.00
H305   H     0.46381   0.05496   0.82050   0.00000  Uiso   1.00
H306   H     0.13614   0.07965   0.56013   0.00000  Uiso   1.00
H307   H     0.11093   0.06375   0.85254   0.00000  Uiso   1.00
H308   H     0.00233   0.94303   0.84692   0.00000  Uiso   1.00
H309   H     0.23953   0.12393   0.92479   0.00000  Uiso   1.00
H310   H     0.08414   0.13564   0.80132   0.00000  Uiso   1.00
H311   H     0.89271   0.79134   0.81643   0.00000  Uiso   1.00
H312   H     0.39286   0.17280   0.98062   0.00000  Uiso   1.00
H313   H     0.06519   0.19748   0.72026   0.00000  Uiso   1.00
O314   O     0.85825   0.65052   0.72931   0.00000  Uiso   1.00
O315   O     0.51444   0.15099   0.94472   0.00000  Uiso   1.00
O316   O     0.08454   0.18338   0.60312   0.00000  Uiso   1.00
N317   N     0.96185   0.71780   0.69476   0.00000  Uiso   1.00
N318   N     0.42946   0.07443   0.84827   0.00000  Uiso   1.00
N319   N     0.12314   0.09753   0.60485   0.00000  Uiso   1.00
N320   N     0.92367   0.78121   0.78092   0.00000  Uiso   1.00
N321   N     0.39128   0.13784   0.93443   0.00000  Uiso   1.00
N322   N     0.08496   0.16094   0.69101   0.00000  Uiso   1.00
C323   C     0.75531   0.14526   0.04643   0.00000  Uiso   1.00
C324   C     0.75492   0.06825   0.00854   0.00000  Uiso   1.00
C325   C     0.71605   0.01465   0.94686   0.00000  Uiso   1.00
C326   C     0.72296   0.94774   0.92054   0.00000  Uiso   1.00
C327   C     0.71566   0.83013   0.85648   0.00000  Uiso   1.00
C328   C     0.83804   0.20235   0.06438   0.00000  Uiso   1.00
C329   C     0.86906   0.26151   0.04966   0.00000  Uiso   1.00
C330   C     0.94594   0.30749   0.07036   0.00000  Uiso   1.00
C331   C     0.06768   0.39810   0.09304   0.00000  Uiso   1.00
C332   C     0.72874   0.14905   0.10951   0.00000  Uiso   1.00
C333   C     0.66786   0.16341   0.13276   0.00000  Uiso   1.00
C334   C     0.65273   0.16454   0.19146   0.00000  Uiso   1.00
C335   C     0.60476   0.17240   0.28422   0.00000  Uiso   1.00
C336   C     0.83669   0.12175   0.10937   0.00000  Uiso   1.00
C337   C     0.79912   0.05548   0.04272   0.00000  Uiso   1.00
C338   C     0.80609   0.98864   0.01649   0.00000  Uiso   1.00
C339   C     0.76724   0.93494   0.95478   0.00000  Uiso   1.00
C340   C     0.88225   0.18959   0.09856   0.00000  Uiso   1.00
C341   C     0.95910   0.23549   0.11929   0.00000  Uiso   1.00
C342   C     0.99023   0.29470   0.10460   0.00000  Uiso   1.00
C343   C     0.77294   0.13628   0.14370   0.00000  Uiso   1.00
C344   C     0.75790   0.13739   0.20239   0.00000  Uiso   1.00
C345   C     0.69702   0.15175   0.22571   0.00000  Uiso   1.00
H346   H     0.72090   0.15520   0.01982   0.00000  Uiso   1.00
H347   H     0.68185   0.02456   0.92041   0.00000  Uiso   1.00
H348   H     0.83484   0.27138   0.02321   0.00000  Uiso   1.00
H349   H     0.63367   0.17329   0.10629   0.00000  Uiso   1.00
H350   H     0.65808   0.87409   0.82527   0.00000  Uiso   1.00
H351   H     0.98065   0.39454   0.04204   0.00000  Uiso   1.00
H352   H     0.55645   0.18772   0.21723   0.00000  Uiso   1.00
H353   H     0.87111   0.11180   0.13599   0.00000  Uiso   1.00
H354   H     0.84030   0.97877   0.04296   0.00000  Uiso   1.00
H355   H     0.99329   0.22559   0.14575   0.00000  Uiso   1.00
H356   H     0.79212   0.12751   0.22883   0.00000  Uiso   1.00
H357   H     0.78669   0.83693   0.92473   0.00000  Uiso   1.00
H358   H     0.10926   0.35739   0.14150   0.00000  Uiso   1.00
H359   H     0.68506   0.15056   0.31669   0.00000  Uiso   1.00
O360   O     0.69943   0.76879   0.81170   0.00000  Uiso   1.00
O361   O     0.12262   0.45161   0.09609   0.00000  Uiso   1.00
O362   O     0.56609   0.18026   0.32594   0.00000  Uiso   1.00
N363   N     0.69257   0.88359   0.86145   0.00000  Uiso   1.00
N364   N     0.99415   0.37018   0.06410   0.00000  Uiso   1.00
N365   N     0.59757   0.17684   0.22790   0.00000  Uiso   1.00
N366   N     0.76177   0.86360   0.91497   0.00000  Uiso   1.00
N367   N     0.06335   0.35018   0.11762   0.00000  Uiso   1.00
N368   N     0.66678   0.15684   0.28142   0.00000  Uiso   1.00
C369   C     0.07429   0.76228   0.13998   0.00000  Uiso   1.00
C370   C     0.04966   0.79561   0.10511   0.00000  Uiso   1.00
C371   C     0.97972   0.76312   0.06792   0.00000  Uiso   1.00
C372   C     0.96820   0.80252   0.04005   0.00000  Uiso   1.00
C373   C     0.92135   0.84373   0.98455   0.00000  Uiso   1.00
C374   C     0.09836   0.82143   0.21065   0.00000  Uiso   1.00
C375   C     0.06936   0.81064   0.26219   0.00000  Uiso   1.00
C376   C     0.09885   0.87179   0.32316   0.00000  Uiso   1.00
C377   C     0.12764   0.95306   0.43153   0.00000  Uiso   1.00
C378   C     0.14609   0.75737   0.11558   0.00000  Uiso   1.00
C379   C     0.15724   0.69272   0.08722   0.00000  Uiso   1.00
C380   C     0.22692   0.69993   0.06816   0.00000  Uiso   1.00
C381   C     0.32982   0.68175   0.02892   0.00000  Uiso   1.00
C382   C     0.17823   0.89004   0.15660   0.00000  Uiso   1.00
C383   C     0.10611   0.86500   0.11414   0.00000  Uiso   1.00
C384   C     0.09470   0.90447   0.08631   0.00000  Uiso   1.00
C385   C     0.02475   0.87204   0.04909   0.00000  Uiso   1.00
C386   C     0.15481   0.89082   0.21968   0.00000  Uiso   1.00
C387   C     0.18435   0.95199   0.28059   0.00000  Uiso   1.00
C388   C     0.15540   0.94130   0.33221   0.00000  Uiso   1.00
C389   C     0.20254   0.82676   0.12461   0.00000  Uiso   1.00
C390   C     0.27222   0.83407   0.10560   0.00000  Uiso   1.00
C391   C     0.28347   0.76945   0.07721   0.00000  Uiso   1.00
H392   H     0.03035   0.70826   0.13295   0.00000  Uiso   1.00
H393   H     0.93604   0.70942   0.06095   0.00000  Uiso   1.00
H394   H     0.02568   0.75693   0.25519   0.00000  Uiso   1.00
H395   H     0.11354   0.63903   0.08024   0.00000  Uiso   1.00
H396   H     0.85637   0.74132   0.98512   0.00000  Uiso   1.00
H397   H     0.04540   0.84150   0.39469   0.00000  Uiso   1.00
H398   H     0.23067   0.59288   0.02577   0.00000  Uiso   1.00
H399   H     0.22218   0.94407   0.16363   0.00000  Uiso   1.00
H400   H     0.13840   0.95817   0.09331   0.00000  Uiso   1.00
H401   H     0.22804   0.00568   0.28755   0.00000  Uiso   1.00
H402   H     0.31589   0.88778   0.11260   0.00000  Uiso   1.00
H403   H     0.02061   0.94321   0.01139   0.00000  Uiso   1.00
H404   H     0.20964   0.04340   0.42096   0.00000  Uiso   1.00
H405   H     0.39490   0.79478   0.05203   0.00000  Uiso   1.00
O406   O     0.87991   0.84729   0.95146   0.00000  Uiso   1.00
O407   O     0.12791   0.97873   0.48880   0.00000  Uiso   1.00
O408   O     0.37098   0.65254   0.00477   0.00000  Uiso   1.00
N409   N     0.90653   0.78689   0.00094   0.00000  Uiso   1.00
N410   N     0.08325   0.88056   0.38387   0.00000  Uiso   1.00
N411   N     0.25646   0.64812   0.03897   0.00000  Uiso   1.00
N412   N     0.99490   0.89553   0.01508   0.00000  Uiso   1.00
N413   N     0.17162   0.98920   0.39800   0.00000  Uiso   1.00
N414   N     0.34484   0.75676   0.05310   0.00000  Uiso   1.00
C415   C     0.71579   0.24965   0.56556   0.00000  Uiso   1.00
C416   C     0.64628   0.25672   0.54939   0.00000  Uiso   1.00
C417   C     0.60646   0.22351   0.48815   0.00000  Uiso   1.00
C418   C     0.54446   0.23682   0.48347   0.00000  Uiso   1.00
C419   C     0.43979   0.24100   0.45006   0.00000  Uiso   1.00
C420   C     0.77760   0.32968   0.60219   0.00000  Uiso   1.00
C421   C     0.84820   0.35782   0.58535   0.00000  Uiso   1.00
C422   C     0.89674   0.43255   0.62512   0.00000  Uiso   1.00
C423   C     0.99597   0.54999   0.67371   0.00000  Uiso   1.00
C424   C     0.69655   0.21920   0.61402   0.00000  Uiso   1.00
C425   C     0.69903   0.15445   0.60714   0.00000  Uiso   1.00
C426   C     0.67936   0.13617   0.65689   0.00000  Uiso   1.00
C427   C     0.65275   0.08208   0.72384   0.00000  Uiso   1.00
C428   C     0.67646   0.33232   0.66615   0.00000  Uiso   1.00
C429   C     0.62492   0.30163   0.60403   0.00000  Uiso   1.00
C430   C     0.56295   0.31498   0.59945   0.00000  Uiso   1.00
C431   C     0.52305   0.28180   0.53821   0.00000  Uiso   1.00
C432   C     0.75624   0.37459   0.65683   0.00000  Uiso   1.00
C433   C     0.80468   0.44929   0.69664   0.00000  Uiso   1.00
C434   C     0.87534   0.47754   0.67986   0.00000  Uiso   1.00
C435   C     0.67519   0.26411   0.66866   0.00000  Uiso   1.00
C436   C     0.65551   0.24593   0.71843   0.00000  Uiso   1.00
C437   C     0.65796   0.18116   0.71162   0.00000  Uiso   1.00
H438   H     0.73243   0.21469   0.52302   0.00000  Uiso   1.00
H439   H     0.62302   0.18877   0.44588   0.00000  Uiso   1.00
H440   H     0.86472   0.32305   0.54307   0.00000  Uiso   1.00
H441   H     0.71557   0.11972   0.56485   0.00000  Uiso   1.00
H442   H     0.49232   0.17986   0.38445   0.00000  Uiso   1.00
H443   H     0.00196   0.46299   0.58938   0.00000  Uiso   1.00
H444   H     0.68745   0.03422   0.63532   0.00000  Uiso   1.00
H445   H     0.65983   0.36729   0.70869   0.00000  Uiso   1.00
H446   H     0.54643   0.34974   0.64174   0.00000  Uiso   1.00
H447   H     0.78813   0.48403   0.73892   0.00000  Uiso   1.00
H448   H     0.63898   0.28069   0.76071   0.00000  Uiso   1.00
H449   H     0.43016   0.31051   0.54341   0.00000  Uiso   1.00
H450   H     0.93981   0.59365   0.74835   0.00000  Uiso   1.00
H451   H     0.62529   0.16488   0.79428   0.00000  Uiso   1.00
O452   O     0.38797   0.23091   0.41653   0.00000  Uiso   1.00
O453   O     0.05661   0.60237   0.68540   0.00000  Uiso   1.00
O454   O     0.64397   0.03983   0.74567   0.00000  Uiso   1.00
N455   N     0.49324   0.21300   0.43105   0.00000  Uiso   1.00
N456   N     0.96972   0.47772   0.62264   0.00000  Uiso   1.00
N457   N     0.67570   0.07687   0.66560   0.00000  Uiso   1.00
N458   N     0.45979   0.28330   0.51659   0.00000  Uiso   1.00
N459   N     0.93628   0.54803   0.70818   0.00000  Uiso   1.00
N460   N     0.64225   0.14717   0.75114   0.00000  Uiso   1.00
C461   C     0.27653   0.51951   0.70008   0.00000  Uiso   1.00
C462   C     0.27884   0.44931   0.64565   0.00000  Uiso   1.00
C463   C     0.22931   0.37573   0.62998   0.00000  Uiso   1.00
C464   C     0.24091   0.31936   0.57852   0.00000  Uiso   1.00
C465   C     0.23554   0.20782   0.49927   0.00000  Uiso   1.00
C466   C     0.35408   0.56514   0.74222   0.00000  Uiso   1.00
C467   C     0.36780   0.58896   0.80776   0.00000  Uiso   1.00
C468   C     0.44273   0.63010   0.83759   0.00000  Uiso   1.00
C469   C     0.55416   0.69843   0.90828   0.00000  Uiso   1.00
C470   C     0.27116   0.56513   0.66884   0.00000  Uiso   1.00
C471   C     0.21518   0.58897   0.67269   0.00000  Uiso   1.00
C472   C     0.22032   0.63012   0.64075   0.00000  Uiso   1.00
C473   C     0.20302   0.69845   0.59750   0.00000  Uiso   1.00
C474   C     0.38522   0.55022   0.63655   0.00000  Uiso   1.00
C475   C     0.33788   0.46599   0.61114   0.00000  Uiso   1.00
C476   C     0.34956   0.40971   0.55969   0.00000  Uiso   1.00
C477   C     0.30005   0.33607   0.54395   0.00000  Uiso   1.00
C478   C     0.41311   0.58182   0.70772   0.00000  Uiso   1.00
C479   C     0.48804   0.62294   0.73746   0.00000  Uiso   1.00
C480   C     0.50187   0.64681   0.80302   0.00000  Uiso   1.00
C481   C     0.33020   0.58181   0.63433   0.00000  Uiso   1.00
C482   C     0.33543   0.62294   0.60239   0.00000  Uiso   1.00
C483   C     0.27946   0.64684   0.60618   0.00000  Uiso   1.00
H484   H     0.23058   0.50653   0.72695   0.00000  Uiso   1.00
H485   H     0.18364   0.36285   0.65671   0.00000  Uiso   1.00
H486   H     0.32210   0.57605   0.83445   0.00000  Uiso   1.00
H487   H     0.16951   0.57605   0.69940   0.00000  Uiso   1.00
H488   H     0.15765   0.21091   0.56362   0.00000  Uiso   1.00
H489   H     0.44960   0.66047   0.93841   0.00000  Uiso   1.00
H490   H     0.12784   0.66049   0.65362   0.00000  Uiso   1.00
H491   H     0.43118   0.56321   0.60968   0.00000  Uiso   1.00
H492   H     0.39524   0.42264   0.53300   0.00000  Uiso   1.00
H493   H     0.53371   0.63584   0.71074   0.00000  Uiso   1.00
H494   H     0.38112   0.63584   0.57569   0.00000  Uiso   1.00
H495   H     0.32940   0.25944   0.46321   0.00000  Uiso   1.00
H496   H     0.62135   0.70901   0.83801   0.00000  Uiso   1.00
H497   H     0.29959   0.70902   0.55322   0.00000  Uiso   1.00
O498   O     0.21628   0.14168   0.46510   0.00000  Uiso   1.00
O499   O     0.59931   0.73150   0.95681   0.00000  Uiso   1.00
O500   O     0.17716   0.73152   0.58318   0.00000  Uiso   1.00
N501   N     0.20299   0.24162   0.55050   0.00000  Uiso   1.00
N502   N     0.47595   0.66193   0.90091   0.00000  Uiso   1.00
N503   N     0.17514   0.66196   0.63467   0.00000  Uiso   1.00
N504   N     0.29541   0.26774   0.49648   0.00000  Uiso   1.00
N505   N     0.56837   0.68804   0.84688   0.00000  Uiso   1.00
N506   N     0.26756   0.68807   0.58065   0.00000  Uiso   1.00
C507   C     0.50678   0.69371   0.20464   0.00000  Uiso   1.00
C508   C     0.45238   0.61709   0.19800   0.00000  Uiso   1.00
C509   C     0.37507   0.58161   0.17679   0.00000  Uiso   1.00
C510   C     0.33518   0.51169   0.17415   0.00000  Uiso   1.00
C511   C     0.24519   0.39779   0.16114   0.00000  Uiso   1.00
C512   C     0.54636   0.74115   0.27448   0.00000  Uiso   1.00
C513   C     0.54808   0.80999   0.31757   0.00000  Uiso   1.00
C514   C     0.58731   0.84451   0.37931   0.00000  Uiso   1.00
C515   C     0.64327   0.92324   0.48504   0.00000  Uiso   1.00
C516   C     0.56727   0.68102   0.16406   0.00000  Uiso   1.00
C517   C     0.58660   0.69931   0.11432   0.00000  Uiso   1.00
C518   C     0.64346   0.68322   0.08309   0.00000  Uiso   1.00
C519   C     0.73189   0.66858   0.01737   0.00000  Uiso   1.00
C520   C     0.57341   0.63262   0.23766   0.00000  Uiso   1.00
C521   C     0.48856   0.58391   0.21594   0.00000  Uiso   1.00
C522   C     0.44878   0.51402   0.21332   0.00000  Uiso   1.00
C523   C     0.37143   0.47845   0.19211   0.00000  Uiso   1.00
C524   C     0.58254   0.70798   0.29242   0.00000  Uiso   1.00
C525   C     0.62179   0.74240   0.35411   0.00000  Uiso   1.00
C526   C     0.62356   0.81127   0.39728   0.00000  Uiso   1.00
C527   C     0.60346   0.64784   0.18199   0.00000  Uiso   1.00
C528   C     0.66030   0.63172   0.15085   0.00000  Uiso   1.00
C529   C     0.67971   0.64998   0.10106   0.00000  Uiso   1.00
H530   H     0.47862   0.71954   0.19068   0.00000  Uiso   1.00
H531   H     0.34709   0.60731   0.16292   0.00000  Uiso   1.00
H532   H     0.52008   0.83566   0.30368   0.00000  Uiso   1.00
H533   H     0.55859   0.72499   0.10045   0.00000  Uiso   1.00
H534   H     0.21722   0.46826   0.14008   0.00000  Uiso   1.00
H535   H     0.58200   0.94975   0.43687   0.00000  Uiso   1.00
H536   H     0.66321   0.71639   0.00832   0.00000  Uiso   1.00
H537   H     0.60158   0.60679   0.25162   0.00000  Uiso   1.00
H538   H     0.47680   0.48836   0.22721   0.00000  Uiso   1.00
H539   H     0.64978   0.71671   0.36797   0.00000  Uiso   1.00
H540   H     0.68829   0.60604   0.16474   0.00000  Uiso   1.00
H541   H     0.32250   0.37172   0.19226   0.00000  Uiso   1.00
H542   H     0.68727   0.85321   0.48905   0.00000  Uiso   1.00
H543   H     0.76848   0.61985   0.06050   0.00000  Uiso   1.00
O544   O     0.18555   0.34413   0.14903   0.00000  Uiso   1.00
O545   O     0.66413   0.97584   0.53840   0.00000  Uiso   1.00
O546   O     0.77067   0.66967   0.97616   0.00000  Uiso   1.00
N547   N     0.25913   0.46178   0.15570   0.00000  Uiso   1.00
N548   N     0.60016   0.91194   0.43318   0.00000  Uiso   1.00
N549   N     0.67609   0.69379   0.03254   0.00000  Uiso   1.00
N550   N     0.31577   0.40984   0.18377   0.00000  Uiso   1.00
N551   N     0.65680   0.86000   0.46126   0.00000  Uiso   1.00
N552   N     0.73274   0.64184   0.06061   0.00000  Uiso   1.00
