data_job_00155
_audit_creation_date              2018-12-19
_audit_creation_method            'Materials Studio'
_symmetry_space_group_name_H-M    'P1'
_symmetry_Int_Tables_number       1
_symmetry_cell_setting            triclinic
loop_
_symmetry_equiv_pos_as_xyz
  x,y,z
_cell_length_a                    16.8205
_cell_length_b                    12.3667
_cell_length_c                    23.1877
_cell_angle_alpha                 90.0000
_cell_angle_beta                  90.0000
_cell_angle_gamma                 90.0000
loop_
_atom_site_label
_atom_site_type_symbol
_atom_site_fract_x
_atom_site_fract_y
_atom_site_fract_z
_atom_site_U_iso_or_equiv
_atom_site_adp_type
_atom_site_occupancy
C1     C     0.65952   0.29448   0.09125   0.00000  Uiso   1.00
C2     C     0.62508   0.18118   0.08418   0.00000  Uiso   1.00
C3     C     0.63606   0.11405   0.03689   0.00000  Uiso   1.00
C4     C     0.59957   0.01341   0.03869   0.00000  Uiso   1.00
C5     C     0.55302   0.84242   0.02049   0.00000  Uiso   1.00
C6     C     0.58882   0.36895   0.10206   0.00000  Uiso   1.00
C7     C     0.56932   0.45968   0.06980   0.00000  Uiso   1.00
C8     C     0.50230   0.51711   0.08665   0.00000  Uiso   1.00
C9     C     0.39949   0.63767   0.09623   0.00000  Uiso   1.00
C10    C     0.70686   0.29263   0.14733   0.00000  Uiso   1.00
C11    C     0.78662   0.31923   0.15314   0.00000  Uiso   1.00
C12    C     0.81898   0.31243   0.20811   0.00000  Uiso   1.00
C13    C     0.89946   0.31451   0.28797   0.00000  Uiso   1.00
C14    C     0.57517   0.23513   0.17854   0.00000  Uiso   1.00
C15    C     0.57926   0.14896   0.13159   0.00000  Uiso   1.00
C16    C     0.54274   0.04839   0.13346   0.00000  Uiso   1.00
C17    C     0.55367   0.98111   0.08618   0.00000  Uiso   1.00
C18    C     0.54300   0.33672   0.14947   0.00000  Uiso   1.00
C19    C     0.47600   0.39402   0.16637   0.00000  Uiso   1.00
C20    C     0.45640   0.48482   0.13414   0.00000  Uiso   1.00
C21    C     0.66105   0.26040   0.19474   0.00000  Uiso   1.00
C22    C     0.69329   0.25357   0.24971   0.00000  Uiso   1.00
C23    C     0.77308   0.28014   0.25560   0.00000  Uiso   1.00
H24    H     0.69519   0.31958   0.05435   0.00000  Uiso   1.00
H25    H     0.67152   0.13903   0.00021   0.00000  Uiso   1.00
H26    H     0.60479   0.48461   0.03312   0.00000  Uiso   1.00
H27    H     0.82205   0.34417   0.11645   0.00000  Uiso   1.00
H28    H     0.62505   0.92465   0.96109   0.00000  Uiso   1.00
H29    H     0.48437   0.65336   0.03049   0.00000  Uiso   1.00
H30    H     0.94251   0.35723   0.20620   0.00000  Uiso   1.00
H31    H     0.53950   0.21004   0.21545   0.00000  Uiso   1.00
H32    H     0.50729   0.02347   0.17015   0.00000  Uiso   1.00
H33    H     0.44056   0.36906   0.20306   0.00000  Uiso   1.00
H34    H     0.65782   0.22862   0.28638   0.00000  Uiso   1.00
H35    H     0.49175   0.83086   0.09902   0.00000  Uiso   1.00
H36    H     0.35107   0.55958   0.16842   0.00000  Uiso   1.00
H37    H     0.80921   0.26344   0.34413   0.00000  Uiso   1.00
O38    O     0.53999   0.75702   0.99735   0.00000  Uiso   1.00
O39    O     0.35544   0.71307   0.08840   0.00000  Uiso   1.00
O40    O     0.95650   0.32454   0.31893   0.00000  Uiso   1.00
N41    N     0.59811   0.92817   0.99977   0.00000  Uiso   1.00
N42    N     0.46657   0.60947   0.06466   0.00000  Uiso   1.00
N43    N     0.89489   0.33263   0.22893   0.00000  Uiso   1.00
N44    N     0.52638   0.87771   0.07399   0.00000  Uiso   1.00
N45    N     0.39485   0.55900   0.13887   0.00000  Uiso   1.00
N46    N     0.82316   0.28216   0.30315   0.00000  Uiso   1.00
C47    C     0.84048   0.20552   0.59125   0.00000  Uiso   1.00
C48    C     0.87492   0.31882   0.58418   0.00000  Uiso   1.00
C49    C     0.86394   0.38595   0.53689   0.00000  Uiso   1.00
C50    C     0.90043   0.48659   0.53869   0.00000  Uiso   1.00
C51    C     0.94698   0.65758   0.52049   0.00000  Uiso   1.00
C52    C     0.91118   0.13105   0.60206   0.00000  Uiso   1.00
C53    C     0.93068   0.04032   0.56980   0.00000  Uiso   1.00
C54    C     0.99770   0.98289   0.58665   0.00000  Uiso   1.00
C55    C     0.10051   0.86233   0.59623   0.00000  Uiso   1.00
C56    C     0.79314   0.20737   0.64733   0.00000  Uiso   1.00
C57    C     0.71338   0.18077   0.65314   0.00000  Uiso   1.00
C58    C     0.68102   0.18757   0.70811   0.00000  Uiso   1.00
C59    C     0.60054   0.18549   0.78797   0.00000  Uiso   1.00
C60    C     0.92483   0.26487   0.67854   0.00000  Uiso   1.00
C61    C     0.92074   0.35104   0.63159   0.00000  Uiso   1.00
C62    C     0.95726   0.45161   0.63346   0.00000  Uiso   1.00
C63    C     0.94633   0.51889   0.58618   0.00000  Uiso   1.00
C64    C     0.95700   0.16328   0.64947   0.00000  Uiso   1.00
C65    C     0.02400   0.10598   0.66637   0.00000  Uiso   1.00
C66    C     0.04360   0.01518   0.63414   0.00000  Uiso   1.00
C67    C     0.83895   0.23960   0.69474   0.00000  Uiso   1.00
C68    C     0.80671   0.24643   0.74971   0.00000  Uiso   1.00
C69    C     0.72692   0.21986   0.75560   0.00000  Uiso   1.00
H70    H     0.80481   0.18042   0.55435   0.00000  Uiso   1.00
H71    H     0.82848   0.36097   0.50021   0.00000  Uiso   1.00
H72    H     0.89521   0.01539   0.53312   0.00000  Uiso   1.00
H73    H     0.67795   0.15583   0.61645   0.00000  Uiso   1.00
H74    H     0.87495   0.57535   0.46109   0.00000  Uiso   1.00
H75    H     0.01563   0.84664   0.53049   0.00000  Uiso   1.00
H76    H     0.55749   0.14277   0.70620   0.00000  Uiso   1.00
H77    H     0.96050   0.28996   0.71545   0.00000  Uiso   1.00
H78    H     0.99271   0.47653   0.67015   0.00000  Uiso   1.00
H79    H     0.05944   0.13094   0.70306   0.00000  Uiso   1.00
H80    H     0.84218   0.27138   0.78638   0.00000  Uiso   1.00
H81    H     0.00825   0.66914   0.59902   0.00000  Uiso   1.00
H82    H     0.14893   0.94042   0.66842   0.00000  Uiso   1.00
H83    H     0.69079   0.23656   0.84413   0.00000  Uiso   1.00
O84    O     0.96001   0.74298   0.49735   0.00000  Uiso   1.00
O85    O     0.14456   0.78693   0.58840   0.00000  Uiso   1.00
O86    O     0.54350   0.17546   0.81893   0.00000  Uiso   1.00
N87    N     0.90189   0.57183   0.49977   0.00000  Uiso   1.00
N88    N     0.03343   0.89053   0.56466   0.00000  Uiso   1.00
N89    N     0.60511   0.16737   0.72893   0.00000  Uiso   1.00
N90    N     0.97362   0.62229   0.57399   0.00000  Uiso   1.00
N91    N     0.10515   0.94100   0.63887   0.00000  Uiso   1.00
N92    N     0.67684   0.21784   0.80315   0.00000  Uiso   1.00
C93    C     0.34048   0.29448   0.40875   0.00000  Uiso   1.00
C94    C     0.37492   0.18118   0.41582   0.00000  Uiso   1.00
C95    C     0.36394   0.11405   0.46311   0.00000  Uiso   1.00
C96    C     0.40043   0.01341   0.46131   0.00000  Uiso   1.00
C97    C     0.44698   0.84242   0.47951   0.00000  Uiso   1.00
C98    C     0.41118   0.36895   0.39794   0.00000  Uiso   1.00
C99    C     0.43068   0.45968   0.43020   0.00000  Uiso   1.00
C100   C     0.49770   0.51711   0.41335   0.00000  Uiso   1.00
C101   C     0.60051   0.63767   0.40377   0.00000  Uiso   1.00
C102   C     0.29314   0.29263   0.35267   0.00000  Uiso   1.00
C103   C     0.21338   0.31923   0.34686   0.00000  Uiso   1.00
C104   C     0.18102   0.31243   0.29189   0.00000  Uiso   1.00
C105   C     0.10054   0.31451   0.21203   0.00000  Uiso   1.00
C106   C     0.42483   0.23513   0.32146   0.00000  Uiso   1.00
C107   C     0.42074   0.14896   0.36841   0.00000  Uiso   1.00
C108   C     0.45726   0.04839   0.36654   0.00000  Uiso   1.00
C109   C     0.44633   0.98111   0.41382   0.00000  Uiso   1.00
C110   C     0.45700   0.33672   0.35053   0.00000  Uiso   1.00
C111   C     0.52400   0.39402   0.33363   0.00000  Uiso   1.00
C112   C     0.54360   0.48482   0.36586   0.00000  Uiso   1.00
C113   C     0.33895   0.26040   0.30526   0.00000  Uiso   1.00
C114   C     0.30671   0.25357   0.25029   0.00000  Uiso   1.00
C115   C     0.22692   0.28014   0.24440   0.00000  Uiso   1.00
H116   H     0.30481   0.31958   0.44565   0.00000  Uiso   1.00
H117   H     0.32848   0.13903   0.49979   0.00000  Uiso   1.00
H118   H     0.39521   0.48461   0.46688   0.00000  Uiso   1.00
H119   H     0.17795   0.34417   0.38355   0.00000  Uiso   1.00
H120   H     0.37495   0.92465   0.53891   0.00000  Uiso   1.00
H121   H     0.51563   0.65336   0.46951   0.00000  Uiso   1.00
H122   H     0.05749   0.35723   0.29380   0.00000  Uiso   1.00
H123   H     0.46050   0.21004   0.28455   0.00000  Uiso   1.00
H124   H     0.49271   0.02347   0.32985   0.00000  Uiso   1.00
H125   H     0.55944   0.36906   0.29694   0.00000  Uiso   1.00
H126   H     0.34218   0.22862   0.21362   0.00000  Uiso   1.00
H127   H     0.50825   0.83086   0.40098   0.00000  Uiso   1.00
H128   H     0.64893   0.55958   0.33158   0.00000  Uiso   1.00
H129   H     0.19079   0.26344   0.15587   0.00000  Uiso   1.00
O130   O     0.46001   0.75702   0.50265   0.00000  Uiso   1.00
O131   O     0.64456   0.71307   0.41160   0.00000  Uiso   1.00
O132   O     0.04350   0.32454   0.18107   0.00000  Uiso   1.00
N133   N     0.40189   0.92817   0.50023   0.00000  Uiso   1.00
N134   N     0.53343   0.60947   0.43534   0.00000  Uiso   1.00
N135   N     0.10511   0.33263   0.27107   0.00000  Uiso   1.00
N136   N     0.47362   0.87771   0.42601   0.00000  Uiso   1.00
N137   N     0.60515   0.55900   0.36113   0.00000  Uiso   1.00
N138   N     0.17684   0.28216   0.19685   0.00000  Uiso   1.00
C139   C     0.15952   0.20552   0.90875   0.00000  Uiso   1.00
C140   C     0.12508   0.31882   0.91582   0.00000  Uiso   1.00
C141   C     0.13606   0.38595   0.96311   0.00000  Uiso   1.00
C142   C     0.09957   0.48659   0.96131   0.00000  Uiso   1.00
C143   C     0.05302   0.65758   0.97951   0.00000  Uiso   1.00
C144   C     0.08882   0.13105   0.89794   0.00000  Uiso   1.00
C145   C     0.06932   0.04032   0.93020   0.00000  Uiso   1.00
C146   C     0.00230   0.98289   0.91335   0.00000  Uiso   1.00
C147   C     0.89949   0.86233   0.90377   0.00000  Uiso   1.00
C148   C     0.20686   0.20737   0.85267   0.00000  Uiso   1.00
C149   C     0.28662   0.18077   0.84686   0.00000  Uiso   1.00
C150   C     0.31898   0.18757   0.79189   0.00000  Uiso   1.00
C151   C     0.39946   0.18549   0.71203   0.00000  Uiso   1.00
C152   C     0.07517   0.26487   0.82146   0.00000  Uiso   1.00
C153   C     0.07926   0.35104   0.86841   0.00000  Uiso   1.00
C154   C     0.04274   0.45161   0.86654   0.00000  Uiso   1.00
C155   C     0.05367   0.51889   0.91382   0.00000  Uiso   1.00
C156   C     0.04300   0.16328   0.85053   0.00000  Uiso   1.00
C157   C     0.97600   0.10598   0.83363   0.00000  Uiso   1.00
C158   C     0.95640   0.01518   0.86586   0.00000  Uiso   1.00
C159   C     0.16105   0.23960   0.80526   0.00000  Uiso   1.00
C160   C     0.19329   0.24643   0.75029   0.00000  Uiso   1.00
C161   C     0.27308   0.21986   0.74440   0.00000  Uiso   1.00
H162   H     0.19519   0.18042   0.94565   0.00000  Uiso   1.00
H163   H     0.17152   0.36097   0.99979   0.00000  Uiso   1.00
H164   H     0.10479   0.01539   0.96688   0.00000  Uiso   1.00
H165   H     0.32205   0.15583   0.88355   0.00000  Uiso   1.00
H166   H     0.12505   0.57535   0.03891   0.00000  Uiso   1.00
H167   H     0.98437   0.84664   0.96951   0.00000  Uiso   1.00
H168   H     0.44251   0.14277   0.79380   0.00000  Uiso   1.00
H169   H     0.03950   0.28996   0.78455   0.00000  Uiso   1.00
H170   H     0.00729   0.47653   0.82985   0.00000  Uiso   1.00
H171   H     0.94056   0.13094   0.79694   0.00000  Uiso   1.00
H172   H     0.15782   0.27138   0.71362   0.00000  Uiso   1.00
H173   H     0.99175   0.66914   0.90098   0.00000  Uiso   1.00
H174   H     0.85107   0.94042   0.83158   0.00000  Uiso   1.00
H175   H     0.30921   0.23656   0.65587   0.00000  Uiso   1.00
O176   O     0.03999   0.74298   0.00265   0.00000  Uiso   1.00
O177   O     0.85544   0.78693   0.91160   0.00000  Uiso   1.00
O178   O     0.45650   0.17546   0.68107   0.00000  Uiso   1.00
N179   N     0.09811   0.57183   0.00023   0.00000  Uiso   1.00
N180   N     0.96657   0.89053   0.93534   0.00000  Uiso   1.00
N181   N     0.39489   0.16737   0.77107   0.00000  Uiso   1.00
N182   N     0.02638   0.62229   0.92601   0.00000  Uiso   1.00
N183   N     0.89485   0.94100   0.86113   0.00000  Uiso   1.00
N184   N     0.32316   0.21784   0.69685   0.00000  Uiso   1.00
C185   C     0.34048   0.70552   0.90875   0.00000  Uiso   1.00
C186   C     0.37492   0.81882   0.91582   0.00000  Uiso   1.00
C187   C     0.36394   0.88595   0.96311   0.00000  Uiso   1.00
C188   C     0.40043   0.98659   0.96131   0.00000  Uiso   1.00
C189   C     0.44698   0.15758   0.97951   0.00000  Uiso   1.00
C190   C     0.41118   0.63105   0.89794   0.00000  Uiso   1.00
C191   C     0.43068   0.54032   0.93020   0.00000  Uiso   1.00
C192   C     0.49770   0.48289   0.91335   0.00000  Uiso   1.00
C193   C     0.60051   0.36233   0.90377   0.00000  Uiso   1.00
C194   C     0.29314   0.70737   0.85267   0.00000  Uiso   1.00
C195   C     0.21338   0.68077   0.84686   0.00000  Uiso   1.00
C196   C     0.18102   0.68757   0.79189   0.00000  Uiso   1.00
C197   C     0.10054   0.68549   0.71203   0.00000  Uiso   1.00
C198   C     0.42483   0.76487   0.82146   0.00000  Uiso   1.00
C199   C     0.42074   0.85104   0.86841   0.00000  Uiso   1.00
C200   C     0.45726   0.95161   0.86654   0.00000  Uiso   1.00
C201   C     0.44633   0.01889   0.91382   0.00000  Uiso   1.00
C202   C     0.45700   0.66328   0.85053   0.00000  Uiso   1.00
C203   C     0.52400   0.60598   0.83363   0.00000  Uiso   1.00
C204   C     0.54360   0.51518   0.86586   0.00000  Uiso   1.00
C205   C     0.33895   0.73960   0.80526   0.00000  Uiso   1.00
C206   C     0.30671   0.74643   0.75029   0.00000  Uiso   1.00
C207   C     0.22692   0.71986   0.74440   0.00000  Uiso   1.00
H208   H     0.30481   0.68042   0.94565   0.00000  Uiso   1.00
H209   H     0.32848   0.86097   0.99979   0.00000  Uiso   1.00
H210   H     0.39521   0.51539   0.96688   0.00000  Uiso   1.00
H211   H     0.17795   0.65583   0.88355   0.00000  Uiso   1.00
H212   H     0.37495   0.07535   0.03891   0.00000  Uiso   1.00
H213   H     0.51563   0.34664   0.96951   0.00000  Uiso   1.00
H214   H     0.05749   0.64277   0.79380   0.00000  Uiso   1.00
H215   H     0.46050   0.78996   0.78455   0.00000  Uiso   1.00
H216   H     0.49271   0.97653   0.82985   0.00000  Uiso   1.00
H217   H     0.55944   0.63094   0.79694   0.00000  Uiso   1.00
H218   H     0.34218   0.77138   0.71362   0.00000  Uiso   1.00
H219   H     0.50825   0.16914   0.90098   0.00000  Uiso   1.00
H220   H     0.64893   0.44042   0.83158   0.00000  Uiso   1.00
H221   H     0.19079   0.73656   0.65587   0.00000  Uiso   1.00
O222   O     0.46001   0.24298   0.00265   0.00000  Uiso   1.00
O223   O     0.64456   0.28693   0.91160   0.00000  Uiso   1.00
O224   O     0.04350   0.67546   0.68107   0.00000  Uiso   1.00
N225   N     0.40189   0.07183   0.00023   0.00000  Uiso   1.00
N226   N     0.53343   0.39053   0.93534   0.00000  Uiso   1.00
N227   N     0.10511   0.66737   0.77107   0.00000  Uiso   1.00
N228   N     0.47362   0.12229   0.92601   0.00000  Uiso   1.00
N229   N     0.60515   0.44100   0.86113   0.00000  Uiso   1.00
N230   N     0.17684   0.71784   0.69685   0.00000  Uiso   1.00
C231   C     0.15952   0.79448   0.40875   0.00000  Uiso   1.00
C232   C     0.12508   0.68118   0.41582   0.00000  Uiso   1.00
C233   C     0.13606   0.61405   0.46311   0.00000  Uiso   1.00
C234   C     0.09957   0.51341   0.46131   0.00000  Uiso   1.00
C235   C     0.05302   0.34242   0.47951   0.00000  Uiso   1.00
C236   C     0.08882   0.86895   0.39794   0.00000  Uiso   1.00
C237   C     0.06932   0.95968   0.43020   0.00000  Uiso   1.00
C238   C     0.00230   0.01711   0.41335   0.00000  Uiso   1.00
C239   C     0.89949   0.13767   0.40377   0.00000  Uiso   1.00
C240   C     0.20686   0.79263   0.35267   0.00000  Uiso   1.00
C241   C     0.28662   0.81923   0.34686   0.00000  Uiso   1.00
C242   C     0.31898   0.81243   0.29189   0.00000  Uiso   1.00
C243   C     0.39946   0.81451   0.21203   0.00000  Uiso   1.00
C244   C     0.07517   0.73513   0.32146   0.00000  Uiso   1.00
C245   C     0.07926   0.64896   0.36841   0.00000  Uiso   1.00
C246   C     0.04274   0.54839   0.36654   0.00000  Uiso   1.00
C247   C     0.05367   0.48111   0.41382   0.00000  Uiso   1.00
C248   C     0.04300   0.83672   0.35053   0.00000  Uiso   1.00
C249   C     0.97600   0.89402   0.33363   0.00000  Uiso   1.00
C250   C     0.95640   0.98482   0.36586   0.00000  Uiso   1.00
C251   C     0.16105   0.76040   0.30526   0.00000  Uiso   1.00
C252   C     0.19329   0.75357   0.25029   0.00000  Uiso   1.00
C253   C     0.27308   0.78014   0.24440   0.00000  Uiso   1.00
H254   H     0.19519   0.81958   0.44565   0.00000  Uiso   1.00
H255   H     0.17152   0.63903   0.49979   0.00000  Uiso   1.00
H256   H     0.10479   0.98461   0.46688   0.00000  Uiso   1.00
H257   H     0.32205   0.84417   0.38355   0.00000  Uiso   1.00
H258   H     0.12505   0.42465   0.53891   0.00000  Uiso   1.00
H259   H     0.98437   0.15336   0.46951   0.00000  Uiso   1.00
H260   H     0.44251   0.85723   0.29380   0.00000  Uiso   1.00
H261   H     0.03950   0.71004   0.28455   0.00000  Uiso   1.00
H262   H     0.00729   0.52347   0.32985   0.00000  Uiso   1.00
H263   H     0.94056   0.86906   0.29694   0.00000  Uiso   1.00
H264   H     0.15782   0.72862   0.21362   0.00000  Uiso   1.00
H265   H     0.99175   0.33086   0.40098   0.00000  Uiso   1.00
H266   H     0.85107   0.05958   0.33158   0.00000  Uiso   1.00
H267   H     0.30921   0.76344   0.15587   0.00000  Uiso   1.00
O268   O     0.03999   0.25702   0.50265   0.00000  Uiso   1.00
O269   O     0.85544   0.21307   0.41160   0.00000  Uiso   1.00
O270   O     0.45650   0.82454   0.18107   0.00000  Uiso   1.00
N271   N     0.09811   0.42817   0.50023   0.00000  Uiso   1.00
N272   N     0.96657   0.10947   0.43534   0.00000  Uiso   1.00
N273   N     0.39489   0.83263   0.27107   0.00000  Uiso   1.00
N274   N     0.02638   0.37771   0.42601   0.00000  Uiso   1.00
N275   N     0.89485   0.05900   0.36113   0.00000  Uiso   1.00
N276   N     0.32316   0.78216   0.19685   0.00000  Uiso   1.00
C277   C     0.65952   0.70552   0.59125   0.00000  Uiso   1.00
C278   C     0.62508   0.81882   0.58418   0.00000  Uiso   1.00
C279   C     0.63606   0.88595   0.53689   0.00000  Uiso   1.00
C280   C     0.59957   0.98659   0.53869   0.00000  Uiso   1.00
C281   C     0.55302   0.15758   0.52049   0.00000  Uiso   1.00
C282   C     0.58882   0.63105   0.60206   0.00000  Uiso   1.00
C283   C     0.56932   0.54032   0.56980   0.00000  Uiso   1.00
C284   C     0.50230   0.48289   0.58665   0.00000  Uiso   1.00
C285   C     0.39949   0.36233   0.59623   0.00000  Uiso   1.00
C286   C     0.70686   0.70737   0.64733   0.00000  Uiso   1.00
C287   C     0.78662   0.68077   0.65314   0.00000  Uiso   1.00
C288   C     0.81898   0.68757   0.70811   0.00000  Uiso   1.00
C289   C     0.89946   0.68549   0.78797   0.00000  Uiso   1.00
C290   C     0.57517   0.76487   0.67854   0.00000  Uiso   1.00
C291   C     0.57926   0.85104   0.63159   0.00000  Uiso   1.00
C292   C     0.54274   0.95161   0.63346   0.00000  Uiso   1.00
C293   C     0.55367   0.01889   0.58618   0.00000  Uiso   1.00
C294   C     0.54300   0.66328   0.64947   0.00000  Uiso   1.00
C295   C     0.47600   0.60598   0.66637   0.00000  Uiso   1.00
C296   C     0.45640   0.51518   0.63414   0.00000  Uiso   1.00
C297   C     0.66105   0.73960   0.69474   0.00000  Uiso   1.00
C298   C     0.69329   0.74643   0.74971   0.00000  Uiso   1.00
C299   C     0.77308   0.71986   0.75560   0.00000  Uiso   1.00
H300   H     0.69519   0.68042   0.55435   0.00000  Uiso   1.00
H301   H     0.67152   0.86097   0.50021   0.00000  Uiso   1.00
H302   H     0.60479   0.51539   0.53312   0.00000  Uiso   1.00
H303   H     0.82205   0.65583   0.61645   0.00000  Uiso   1.00
H304   H     0.62505   0.07535   0.46109   0.00000  Uiso   1.00
H305   H     0.48437   0.34664   0.53049   0.00000  Uiso   1.00
H306   H     0.94251   0.64277   0.70620   0.00000  Uiso   1.00
H307   H     0.53950   0.78996   0.71545   0.00000  Uiso   1.00
H308   H     0.50729   0.97653   0.67015   0.00000  Uiso   1.00
H309   H     0.44056   0.63094   0.70306   0.00000  Uiso   1.00
H310   H     0.65782   0.77138   0.78638   0.00000  Uiso   1.00
H311   H     0.49175   0.16914   0.59902   0.00000  Uiso   1.00
H312   H     0.35107   0.44042   0.66842   0.00000  Uiso   1.00
H313   H     0.80921   0.73656   0.84413   0.00000  Uiso   1.00
O314   O     0.53999   0.24298   0.49735   0.00000  Uiso   1.00
O315   O     0.35544   0.28693   0.58840   0.00000  Uiso   1.00
O316   O     0.95650   0.67546   0.81893   0.00000  Uiso   1.00
N317   N     0.59811   0.07183   0.49977   0.00000  Uiso   1.00
N318   N     0.46657   0.39053   0.56466   0.00000  Uiso   1.00
N319   N     0.89489   0.66737   0.72893   0.00000  Uiso   1.00
N320   N     0.52638   0.12229   0.57399   0.00000  Uiso   1.00
N321   N     0.39485   0.44100   0.63887   0.00000  Uiso   1.00
N322   N     0.82316   0.71784   0.80315   0.00000  Uiso   1.00
C323   C     0.84048   0.79448   0.09125   0.00000  Uiso   1.00
C324   C     0.87492   0.68118   0.08418   0.00000  Uiso   1.00
C325   C     0.86394   0.61405   0.03689   0.00000  Uiso   1.00
C326   C     0.90043   0.51341   0.03869   0.00000  Uiso   1.00
C327   C     0.94698   0.34242   0.02049   0.00000  Uiso   1.00
C328   C     0.91118   0.86895   0.10206   0.00000  Uiso   1.00
C329   C     0.93068   0.95968   0.06980   0.00000  Uiso   1.00
C330   C     0.99770   0.01711   0.08665   0.00000  Uiso   1.00
C331   C     0.10051   0.13767   0.09623   0.00000  Uiso   1.00
C332   C     0.79314   0.79263   0.14733   0.00000  Uiso   1.00
C333   C     0.71338   0.81923   0.15314   0.00000  Uiso   1.00
C334   C     0.68102   0.81243   0.20811   0.00000  Uiso   1.00
C335   C     0.60054   0.81451   0.28797   0.00000  Uiso   1.00
C336   C     0.92483   0.73513   0.17854   0.00000  Uiso   1.00
C337   C     0.92074   0.64896   0.13159   0.00000  Uiso   1.00
C338   C     0.95726   0.54839   0.13346   0.00000  Uiso   1.00
C339   C     0.94633   0.48111   0.08618   0.00000  Uiso   1.00
C340   C     0.95700   0.83672   0.14947   0.00000  Uiso   1.00
C341   C     0.02400   0.89402   0.16637   0.00000  Uiso   1.00
C342   C     0.04360   0.98482   0.13414   0.00000  Uiso   1.00
C343   C     0.83895   0.76040   0.19474   0.00000  Uiso   1.00
C344   C     0.80671   0.75357   0.24971   0.00000  Uiso   1.00
C345   C     0.72692   0.78014   0.25560   0.00000  Uiso   1.00
H346   H     0.80481   0.81958   0.05435   0.00000  Uiso   1.00
H347   H     0.82848   0.63903   0.00021   0.00000  Uiso   1.00
H348   H     0.89521   0.98461   0.03312   0.00000  Uiso   1.00
H349   H     0.67795   0.84417   0.11645   0.00000  Uiso   1.00
H350   H     0.87495   0.42465   0.96109   0.00000  Uiso   1.00
H351   H     0.01563   0.15336   0.03049   0.00000  Uiso   1.00
H352   H     0.55749   0.85723   0.20620   0.00000  Uiso   1.00
H353   H     0.96050   0.71004   0.21545   0.00000  Uiso   1.00
H354   H     0.99271   0.52347   0.17015   0.00000  Uiso   1.00
H355   H     0.05944   0.86906   0.20306   0.00000  Uiso   1.00
H356   H     0.84218   0.72862   0.28638   0.00000  Uiso   1.00
H357   H     0.00825   0.33086   0.09902   0.00000  Uiso   1.00
H358   H     0.14893   0.05958   0.16842   0.00000  Uiso   1.00
H359   H     0.69079   0.76344   0.34413   0.00000  Uiso   1.00
O360   O     0.96001   0.25702   0.99735   0.00000  Uiso   1.00
O361   O     0.14456   0.21307   0.08840   0.00000  Uiso   1.00
O362   O     0.54350   0.82454   0.31893   0.00000  Uiso   1.00
N363   N     0.90189   0.42817   0.99977   0.00000  Uiso   1.00
N364   N     0.03343   0.10947   0.06466   0.00000  Uiso   1.00
N365   N     0.60511   0.83263   0.22893   0.00000  Uiso   1.00
N366   N     0.97362   0.37771   0.07399   0.00000  Uiso   1.00
N367   N     0.10515   0.05900   0.13887   0.00000  Uiso   1.00
N368   N     0.67684   0.78216   0.30315   0.00000  Uiso   1.00
