data_job_00660
_audit_creation_date              2018-12-19
_audit_creation_method            'Materials Studio'
_symmetry_space_group_name_H-M    'P1'
_symmetry_Int_Tables_number       1
_symmetry_cell_setting            triclinic
loop_
_symmetry_equiv_pos_as_xyz
  x,y,z
_cell_length_a                    12.4311
_cell_length_b                    12.5687
_cell_length_c                    21.0709
_cell_angle_alpha                 90.0000
_cell_angle_beta                  124.9578
_cell_angle_gamma                 90.0000
loop_
_atom_site_label
_atom_site_type_symbol
_atom_site_fract_x
_atom_site_fract_y
_atom_site_fract_z
_atom_site_U_iso_or_equiv
_atom_site_adp_type
_atom_site_occupancy
C1     C     0.99094   0.13360   0.58721   0.00000  Uiso   1.00
C2     C     0.90916   0.21890   0.59250   0.00000  Uiso   1.00
C3     C     0.77489   0.21436   0.55787   0.00000  Uiso   1.00
C4     C     0.71831   0.30048   0.56964   0.00000  Uiso   1.00
C5     C     0.57988   0.41965   0.57101   0.00000  Uiso   1.00
C6     C     0.05953   0.18903   0.55522   0.00000  Uiso   1.00
C7     C     0.05170   0.15935   0.48924   0.00000  Uiso   1.00
C8     C     0.12172   0.22032   0.46963   0.00000  Uiso   1.00
C9     C     0.21682   0.29306   0.41314   0.00000  Uiso   1.00
C10    C     0.09891   0.10322   0.67044   0.00000  Uiso   1.00
C11    C     0.12422   0.00140   0.70134   0.00000  Uiso   1.00
C12    C     0.22742   0.99012   0.77874   0.00000  Uiso   1.00
C13    C     0.38366   0.92963   0.90115   0.00000  Uiso   1.00
C14    C     0.12923   0.29462   0.66970   0.00000  Uiso   1.00
C15    C     0.98427   0.30636   0.63731   0.00000  Uiso   1.00
C16    C     0.92788   0.39251   0.64913   0.00000  Uiso   1.00
C17    C     0.79355   0.38810   0.61453   0.00000  Uiso   1.00
C18    C     0.13463   0.27648   0.60002   0.00000  Uiso   1.00
C19    C     0.20469   0.33750   0.58050   0.00000  Uiso   1.00
C20    C     0.19697   0.30793   0.51451   0.00000  Uiso   1.00
C21    C     0.17402   0.19068   0.71524   0.00000  Uiso   1.00
C22    C     0.27721   0.17955   0.79260   0.00000  Uiso   1.00
C23    C     0.30267   0.07773   0.82362   0.00000  Uiso   1.00
H24    H     0.93247   0.06551   0.55233   0.00000  Uiso   1.00
H25    H     0.71679   0.14667   0.52320   0.00000  Uiso   1.00
H26    H     0.99358   0.09166   0.45459   0.00000  Uiso   1.00
H27    H     0.06608   0.93374   0.66665   0.00000  Uiso   1.00
H28    H     0.51079   0.27523   0.51063   0.00000  Uiso   1.00
H29    H     0.09443   0.15923   0.36597   0.00000  Uiso   1.00
H30    H     0.24732   0.82621   0.81316   0.00000  Uiso   1.00
H31    H     0.18771   0.36271   0.70458   0.00000  Uiso   1.00
H32    H     0.98603   0.46018   0.68381   0.00000  Uiso   1.00
H33    H     0.26281   0.40517   0.61519   0.00000  Uiso   1.00
H34    H     0.33531   0.24724   0.82726   0.00000  Uiso   1.00
H35    H     0.72931   0.52969   0.64099   0.00000  Uiso   1.00
H36    H     0.31296   0.41368   0.49633   0.00000  Uiso   1.00
H37    H     0.46584   0.08066   0.94351   0.00000  Uiso   1.00
O38    O     0.48277   0.46123   0.55937   0.00000  Uiso   1.00
O39    O     0.24851   0.30902   0.36960   0.00000  Uiso   1.00
O40    O     0.44908   0.87211   0.95629   0.00000  Uiso   1.00
N41    N     0.58990   0.32174   0.54418   0.00000  Uiso   1.00
N42    N     0.13556   0.21329   0.40892   0.00000  Uiso   1.00
N43    N     0.27851   0.90194   0.82700   0.00000  Uiso   1.00
N44    N     0.70749   0.45866   0.61432   0.00000  Uiso   1.00
N45    N     0.25314   0.35021   0.47906   0.00000  Uiso   1.00
N46    N     0.39610   0.03886   0.89714   0.00000  Uiso   1.00
C47    C     0.00906   0.13360   0.91279   0.00000  Uiso   1.00
C48    C     0.09084   0.21890   0.90750   0.00000  Uiso   1.00
C49    C     0.22511   0.21436   0.94213   0.00000  Uiso   1.00
C50    C     0.28169   0.30048   0.93036   0.00000  Uiso   1.00
C51    C     0.42012   0.41965   0.92899   0.00000  Uiso   1.00
C52    C     0.94047   0.18903   0.94478   0.00000  Uiso   1.00
C53    C     0.94830   0.15935   0.01076   0.00000  Uiso   1.00
C54    C     0.87828   0.22032   0.03037   0.00000  Uiso   1.00
C55    C     0.78318   0.29306   0.08686   0.00000  Uiso   1.00
C56    C     0.90109   0.10322   0.82956   0.00000  Uiso   1.00
C57    C     0.87578   0.00140   0.79866   0.00000  Uiso   1.00
C58    C     0.77258   0.99012   0.72126   0.00000  Uiso   1.00
C59    C     0.61634   0.92963   0.59885   0.00000  Uiso   1.00
C60    C     0.87077   0.29462   0.83030   0.00000  Uiso   1.00
C61    C     0.01573   0.30636   0.86269   0.00000  Uiso   1.00
C62    C     0.07212   0.39251   0.85087   0.00000  Uiso   1.00
C63    C     0.20645   0.38810   0.88547   0.00000  Uiso   1.00
C64    C     0.86537   0.27648   0.89998   0.00000  Uiso   1.00
C65    C     0.79531   0.33750   0.91950   0.00000  Uiso   1.00
C66    C     0.80303   0.30793   0.98549   0.00000  Uiso   1.00
C67    C     0.82598   0.19068   0.78476   0.00000  Uiso   1.00
C68    C     0.72279   0.17955   0.70740   0.00000  Uiso   1.00
C69    C     0.69733   0.07773   0.67638   0.00000  Uiso   1.00
H70    H     0.06753   0.06551   0.94767   0.00000  Uiso   1.00
H71    H     0.28321   0.14667   0.97680   0.00000  Uiso   1.00
H72    H     0.00642   0.09166   0.04541   0.00000  Uiso   1.00
H73    H     0.93392   0.93374   0.83335   0.00000  Uiso   1.00
H74    H     0.48921   0.27523   0.98937   0.00000  Uiso   1.00
H75    H     0.90557   0.15923   0.13403   0.00000  Uiso   1.00
H76    H     0.75268   0.82621   0.68684   0.00000  Uiso   1.00
H77    H     0.81229   0.36271   0.79542   0.00000  Uiso   1.00
H78    H     0.01397   0.46018   0.81619   0.00000  Uiso   1.00
H79    H     0.73719   0.40517   0.88481   0.00000  Uiso   1.00
H80    H     0.66469   0.24724   0.67274   0.00000  Uiso   1.00
H81    H     0.27069   0.52969   0.85901   0.00000  Uiso   1.00
H82    H     0.68704   0.41368   0.00367   0.00000  Uiso   1.00
H83    H     0.53416   0.08066   0.55649   0.00000  Uiso   1.00
O84    O     0.51723   0.46123   0.94063   0.00000  Uiso   1.00
O85    O     0.75149   0.30902   0.13040   0.00000  Uiso   1.00
O86    O     0.55092   0.87211   0.54371   0.00000  Uiso   1.00
N87    N     0.41010   0.32174   0.95582   0.00000  Uiso   1.00
N88    N     0.86444   0.21329   0.09108   0.00000  Uiso   1.00
N89    N     0.72149   0.90194   0.67300   0.00000  Uiso   1.00
N90    N     0.29251   0.45866   0.88568   0.00000  Uiso   1.00
N91    N     0.74686   0.35021   0.02094   0.00000  Uiso   1.00
N92    N     0.60390   0.03886   0.60286   0.00000  Uiso   1.00
C93    C     0.00906   0.86640   0.41279   0.00000  Uiso   1.00
C94    C     0.09084   0.78110   0.40750   0.00000  Uiso   1.00
C95    C     0.22511   0.78564   0.44213   0.00000  Uiso   1.00
C96    C     0.28169   0.69952   0.43036   0.00000  Uiso   1.00
C97    C     0.42012   0.58035   0.42899   0.00000  Uiso   1.00
C98    C     0.94047   0.81097   0.44478   0.00000  Uiso   1.00
C99    C     0.94830   0.84065   0.51076   0.00000  Uiso   1.00
C100   C     0.87828   0.77968   0.53037   0.00000  Uiso   1.00
C101   C     0.78318   0.70694   0.58686   0.00000  Uiso   1.00
C102   C     0.90109   0.89678   0.32956   0.00000  Uiso   1.00
C103   C     0.87578   0.99860   0.29866   0.00000  Uiso   1.00
C104   C     0.77258   0.00988   0.22126   0.00000  Uiso   1.00
C105   C     0.61634   0.07037   0.09885   0.00000  Uiso   1.00
C106   C     0.87077   0.70538   0.33030   0.00000  Uiso   1.00
C107   C     0.01573   0.69364   0.36269   0.00000  Uiso   1.00
C108   C     0.07212   0.60749   0.35087   0.00000  Uiso   1.00
C109   C     0.20645   0.61190   0.38547   0.00000  Uiso   1.00
C110   C     0.86537   0.72352   0.39998   0.00000  Uiso   1.00
C111   C     0.79531   0.66250   0.41950   0.00000  Uiso   1.00
C112   C     0.80303   0.69207   0.48549   0.00000  Uiso   1.00
C113   C     0.82598   0.80932   0.28476   0.00000  Uiso   1.00
C114   C     0.72279   0.82045   0.20740   0.00000  Uiso   1.00
C115   C     0.69733   0.92227   0.17638   0.00000  Uiso   1.00
H116   H     0.06753   0.93449   0.44767   0.00000  Uiso   1.00
H117   H     0.28321   0.85333   0.47680   0.00000  Uiso   1.00
H118   H     0.00642   0.90834   0.54541   0.00000  Uiso   1.00
H119   H     0.93392   0.06626   0.33335   0.00000  Uiso   1.00
H120   H     0.48921   0.72477   0.48937   0.00000  Uiso   1.00
H121   H     0.90557   0.84077   0.63403   0.00000  Uiso   1.00
H122   H     0.75268   0.17379   0.18684   0.00000  Uiso   1.00
H123   H     0.81229   0.63729   0.29542   0.00000  Uiso   1.00
H124   H     0.01397   0.53982   0.31619   0.00000  Uiso   1.00
H125   H     0.73719   0.59483   0.38481   0.00000  Uiso   1.00
H126   H     0.66469   0.75276   0.17274   0.00000  Uiso   1.00
H127   H     0.27069   0.47031   0.35901   0.00000  Uiso   1.00
H128   H     0.68704   0.58632   0.50367   0.00000  Uiso   1.00
H129   H     0.53416   0.91934   0.05649   0.00000  Uiso   1.00
O130   O     0.51723   0.53877   0.44063   0.00000  Uiso   1.00
O131   O     0.75149   0.69098   0.63040   0.00000  Uiso   1.00
O132   O     0.55092   0.12789   0.04371   0.00000  Uiso   1.00
N133   N     0.41010   0.67826   0.45582   0.00000  Uiso   1.00
N134   N     0.86444   0.78671   0.59108   0.00000  Uiso   1.00
N135   N     0.72149   0.09806   0.17300   0.00000  Uiso   1.00
N136   N     0.29251   0.54134   0.38568   0.00000  Uiso   1.00
N137   N     0.74686   0.64979   0.52094   0.00000  Uiso   1.00
N138   N     0.60390   0.96114   0.10286   0.00000  Uiso   1.00
C139   C     0.99094   0.86640   0.08721   0.00000  Uiso   1.00
C140   C     0.90916   0.78110   0.09250   0.00000  Uiso   1.00
C141   C     0.77489   0.78564   0.05787   0.00000  Uiso   1.00
C142   C     0.71831   0.69952   0.06964   0.00000  Uiso   1.00
C143   C     0.57988   0.58035   0.07101   0.00000  Uiso   1.00
C144   C     0.05953   0.81097   0.05522   0.00000  Uiso   1.00
C145   C     0.05170   0.84065   0.98924   0.00000  Uiso   1.00
C146   C     0.12172   0.77968   0.96963   0.00000  Uiso   1.00
C147   C     0.21682   0.70694   0.91314   0.00000  Uiso   1.00
C148   C     0.09891   0.89678   0.17044   0.00000  Uiso   1.00
C149   C     0.12422   0.99860   0.20134   0.00000  Uiso   1.00
C150   C     0.22742   0.00988   0.27874   0.00000  Uiso   1.00
C151   C     0.38366   0.07037   0.40115   0.00000  Uiso   1.00
C152   C     0.12923   0.70538   0.16970   0.00000  Uiso   1.00
C153   C     0.98427   0.69364   0.13731   0.00000  Uiso   1.00
C154   C     0.92788   0.60749   0.14913   0.00000  Uiso   1.00
C155   C     0.79355   0.61190   0.11453   0.00000  Uiso   1.00
C156   C     0.13463   0.72352   0.10002   0.00000  Uiso   1.00
C157   C     0.20469   0.66250   0.08050   0.00000  Uiso   1.00
C158   C     0.19697   0.69207   0.01451   0.00000  Uiso   1.00
C159   C     0.17402   0.80932   0.21524   0.00000  Uiso   1.00
C160   C     0.27721   0.82045   0.29260   0.00000  Uiso   1.00
C161   C     0.30267   0.92227   0.32362   0.00000  Uiso   1.00
H162   H     0.93247   0.93449   0.05233   0.00000  Uiso   1.00
H163   H     0.71679   0.85333   0.02320   0.00000  Uiso   1.00
H164   H     0.99358   0.90834   0.95459   0.00000  Uiso   1.00
H165   H     0.06608   0.06626   0.16665   0.00000  Uiso   1.00
H166   H     0.51079   0.72477   0.01063   0.00000  Uiso   1.00
H167   H     0.09443   0.84077   0.86597   0.00000  Uiso   1.00
H168   H     0.24732   0.17379   0.31316   0.00000  Uiso   1.00
H169   H     0.18771   0.63729   0.20458   0.00000  Uiso   1.00
H170   H     0.98603   0.53982   0.18381   0.00000  Uiso   1.00
H171   H     0.26281   0.59483   0.11519   0.00000  Uiso   1.00
H172   H     0.33531   0.75276   0.32726   0.00000  Uiso   1.00
H173   H     0.72931   0.47031   0.14099   0.00000  Uiso   1.00
H174   H     0.31296   0.58632   0.99633   0.00000  Uiso   1.00
H175   H     0.46584   0.91934   0.44351   0.00000  Uiso   1.00
O176   O     0.48277   0.53877   0.05937   0.00000  Uiso   1.00
O177   O     0.24851   0.69098   0.86960   0.00000  Uiso   1.00
O178   O     0.44908   0.12789   0.45629   0.00000  Uiso   1.00
N179   N     0.58990   0.67826   0.04418   0.00000  Uiso   1.00
N180   N     0.13556   0.78671   0.90892   0.00000  Uiso   1.00
N181   N     0.27851   0.09806   0.32700   0.00000  Uiso   1.00
N182   N     0.70749   0.54134   0.11432   0.00000  Uiso   1.00
N183   N     0.25314   0.64979   0.97906   0.00000  Uiso   1.00
N184   N     0.39610   0.96114   0.39714   0.00000  Uiso   1.00
