data_job_05367
_audit_creation_date              2018-12-19
_audit_creation_method            'Materials Studio'
_symmetry_space_group_name_H-M    'P1'
_symmetry_Int_Tables_number       1
_symmetry_cell_setting            triclinic
loop_
_symmetry_equiv_pos_as_xyz
  x,y,z
_cell_length_a                    16.8226
_cell_length_b                    16.8226
_cell_length_c                    17.0425
_cell_angle_alpha                 90.0000
_cell_angle_beta                  90.0000
_cell_angle_gamma                 90.0000
loop_
_atom_site_label
_atom_site_type_symbol
_atom_site_fract_x
_atom_site_fract_y
_atom_site_fract_z
_atom_site_U_iso_or_equiv
_atom_site_adp_type
_atom_site_occupancy
C1     C     0.75157   0.71656   0.77603   0.00000  Uiso   1.00
C2     C     0.73413   0.78158   0.71610   0.00000  Uiso   1.00
C3     C     0.66032   0.81547   0.70185   0.00000  Uiso   1.00
C4     C     0.65673   0.87410   0.64462   0.00000  Uiso   1.00
C5     C     0.61933   0.97141   0.55786   0.00000  Uiso   1.00
C6     C     0.78971   0.64862   0.73029   0.00000  Uiso   1.00
C7     C     0.76264   0.57073   0.72798   0.00000  Uiso   1.00
C8     C     0.80584   0.51743   0.68269   0.00000  Uiso   1.00
C9     C     0.85477   0.40831   0.61800   0.00000  Uiso   1.00
C10    C     0.81643   0.74951   0.82939   0.00000  Uiso   1.00
C11    C     0.81184   0.75642   0.91041   0.00000  Uiso   1.00
C12    C     0.87755   0.78805   0.94857   0.00000  Uiso   1.00
C13    C     0.96796   0.83557   0.03775   0.00000  Uiso   1.00
C14    C     0.87644   0.76040   0.69973   0.00000  Uiso   1.00
C15    C     0.80196   0.80539   0.67466   0.00000  Uiso   1.00
C16    C     0.79848   0.86398   0.61744   0.00000  Uiso   1.00
C17    C     0.72467   0.89796   0.60311   0.00000  Uiso   1.00
C18    C     0.85754   0.67244   0.68885   0.00000  Uiso   1.00
C19    C     0.90079   0.61924   0.64356   0.00000  Uiso   1.00
C20    C     0.87379   0.54129   0.64118   0.00000  Uiso   1.00
C21    C     0.88426   0.77333   0.78795   0.00000  Uiso   1.00
C22    C     0.94999   0.80494   0.82600   0.00000  Uiso   1.00
C23    C     0.94550   0.81190   0.90706   0.00000  Uiso   1.00
H24    H     0.69877   0.69801   0.80829   0.00000  Uiso   1.00
H25    H     0.60784   0.79702   0.73393   0.00000  Uiso   1.00
H26    H     0.71015   0.55232   0.76006   0.00000  Uiso   1.00
H27    H     0.75934   0.73799   0.94246   0.00000  Uiso   1.00
H28    H     0.53695   0.91728   0.63320   0.00000  Uiso   1.00
H29    H     0.75268   0.40129   0.68831   0.00000  Uiso   1.00
H30    H     0.85641   0.79281   0.07295   0.00000  Uiso   1.00
H31    H     0.92925   0.77894   0.66746   0.00000  Uiso   1.00
H32    H     0.85097   0.88240   0.58538   0.00000  Uiso   1.00
H33    H     0.95328   0.63769   0.61151   0.00000  Uiso   1.00
H34    H     0.00247   0.82336   0.79391   0.00000  Uiso   1.00
H35    H     0.73428   0.98657   0.51262   0.00000  Uiso   1.00
H36    H     0.95002   0.47058   0.56774   0.00000  Uiso   1.00
H37    H     0.05374   0.86210   0.95237   0.00000  Uiso   1.00
O38    O     0.57996   0.01850   0.52144   0.00000  Uiso   1.00
O39    O     0.86300   0.34155   0.59375   0.00000  Uiso   1.00
O40    O     0.99909   0.85521   0.09838   0.00000  Uiso   1.00
N41    N     0.59414   0.91940   0.61610   0.00000  Uiso   1.00
N42    N     0.79583   0.43699   0.66761   0.00000  Uiso   1.00
N43    N     0.89281   0.80300   0.02722   0.00000  Uiso   1.00
N44    N     0.70032   0.95668   0.55122   0.00000  Uiso   1.00
N45    N     0.90201   0.47427   0.60273   0.00000  Uiso   1.00
N46    N     0.99900   0.84029   0.96234   0.00000  Uiso   1.00
C47    C     0.24843   0.28344   0.77603   0.00000  Uiso   1.00
C48    C     0.26587   0.21842   0.71610   0.00000  Uiso   1.00
C49    C     0.33968   0.18453   0.70185   0.00000  Uiso   1.00
C50    C     0.34327   0.12590   0.64462   0.00000  Uiso   1.00
C51    C     0.38067   0.02859   0.55786   0.00000  Uiso   1.00
C52    C     0.21029   0.35138   0.73029   0.00000  Uiso   1.00
C53    C     0.23736   0.42927   0.72798   0.00000  Uiso   1.00
C54    C     0.19416   0.48257   0.68269   0.00000  Uiso   1.00
C55    C     0.14523   0.59169   0.61800   0.00000  Uiso   1.00
C56    C     0.18357   0.25049   0.82939   0.00000  Uiso   1.00
C57    C     0.18816   0.24358   0.91041   0.00000  Uiso   1.00
C58    C     0.12245   0.21195   0.94857   0.00000  Uiso   1.00
C59    C     0.03204   0.16443   0.03775   0.00000  Uiso   1.00
C60    C     0.12356   0.23960   0.69973   0.00000  Uiso   1.00
C61    C     0.19804   0.19461   0.67466   0.00000  Uiso   1.00
C62    C     0.20152   0.13602   0.61744   0.00000  Uiso   1.00
C63    C     0.27533   0.10204   0.60311   0.00000  Uiso   1.00
C64    C     0.14246   0.32756   0.68885   0.00000  Uiso   1.00
C65    C     0.09921   0.38076   0.64356   0.00000  Uiso   1.00
C66    C     0.12621   0.45871   0.64118   0.00000  Uiso   1.00
C67    C     0.11574   0.22667   0.78795   0.00000  Uiso   1.00
C68    C     0.05001   0.19506   0.82600   0.00000  Uiso   1.00
C69    C     0.05450   0.18810   0.90706   0.00000  Uiso   1.00
H70    H     0.30123   0.30199   0.80829   0.00000  Uiso   1.00
H71    H     0.39216   0.20298   0.73393   0.00000  Uiso   1.00
H72    H     0.28985   0.44768   0.76006   0.00000  Uiso   1.00
H73    H     0.24066   0.26201   0.94246   0.00000  Uiso   1.00
H74    H     0.46305   0.08272   0.63320   0.00000  Uiso   1.00
H75    H     0.24732   0.59871   0.68831   0.00000  Uiso   1.00
H76    H     0.14359   0.20719   0.07295   0.00000  Uiso   1.00
H77    H     0.07075   0.22106   0.66746   0.00000  Uiso   1.00
H78    H     0.14903   0.11760   0.58538   0.00000  Uiso   1.00
H79    H     0.04672   0.36231   0.61151   0.00000  Uiso   1.00
H80    H     0.99753   0.17664   0.79391   0.00000  Uiso   1.00
H81    H     0.26572   0.01343   0.51262   0.00000  Uiso   1.00
H82    H     0.04998   0.52942   0.56774   0.00000  Uiso   1.00
H83    H     0.94626   0.13790   0.95237   0.00000  Uiso   1.00
O84    O     0.42004   0.98150   0.52144   0.00000  Uiso   1.00
O85    O     0.13700   0.65845   0.59375   0.00000  Uiso   1.00
O86    O     0.00091   0.14479   0.09838   0.00000  Uiso   1.00
N87    N     0.40586   0.08060   0.61610   0.00000  Uiso   1.00
N88    N     0.20417   0.56301   0.66761   0.00000  Uiso   1.00
N89    N     0.10719   0.19700   0.02722   0.00000  Uiso   1.00
N90    N     0.29968   0.04332   0.55122   0.00000  Uiso   1.00
N91    N     0.09799   0.52573   0.60273   0.00000  Uiso   1.00
N92    N     0.00100   0.15971   0.96234   0.00000  Uiso   1.00
C93    C     0.71656   0.24843   0.22397   0.00000  Uiso   1.00
C94    C     0.78158   0.26587   0.28390   0.00000  Uiso   1.00
C95    C     0.81547   0.33968   0.29815   0.00000  Uiso   1.00
C96    C     0.87410   0.34327   0.35538   0.00000  Uiso   1.00
C97    C     0.97141   0.38067   0.44214   0.00000  Uiso   1.00
C98    C     0.64862   0.21029   0.26971   0.00000  Uiso   1.00
C99    C     0.57073   0.23736   0.27202   0.00000  Uiso   1.00
C100   C     0.51743   0.19416   0.31731   0.00000  Uiso   1.00
C101   C     0.40831   0.14523   0.38200   0.00000  Uiso   1.00
C102   C     0.74951   0.18357   0.17061   0.00000  Uiso   1.00
C103   C     0.75642   0.18816   0.08959   0.00000  Uiso   1.00
C104   C     0.78805   0.12245   0.05143   0.00000  Uiso   1.00
C105   C     0.83557   0.03204   0.96225   0.00000  Uiso   1.00
C106   C     0.76040   0.12356   0.30027   0.00000  Uiso   1.00
C107   C     0.80539   0.19804   0.32534   0.00000  Uiso   1.00
C108   C     0.86398   0.20152   0.38256   0.00000  Uiso   1.00
C109   C     0.89796   0.27533   0.39689   0.00000  Uiso   1.00
C110   C     0.67244   0.14246   0.31115   0.00000  Uiso   1.00
C111   C     0.61924   0.09921   0.35644   0.00000  Uiso   1.00
C112   C     0.54129   0.12621   0.35882   0.00000  Uiso   1.00
C113   C     0.77333   0.11574   0.21205   0.00000  Uiso   1.00
C114   C     0.80494   0.05001   0.17400   0.00000  Uiso   1.00
C115   C     0.81190   0.05450   0.09294   0.00000  Uiso   1.00
H116   H     0.69801   0.30123   0.19171   0.00000  Uiso   1.00
H117   H     0.79702   0.39216   0.26607   0.00000  Uiso   1.00
H118   H     0.55232   0.28985   0.23994   0.00000  Uiso   1.00
H119   H     0.73799   0.24066   0.05754   0.00000  Uiso   1.00
H120   H     0.91728   0.46305   0.36680   0.00000  Uiso   1.00
H121   H     0.40129   0.24732   0.31169   0.00000  Uiso   1.00
H122   H     0.79281   0.14359   0.92705   0.00000  Uiso   1.00
H123   H     0.77894   0.07075   0.33254   0.00000  Uiso   1.00
H124   H     0.88240   0.14903   0.41462   0.00000  Uiso   1.00
H125   H     0.63769   0.04672   0.38849   0.00000  Uiso   1.00
H126   H     0.82336   0.99753   0.20609   0.00000  Uiso   1.00
H127   H     0.98657   0.26572   0.48738   0.00000  Uiso   1.00
H128   H     0.47058   0.04998   0.43226   0.00000  Uiso   1.00
H129   H     0.86210   0.94626   0.04763   0.00000  Uiso   1.00
O130   O     0.01850   0.42004   0.47856   0.00000  Uiso   1.00
O131   O     0.34155   0.13700   0.40625   0.00000  Uiso   1.00
O132   O     0.85521   0.00091   0.90162   0.00000  Uiso   1.00
N133   N     0.91940   0.40586   0.38390   0.00000  Uiso   1.00
N134   N     0.43699   0.20417   0.33239   0.00000  Uiso   1.00
N135   N     0.80300   0.10719   0.97278   0.00000  Uiso   1.00
N136   N     0.95668   0.29968   0.44878   0.00000  Uiso   1.00
N137   N     0.47427   0.09799   0.39727   0.00000  Uiso   1.00
N138   N     0.84029   0.00100   0.03766   0.00000  Uiso   1.00
C139   C     0.28344   0.75157   0.22397   0.00000  Uiso   1.00
C140   C     0.21842   0.73413   0.28390   0.00000  Uiso   1.00
C141   C     0.18453   0.66032   0.29815   0.00000  Uiso   1.00
C142   C     0.12590   0.65673   0.35538   0.00000  Uiso   1.00
C143   C     0.02859   0.61933   0.44214   0.00000  Uiso   1.00
C144   C     0.35138   0.78971   0.26971   0.00000  Uiso   1.00
C145   C     0.42927   0.76264   0.27202   0.00000  Uiso   1.00
C146   C     0.48257   0.80584   0.31731   0.00000  Uiso   1.00
C147   C     0.59169   0.85477   0.38200   0.00000  Uiso   1.00
C148   C     0.25049   0.81643   0.17061   0.00000  Uiso   1.00
C149   C     0.24358   0.81184   0.08959   0.00000  Uiso   1.00
C150   C     0.21195   0.87755   0.05143   0.00000  Uiso   1.00
C151   C     0.16443   0.96796   0.96225   0.00000  Uiso   1.00
C152   C     0.23960   0.87644   0.30027   0.00000  Uiso   1.00
C153   C     0.19461   0.80196   0.32534   0.00000  Uiso   1.00
C154   C     0.13602   0.79848   0.38256   0.00000  Uiso   1.00
C155   C     0.10204   0.72467   0.39689   0.00000  Uiso   1.00
C156   C     0.32756   0.85754   0.31115   0.00000  Uiso   1.00
C157   C     0.38076   0.90079   0.35644   0.00000  Uiso   1.00
C158   C     0.45871   0.87379   0.35882   0.00000  Uiso   1.00
C159   C     0.22667   0.88426   0.21205   0.00000  Uiso   1.00
C160   C     0.19506   0.94999   0.17400   0.00000  Uiso   1.00
C161   C     0.18810   0.94550   0.09294   0.00000  Uiso   1.00
H162   H     0.30199   0.69877   0.19171   0.00000  Uiso   1.00
H163   H     0.20298   0.60784   0.26607   0.00000  Uiso   1.00
H164   H     0.44768   0.71015   0.23994   0.00000  Uiso   1.00
H165   H     0.26201   0.75934   0.05754   0.00000  Uiso   1.00
H166   H     0.08272   0.53695   0.36680   0.00000  Uiso   1.00
H167   H     0.59871   0.75268   0.31169   0.00000  Uiso   1.00
H168   H     0.20719   0.85641   0.92705   0.00000  Uiso   1.00
H169   H     0.22106   0.92925   0.33254   0.00000  Uiso   1.00
H170   H     0.11760   0.85097   0.41462   0.00000  Uiso   1.00
H171   H     0.36231   0.95328   0.38849   0.00000  Uiso   1.00
H172   H     0.17664   0.00247   0.20609   0.00000  Uiso   1.00
H173   H     0.01343   0.73428   0.48738   0.00000  Uiso   1.00
H174   H     0.52942   0.95002   0.43226   0.00000  Uiso   1.00
H175   H     0.13790   0.05374   0.04763   0.00000  Uiso   1.00
O176   O     0.98150   0.57996   0.47856   0.00000  Uiso   1.00
O177   O     0.65845   0.86300   0.40625   0.00000  Uiso   1.00
O178   O     0.14479   0.99909   0.90162   0.00000  Uiso   1.00
N179   N     0.08060   0.59414   0.38390   0.00000  Uiso   1.00
N180   N     0.56301   0.79583   0.33239   0.00000  Uiso   1.00
N181   N     0.19700   0.89281   0.97278   0.00000  Uiso   1.00
N182   N     0.04332   0.70032   0.44878   0.00000  Uiso   1.00
N183   N     0.52573   0.90201   0.39727   0.00000  Uiso   1.00
N184   N     0.15971   0.99900   0.03766   0.00000  Uiso   1.00
C185   C     0.74843   0.21656   0.72397   0.00000  Uiso   1.00
C186   C     0.76587   0.28158   0.78390   0.00000  Uiso   1.00
C187   C     0.83968   0.31547   0.79815   0.00000  Uiso   1.00
C188   C     0.84327   0.37410   0.85538   0.00000  Uiso   1.00
C189   C     0.88067   0.47141   0.94214   0.00000  Uiso   1.00
C190   C     0.71029   0.14862   0.76971   0.00000  Uiso   1.00
C191   C     0.73736   0.07073   0.77202   0.00000  Uiso   1.00
C192   C     0.69416   0.01743   0.81731   0.00000  Uiso   1.00
C193   C     0.64523   0.90831   0.88200   0.00000  Uiso   1.00
C194   C     0.68357   0.24951   0.67061   0.00000  Uiso   1.00
C195   C     0.68816   0.25642   0.58959   0.00000  Uiso   1.00
C196   C     0.62245   0.28805   0.55143   0.00000  Uiso   1.00
C197   C     0.53204   0.33557   0.46225   0.00000  Uiso   1.00
C198   C     0.62356   0.26040   0.80027   0.00000  Uiso   1.00
C199   C     0.69804   0.30539   0.82534   0.00000  Uiso   1.00
C200   C     0.70152   0.36398   0.88256   0.00000  Uiso   1.00
C201   C     0.77533   0.39796   0.89689   0.00000  Uiso   1.00
C202   C     0.64246   0.17244   0.81115   0.00000  Uiso   1.00
C203   C     0.59921   0.11924   0.85644   0.00000  Uiso   1.00
C204   C     0.62621   0.04129   0.85882   0.00000  Uiso   1.00
C205   C     0.61574   0.27333   0.71205   0.00000  Uiso   1.00
C206   C     0.55001   0.30494   0.67400   0.00000  Uiso   1.00
C207   C     0.55450   0.31190   0.59294   0.00000  Uiso   1.00
H208   H     0.80123   0.19801   0.69171   0.00000  Uiso   1.00
H209   H     0.89216   0.29702   0.76607   0.00000  Uiso   1.00
H210   H     0.78985   0.05232   0.73994   0.00000  Uiso   1.00
H211   H     0.74066   0.23799   0.55754   0.00000  Uiso   1.00
H212   H     0.96305   0.41728   0.86680   0.00000  Uiso   1.00
H213   H     0.74732   0.90129   0.81169   0.00000  Uiso   1.00
H214   H     0.64359   0.29281   0.42705   0.00000  Uiso   1.00
H215   H     0.57075   0.27894   0.83254   0.00000  Uiso   1.00
H216   H     0.64903   0.38240   0.91462   0.00000  Uiso   1.00
H217   H     0.54672   0.13769   0.88849   0.00000  Uiso   1.00
H218   H     0.49753   0.32336   0.70609   0.00000  Uiso   1.00
H219   H     0.76572   0.48657   0.98738   0.00000  Uiso   1.00
H220   H     0.54998   0.97058   0.93226   0.00000  Uiso   1.00
H221   H     0.44626   0.36210   0.54763   0.00000  Uiso   1.00
O222   O     0.92004   0.51850   0.97856   0.00000  Uiso   1.00
O223   O     0.63700   0.84155   0.90625   0.00000  Uiso   1.00
O224   O     0.50091   0.35521   0.40162   0.00000  Uiso   1.00
N225   N     0.90586   0.41940   0.88390   0.00000  Uiso   1.00
N226   N     0.70417   0.93699   0.83239   0.00000  Uiso   1.00
N227   N     0.60719   0.30300   0.47278   0.00000  Uiso   1.00
N228   N     0.79968   0.45668   0.94878   0.00000  Uiso   1.00
N229   N     0.59799   0.97427   0.89727   0.00000  Uiso   1.00
N230   N     0.50100   0.34029   0.53766   0.00000  Uiso   1.00
C231   C     0.25157   0.78344   0.72397   0.00000  Uiso   1.00
C232   C     0.23413   0.71842   0.78390   0.00000  Uiso   1.00
C233   C     0.16032   0.68453   0.79815   0.00000  Uiso   1.00
C234   C     0.15673   0.62590   0.85538   0.00000  Uiso   1.00
C235   C     0.11933   0.52859   0.94214   0.00000  Uiso   1.00
C236   C     0.28971   0.85138   0.76971   0.00000  Uiso   1.00
C237   C     0.26264   0.92927   0.77202   0.00000  Uiso   1.00
C238   C     0.30584   0.98257   0.81731   0.00000  Uiso   1.00
C239   C     0.35477   0.09169   0.88200   0.00000  Uiso   1.00
C240   C     0.31643   0.75049   0.67061   0.00000  Uiso   1.00
C241   C     0.31184   0.74358   0.58959   0.00000  Uiso   1.00
C242   C     0.37755   0.71195   0.55143   0.00000  Uiso   1.00
C243   C     0.46796   0.66443   0.46225   0.00000  Uiso   1.00
C244   C     0.37644   0.73960   0.80027   0.00000  Uiso   1.00
C245   C     0.30196   0.69461   0.82534   0.00000  Uiso   1.00
C246   C     0.29848   0.63602   0.88256   0.00000  Uiso   1.00
C247   C     0.22467   0.60204   0.89689   0.00000  Uiso   1.00
C248   C     0.35754   0.82756   0.81115   0.00000  Uiso   1.00
C249   C     0.40079   0.88076   0.85644   0.00000  Uiso   1.00
C250   C     0.37379   0.95871   0.85882   0.00000  Uiso   1.00
C251   C     0.38426   0.72667   0.71205   0.00000  Uiso   1.00
C252   C     0.44999   0.69506   0.67400   0.00000  Uiso   1.00
C253   C     0.44550   0.68810   0.59294   0.00000  Uiso   1.00
H254   H     0.19877   0.80199   0.69171   0.00000  Uiso   1.00
H255   H     0.10784   0.70298   0.76607   0.00000  Uiso   1.00
H256   H     0.21015   0.94768   0.73994   0.00000  Uiso   1.00
H257   H     0.25934   0.76201   0.55754   0.00000  Uiso   1.00
H258   H     0.03695   0.58272   0.86680   0.00000  Uiso   1.00
H259   H     0.25268   0.09871   0.81169   0.00000  Uiso   1.00
H260   H     0.35641   0.70719   0.42705   0.00000  Uiso   1.00
H261   H     0.42925   0.72106   0.83254   0.00000  Uiso   1.00
H262   H     0.35097   0.61760   0.91462   0.00000  Uiso   1.00
H263   H     0.45328   0.86231   0.88849   0.00000  Uiso   1.00
H264   H     0.50247   0.67664   0.70609   0.00000  Uiso   1.00
H265   H     0.23428   0.51343   0.98738   0.00000  Uiso   1.00
H266   H     0.45002   0.02942   0.93226   0.00000  Uiso   1.00
H267   H     0.55374   0.63790   0.54763   0.00000  Uiso   1.00
O268   O     0.07996   0.48150   0.97856   0.00000  Uiso   1.00
O269   O     0.36300   0.15845   0.90625   0.00000  Uiso   1.00
O270   O     0.49909   0.64479   0.40162   0.00000  Uiso   1.00
N271   N     0.09414   0.58060   0.88390   0.00000  Uiso   1.00
N272   N     0.29583   0.06301   0.83239   0.00000  Uiso   1.00
N273   N     0.39281   0.69700   0.47278   0.00000  Uiso   1.00
N274   N     0.20032   0.54332   0.94878   0.00000  Uiso   1.00
N275   N     0.40201   0.02573   0.89727   0.00000  Uiso   1.00
N276   N     0.49900   0.65971   0.53766   0.00000  Uiso   1.00
C277   C     0.78344   0.74843   0.27603   0.00000  Uiso   1.00
C278   C     0.71842   0.76587   0.21610   0.00000  Uiso   1.00
C279   C     0.68453   0.83968   0.20185   0.00000  Uiso   1.00
C280   C     0.62590   0.84327   0.14462   0.00000  Uiso   1.00
C281   C     0.52859   0.88067   0.05786   0.00000  Uiso   1.00
C282   C     0.85138   0.71029   0.23029   0.00000  Uiso   1.00
C283   C     0.92927   0.73736   0.22798   0.00000  Uiso   1.00
C284   C     0.98257   0.69416   0.18269   0.00000  Uiso   1.00
C285   C     0.09169   0.64523   0.11800   0.00000  Uiso   1.00
C286   C     0.75049   0.68357   0.32939   0.00000  Uiso   1.00
C287   C     0.74358   0.68816   0.41041   0.00000  Uiso   1.00
C288   C     0.71195   0.62245   0.44857   0.00000  Uiso   1.00
C289   C     0.66443   0.53204   0.53775   0.00000  Uiso   1.00
C290   C     0.73960   0.62356   0.19973   0.00000  Uiso   1.00
C291   C     0.69461   0.69804   0.17466   0.00000  Uiso   1.00
C292   C     0.63602   0.70152   0.11744   0.00000  Uiso   1.00
C293   C     0.60204   0.77533   0.10311   0.00000  Uiso   1.00
C294   C     0.82756   0.64246   0.18885   0.00000  Uiso   1.00
C295   C     0.88076   0.59921   0.14356   0.00000  Uiso   1.00
C296   C     0.95871   0.62621   0.14118   0.00000  Uiso   1.00
C297   C     0.72667   0.61574   0.28795   0.00000  Uiso   1.00
C298   C     0.69506   0.55001   0.32600   0.00000  Uiso   1.00
C299   C     0.68810   0.55450   0.40706   0.00000  Uiso   1.00
H300   H     0.80199   0.80123   0.30829   0.00000  Uiso   1.00
H301   H     0.70298   0.89216   0.23393   0.00000  Uiso   1.00
H302   H     0.94768   0.78985   0.26006   0.00000  Uiso   1.00
H303   H     0.76201   0.74066   0.44246   0.00000  Uiso   1.00
H304   H     0.58272   0.96305   0.13320   0.00000  Uiso   1.00
H305   H     0.09871   0.74732   0.18831   0.00000  Uiso   1.00
H306   H     0.70719   0.64359   0.57295   0.00000  Uiso   1.00
H307   H     0.72106   0.57075   0.16746   0.00000  Uiso   1.00
H308   H     0.61760   0.64903   0.08538   0.00000  Uiso   1.00
H309   H     0.86231   0.54672   0.11151   0.00000  Uiso   1.00
H310   H     0.67664   0.49753   0.29391   0.00000  Uiso   1.00
H311   H     0.51343   0.76572   0.01262   0.00000  Uiso   1.00
H312   H     0.02942   0.54998   0.06774   0.00000  Uiso   1.00
H313   H     0.63790   0.44626   0.45237   0.00000  Uiso   1.00
O314   O     0.48150   0.92004   0.02144   0.00000  Uiso   1.00
O315   O     0.15845   0.63700   0.09375   0.00000  Uiso   1.00
O316   O     0.64479   0.50091   0.59838   0.00000  Uiso   1.00
N317   N     0.58060   0.90586   0.11610   0.00000  Uiso   1.00
N318   N     0.06301   0.70417   0.16761   0.00000  Uiso   1.00
N319   N     0.69700   0.60719   0.52722   0.00000  Uiso   1.00
N320   N     0.54332   0.79968   0.05122   0.00000  Uiso   1.00
N321   N     0.02573   0.59799   0.10273   0.00000  Uiso   1.00
N322   N     0.65971   0.50100   0.46234   0.00000  Uiso   1.00
C323   C     0.21656   0.25157   0.27603   0.00000  Uiso   1.00
C324   C     0.28158   0.23413   0.21610   0.00000  Uiso   1.00
C325   C     0.31547   0.16032   0.20185   0.00000  Uiso   1.00
C326   C     0.37410   0.15673   0.14462   0.00000  Uiso   1.00
C327   C     0.47141   0.11933   0.05786   0.00000  Uiso   1.00
C328   C     0.14862   0.28971   0.23029   0.00000  Uiso   1.00
C329   C     0.07073   0.26264   0.22798   0.00000  Uiso   1.00
C330   C     0.01743   0.30584   0.18269   0.00000  Uiso   1.00
C331   C     0.90831   0.35477   0.11800   0.00000  Uiso   1.00
C332   C     0.24951   0.31643   0.32939   0.00000  Uiso   1.00
C333   C     0.25642   0.31184   0.41041   0.00000  Uiso   1.00
C334   C     0.28805   0.37755   0.44857   0.00000  Uiso   1.00
C335   C     0.33557   0.46796   0.53775   0.00000  Uiso   1.00
C336   C     0.26040   0.37644   0.19973   0.00000  Uiso   1.00
C337   C     0.30539   0.30196   0.17466   0.00000  Uiso   1.00
C338   C     0.36398   0.29848   0.11744   0.00000  Uiso   1.00
C339   C     0.39796   0.22467   0.10311   0.00000  Uiso   1.00
C340   C     0.17244   0.35754   0.18885   0.00000  Uiso   1.00
C341   C     0.11924   0.40079   0.14356   0.00000  Uiso   1.00
C342   C     0.04129   0.37379   0.14118   0.00000  Uiso   1.00
C343   C     0.27333   0.38426   0.28795   0.00000  Uiso   1.00
C344   C     0.30494   0.44999   0.32600   0.00000  Uiso   1.00
C345   C     0.31190   0.44550   0.40706   0.00000  Uiso   1.00
H346   H     0.19801   0.19877   0.30829   0.00000  Uiso   1.00
H347   H     0.29702   0.10784   0.23393   0.00000  Uiso   1.00
H348   H     0.05232   0.21015   0.26006   0.00000  Uiso   1.00
H349   H     0.23799   0.25934   0.44246   0.00000  Uiso   1.00
H350   H     0.41728   0.03695   0.13320   0.00000  Uiso   1.00
H351   H     0.90129   0.25268   0.18831   0.00000  Uiso   1.00
H352   H     0.29281   0.35641   0.57295   0.00000  Uiso   1.00
H353   H     0.27894   0.42925   0.16746   0.00000  Uiso   1.00
H354   H     0.38240   0.35097   0.08538   0.00000  Uiso   1.00
H355   H     0.13769   0.45328   0.11151   0.00000  Uiso   1.00
H356   H     0.32336   0.50247   0.29391   0.00000  Uiso   1.00
H357   H     0.48657   0.23428   0.01262   0.00000  Uiso   1.00
H358   H     0.97058   0.45002   0.06774   0.00000  Uiso   1.00
H359   H     0.36210   0.55374   0.45237   0.00000  Uiso   1.00
O360   O     0.51850   0.07996   0.02144   0.00000  Uiso   1.00
O361   O     0.84155   0.36300   0.09375   0.00000  Uiso   1.00
O362   O     0.35521   0.49909   0.59838   0.00000  Uiso   1.00
N363   N     0.41940   0.09414   0.11610   0.00000  Uiso   1.00
N364   N     0.93699   0.29583   0.16761   0.00000  Uiso   1.00
N365   N     0.30300   0.39281   0.52722   0.00000  Uiso   1.00
N366   N     0.45668   0.20032   0.05122   0.00000  Uiso   1.00
N367   N     0.97427   0.40201   0.10273   0.00000  Uiso   1.00
N368   N     0.34029   0.49900   0.46234   0.00000  Uiso   1.00
