data_job_04763
_audit_creation_date              2018-12-19
_audit_creation_method            'Materials Studio'
_symmetry_space_group_name_H-M    'P1'
_symmetry_Int_Tables_number       1
_symmetry_cell_setting            triclinic
loop_
_symmetry_equiv_pos_as_xyz
  x,y,z
_cell_length_a                    12.2110
_cell_length_b                    24.2848
_cell_length_c                    14.8226
_cell_angle_alpha                 90.0000
_cell_angle_beta                  145.9340
_cell_angle_gamma                 90.0000
loop_
_atom_site_label
_atom_site_type_symbol
_atom_site_fract_x
_atom_site_fract_y
_atom_site_fract_z
_atom_site_U_iso_or_equiv
_atom_site_adp_type
_atom_site_occupancy
C1     C     0.64595   0.07743   0.89824   0.00000  Uiso   1.00
C2     C     0.76812   0.10127   0.90494   0.00000  Uiso   1.00
C3     C     0.97080   0.10180   0.03910   0.00000  Uiso   1.00
C4     C     0.05493   0.12554   0.02065   0.00000  Uiso   1.00
C5     C     0.26207   0.15917   0.05349   0.00000  Uiso   1.00
C6     C     0.51477   0.12414   0.84132   0.00000  Uiso   1.00
C7     C     0.50443   0.14390   0.92200   0.00000  Uiso   1.00
C8     C     0.37525   0.18688   0.84998   0.00000  Uiso   1.00
C9     C     0.18896   0.25600   0.78400   0.00000  Uiso   1.00
C10    C     0.51033   0.03513   0.76252   0.00000  Uiso   1.00
C11    C     0.49620   0.98004   0.77691   0.00000  Uiso   1.00
C12    C     0.36324   0.94809   0.63853   0.00000  Uiso   1.00
C13    C     0.17005   0.87901   0.45019   0.00000  Uiso   1.00
C14    C     0.43491   0.11865   0.62689   0.00000  Uiso   1.00
C15    C     0.65349   0.12366   0.75755   0.00000  Uiso   1.00
C16    C     0.73732   0.14740   0.73889   0.00000  Uiso   1.00
C17    C     0.94010   0.14797   0.87300   0.00000  Uiso   1.00
C18    C     0.40015   0.14653   0.69394   0.00000  Uiso   1.00
C19    C     0.27095   0.18950   0.62178   0.00000  Uiso   1.00
C20    C     0.26042   0.20931   0.70233   0.00000  Uiso   1.00
C21    C     0.39570   0.05752   0.61513   0.00000  Uiso   1.00
C22    C     0.26273   0.02565   0.47670   0.00000  Uiso   1.00
C23    C     0.24841   0.97052   0.49088   0.00000  Uiso   1.00
H24    H     0.73518   0.06000   0.01298   0.00000  Uiso   1.00
H25    H     0.05946   0.08447   0.15315   0.00000  Uiso   1.00
H26    H     0.59314   0.12656   0.03604   0.00000  Uiso   1.00
H27    H     0.58492   0.96273   0.89098   0.00000  Uiso   1.00
H28    H     0.36844   0.12149   0.24356   0.00000  Uiso   1.00
H29    H     0.38512   0.21022   0.99662   0.00000  Uiso   1.00
H30    H     0.36779   0.86476   0.69072   0.00000  Uiso   1.00
H31    H     0.34566   0.13608   0.51214   0.00000  Uiso   1.00
H32    H     0.64858   0.16473   0.62482   0.00000  Uiso   1.00
H33    H     0.18226   0.20681   0.50772   0.00000  Uiso   1.00
H34    H     0.17405   0.04299   0.36266   0.00000  Uiso   1.00
H35    H     0.03496   0.18663   0.81475   0.00000  Uiso   1.00
H36    H     0.05163   0.27536   0.56781   0.00000  Uiso   1.00
H37    H     0.03431   0.92990   0.26192   0.00000  Uiso   1.00
O38    O     0.40799   0.17155   0.11233   0.00000  Uiso   1.00
O39    O     0.11789   0.28795   0.78834   0.00000  Uiso   1.00
O40    O     0.09517   0.83471   0.38702   0.00000  Uiso   1.00
N41    N     0.24838   0.13288   0.12716   0.00000  Uiso   1.00
N42    N     0.32906   0.21584   0.89630   0.00000  Uiso   1.00
N43    N     0.31282   0.89287   0.61031   0.00000  Uiso   1.00
N44    N     0.06894   0.16793   0.89643   0.00000  Uiso   1.00
N45    N     0.14962   0.25089   0.66557   0.00000  Uiso   1.00
N46    N     0.13338   0.92792   0.37957   0.00000  Uiso   1.00
C47    C     0.35405   0.57743   0.60176   0.00000  Uiso   1.00
C48    C     0.23188   0.60127   0.59506   0.00000  Uiso   1.00
C49    C     0.02920   0.60180   0.46090   0.00000  Uiso   1.00
C50    C     0.94507   0.62554   0.47935   0.00000  Uiso   1.00
C51    C     0.73793   0.65917   0.44651   0.00000  Uiso   1.00
C52    C     0.48523   0.62414   0.65868   0.00000  Uiso   1.00
C53    C     0.49557   0.64390   0.57800   0.00000  Uiso   1.00
C54    C     0.62475   0.68688   0.65002   0.00000  Uiso   1.00
C55    C     0.81104   0.75600   0.71600   0.00000  Uiso   1.00
C56    C     0.48967   0.53513   0.73748   0.00000  Uiso   1.00
C57    C     0.50380   0.48004   0.72309   0.00000  Uiso   1.00
C58    C     0.63676   0.44809   0.86147   0.00000  Uiso   1.00
C59    C     0.82995   0.37901   0.04981   0.00000  Uiso   1.00
C60    C     0.56509   0.61865   0.87311   0.00000  Uiso   1.00
C61    C     0.34651   0.62366   0.74245   0.00000  Uiso   1.00
C62    C     0.26268   0.64740   0.76111   0.00000  Uiso   1.00
C63    C     0.05990   0.64797   0.62700   0.00000  Uiso   1.00
C64    C     0.59985   0.64653   0.80606   0.00000  Uiso   1.00
C65    C     0.72905   0.68950   0.87822   0.00000  Uiso   1.00
C66    C     0.73958   0.70931   0.79767   0.00000  Uiso   1.00
C67    C     0.60430   0.55752   0.88487   0.00000  Uiso   1.00
C68    C     0.73727   0.52565   0.02330   0.00000  Uiso   1.00
C69    C     0.75159   0.47052   0.00912   0.00000  Uiso   1.00
H70    H     0.26482   0.56000   0.48702   0.00000  Uiso   1.00
H71    H     0.94054   0.58447   0.34685   0.00000  Uiso   1.00
H72    H     0.40686   0.62656   0.46396   0.00000  Uiso   1.00
H73    H     0.41508   0.46273   0.60902   0.00000  Uiso   1.00
H74    H     0.63156   0.62149   0.25644   0.00000  Uiso   1.00
H75    H     0.61488   0.71022   0.50338   0.00000  Uiso   1.00
H76    H     0.63221   0.36476   0.80928   0.00000  Uiso   1.00
H77    H     0.65434   0.63608   0.98786   0.00000  Uiso   1.00
H78    H     0.35142   0.66473   0.87518   0.00000  Uiso   1.00
H79    H     0.81774   0.70681   0.99228   0.00000  Uiso   1.00
H80    H     0.82595   0.54299   0.13734   0.00000  Uiso   1.00
H81    H     0.96504   0.68663   0.68525   0.00000  Uiso   1.00
H82    H     0.94837   0.77536   0.93219   0.00000  Uiso   1.00
H83    H     0.96569   0.42990   0.23808   0.00000  Uiso   1.00
O84    O     0.59201   0.67155   0.38767   0.00000  Uiso   1.00
O85    O     0.88211   0.78795   0.71166   0.00000  Uiso   1.00
O86    O     0.90483   0.33471   0.11298   0.00000  Uiso   1.00
N87    N     0.75162   0.63288   0.37284   0.00000  Uiso   1.00
N88    N     0.67094   0.71584   0.60370   0.00000  Uiso   1.00
N89    N     0.68718   0.39287   0.88969   0.00000  Uiso   1.00
N90    N     0.93106   0.66793   0.60357   0.00000  Uiso   1.00
N91    N     0.85038   0.75089   0.83443   0.00000  Uiso   1.00
N92    N     0.86662   0.42792   0.12043   0.00000  Uiso   1.00
C93    C     0.35405   0.92257   0.10176   0.00000  Uiso   1.00
C94    C     0.23188   0.89873   0.09506   0.00000  Uiso   1.00
C95    C     0.02920   0.89820   0.96090   0.00000  Uiso   1.00
C96    C     0.94507   0.87446   0.97935   0.00000  Uiso   1.00
C97    C     0.73793   0.84083   0.94651   0.00000  Uiso   1.00
C98    C     0.48523   0.87586   0.15868   0.00000  Uiso   1.00
C99    C     0.49557   0.85610   0.07800   0.00000  Uiso   1.00
C100   C     0.62475   0.81312   0.15002   0.00000  Uiso   1.00
C101   C     0.81104   0.74400   0.21600   0.00000  Uiso   1.00
C102   C     0.48967   0.96487   0.23748   0.00000  Uiso   1.00
C103   C     0.50380   0.01996   0.22309   0.00000  Uiso   1.00
C104   C     0.63676   0.05191   0.36147   0.00000  Uiso   1.00
C105   C     0.82995   0.12099   0.54981   0.00000  Uiso   1.00
C106   C     0.56509   0.88135   0.37311   0.00000  Uiso   1.00
C107   C     0.34651   0.87634   0.24245   0.00000  Uiso   1.00
C108   C     0.26268   0.85260   0.26111   0.00000  Uiso   1.00
C109   C     0.05990   0.85203   0.12700   0.00000  Uiso   1.00
C110   C     0.59985   0.85347   0.30606   0.00000  Uiso   1.00
C111   C     0.72905   0.81050   0.37822   0.00000  Uiso   1.00
C112   C     0.73958   0.79069   0.29767   0.00000  Uiso   1.00
C113   C     0.60430   0.94248   0.38487   0.00000  Uiso   1.00
C114   C     0.73727   0.97435   0.52330   0.00000  Uiso   1.00
C115   C     0.75159   0.02948   0.50912   0.00000  Uiso   1.00
H116   H     0.26482   0.94000   0.98702   0.00000  Uiso   1.00
H117   H     0.94054   0.91553   0.84685   0.00000  Uiso   1.00
H118   H     0.40686   0.87344   0.96396   0.00000  Uiso   1.00
H119   H     0.41508   0.03727   0.10902   0.00000  Uiso   1.00
H120   H     0.63156   0.87851   0.75644   0.00000  Uiso   1.00
H121   H     0.61488   0.78978   0.00338   0.00000  Uiso   1.00
H122   H     0.63221   0.13524   0.30928   0.00000  Uiso   1.00
H123   H     0.65434   0.86392   0.48786   0.00000  Uiso   1.00
H124   H     0.35142   0.83527   0.37518   0.00000  Uiso   1.00
H125   H     0.81774   0.79319   0.49228   0.00000  Uiso   1.00
H126   H     0.82595   0.95701   0.63734   0.00000  Uiso   1.00
H127   H     0.96504   0.81337   0.18525   0.00000  Uiso   1.00
H128   H     0.94837   0.72464   0.43219   0.00000  Uiso   1.00
H129   H     0.96569   0.07010   0.73808   0.00000  Uiso   1.00
O130   O     0.59201   0.82845   0.88767   0.00000  Uiso   1.00
O131   O     0.88211   0.71205   0.21166   0.00000  Uiso   1.00
O132   O     0.90483   0.16529   0.61298   0.00000  Uiso   1.00
N133   N     0.75162   0.86712   0.87284   0.00000  Uiso   1.00
N134   N     0.67094   0.78416   0.10370   0.00000  Uiso   1.00
N135   N     0.68718   0.10713   0.38969   0.00000  Uiso   1.00
N136   N     0.93106   0.83207   0.10357   0.00000  Uiso   1.00
N137   N     0.85038   0.74911   0.33443   0.00000  Uiso   1.00
N138   N     0.86662   0.07208   0.62043   0.00000  Uiso   1.00
C139   C     0.64595   0.42257   0.39824   0.00000  Uiso   1.00
C140   C     0.76812   0.39873   0.40494   0.00000  Uiso   1.00
C141   C     0.97080   0.39820   0.53910   0.00000  Uiso   1.00
C142   C     0.05493   0.37446   0.52065   0.00000  Uiso   1.00
C143   C     0.26207   0.34083   0.55349   0.00000  Uiso   1.00
C144   C     0.51477   0.37586   0.34132   0.00000  Uiso   1.00
C145   C     0.50443   0.35610   0.42200   0.00000  Uiso   1.00
C146   C     0.37525   0.31312   0.34998   0.00000  Uiso   1.00
C147   C     0.18896   0.24400   0.28400   0.00000  Uiso   1.00
C148   C     0.51033   0.46487   0.26252   0.00000  Uiso   1.00
C149   C     0.49620   0.51996   0.27691   0.00000  Uiso   1.00
C150   C     0.36324   0.55191   0.13853   0.00000  Uiso   1.00
C151   C     0.17005   0.62099   0.95019   0.00000  Uiso   1.00
C152   C     0.43491   0.38135   0.12689   0.00000  Uiso   1.00
C153   C     0.65349   0.37634   0.25755   0.00000  Uiso   1.00
C154   C     0.73732   0.35260   0.23889   0.00000  Uiso   1.00
C155   C     0.94010   0.35203   0.37300   0.00000  Uiso   1.00
C156   C     0.40015   0.35347   0.19394   0.00000  Uiso   1.00
C157   C     0.27095   0.31050   0.12178   0.00000  Uiso   1.00
C158   C     0.26042   0.29069   0.20233   0.00000  Uiso   1.00
C159   C     0.39570   0.44248   0.11513   0.00000  Uiso   1.00
C160   C     0.26273   0.47435   0.97670   0.00000  Uiso   1.00
C161   C     0.24841   0.52948   0.99088   0.00000  Uiso   1.00
H162   H     0.73518   0.44000   0.51298   0.00000  Uiso   1.00
H163   H     0.05946   0.41553   0.65315   0.00000  Uiso   1.00
H164   H     0.59314   0.37344   0.53604   0.00000  Uiso   1.00
H165   H     0.58492   0.53727   0.39098   0.00000  Uiso   1.00
H166   H     0.36844   0.37851   0.74356   0.00000  Uiso   1.00
H167   H     0.38512   0.28978   0.49662   0.00000  Uiso   1.00
H168   H     0.36779   0.63524   0.19072   0.00000  Uiso   1.00
H169   H     0.34566   0.36392   0.01214   0.00000  Uiso   1.00
H170   H     0.64858   0.33527   0.12482   0.00000  Uiso   1.00
H171   H     0.18226   0.29319   0.00772   0.00000  Uiso   1.00
H172   H     0.17405   0.45701   0.86266   0.00000  Uiso   1.00
H173   H     0.03496   0.31337   0.31475   0.00000  Uiso   1.00
H174   H     0.05163   0.22464   0.06781   0.00000  Uiso   1.00
H175   H     0.03431   0.57010   0.76192   0.00000  Uiso   1.00
O176   O     0.40799   0.32845   0.61233   0.00000  Uiso   1.00
O177   O     0.11789   0.21205   0.28834   0.00000  Uiso   1.00
O178   O     0.09517   0.66529   0.88702   0.00000  Uiso   1.00
N179   N     0.24838   0.36712   0.62716   0.00000  Uiso   1.00
N180   N     0.32906   0.28416   0.39630   0.00000  Uiso   1.00
N181   N     0.31282   0.60713   0.11031   0.00000  Uiso   1.00
N182   N     0.06894   0.33207   0.39643   0.00000  Uiso   1.00
N183   N     0.14962   0.24911   0.16557   0.00000  Uiso   1.00
N184   N     0.13338   0.57208   0.87957   0.00000  Uiso   1.00
