data_job_02083
_audit_creation_date              2018-12-19
_audit_creation_method            'Materials Studio'
_symmetry_space_group_name_H-M    'P1'
_symmetry_Int_Tables_number       1
_symmetry_cell_setting            triclinic
loop_
_symmetry_equiv_pos_as_xyz
  x,y,z
_cell_length_a                    14.0799
_cell_length_b                    9.7828
_cell_length_c                    38.5740
_cell_angle_alpha                 90.0000
_cell_angle_beta                  90.0000
_cell_angle_gamma                 90.0000
loop_
_atom_site_label
_atom_site_type_symbol
_atom_site_fract_x
_atom_site_fract_y
_atom_site_fract_z
_atom_site_U_iso_or_equiv
_atom_site_adp_type
_atom_site_occupancy
C1     C     0.05756   0.47345   0.10034   0.00000  Uiso   1.00
C2     C     0.08814   0.43866   0.13722   0.00000  Uiso   1.00
C3     C     0.05447   0.33019   0.15688   0.00000  Uiso   1.00
C4     C     0.09135   0.31573   0.19006   0.00000  Uiso   1.00
C5     C     0.12850   0.24785   0.24535   0.00000  Uiso   1.00
C6     C     0.14827   0.47557   0.07875   0.00000  Uiso   1.00
C7     C     0.16515   0.39814   0.04924   0.00000  Uiso   1.00
C8     C     0.25265   0.41478   0.03319   0.00000  Uiso   1.00
C9     C     0.38314   0.40427   0.99767   0.00000  Uiso   1.00
C10    C     0.02221   0.62072   0.10147   0.00000  Uiso   1.00
C11    C     0.93310   0.66535   0.09106   0.00000  Uiso   1.00
C12    C     0.91448   0.80419   0.09413   0.00000  Uiso   1.00
C13    C     0.84923   0.01905   0.09390   0.00000  Uiso   1.00
C14    C     0.18295   0.64068   0.12431   0.00000  Uiso   1.00
C15    C     0.15624   0.52949   0.15024   0.00000  Uiso   1.00
C16    C     0.19319   0.51520   0.18340   0.00000  Uiso   1.00
C17    C     0.15957   0.40673   0.20310   0.00000  Uiso   1.00
C18    C     0.21638   0.56640   0.09176   0.00000  Uiso   1.00
C19    C     0.30387   0.58316   0.07575   0.00000  Uiso   1.00
C20    C     0.32088   0.50577   0.04623   0.00000  Uiso   1.00
C21    C     0.09031   0.71155   0.11449   0.00000  Uiso   1.00
C22    C     0.07183   0.85036   0.11758   0.00000  Uiso   1.00
C23    C     0.98270   0.89519   0.10717   0.00000  Uiso   1.00
H24    H     0.00454   0.40274   0.09020   0.00000  Uiso   1.00
H25    H     0.00177   0.25991   0.14680   0.00000  Uiso   1.00
H26    H     0.11243   0.32787   0.03917   0.00000  Uiso   1.00
H27    H     0.88042   0.59503   0.08099   0.00000  Uiso   1.00
H28    H     0.02875   0.14158   0.21528   0.00000  Uiso   1.00
H29    H     0.26207   0.28492   0.98833   0.00000  Uiso   1.00
H30    H     0.77283   0.84827   0.07651   0.00000  Uiso   1.00
H31    H     0.23597   0.71140   0.13444   0.00000  Uiso   1.00
H32    H     0.24589   0.58551   0.19346   0.00000  Uiso   1.00
H33    H     0.35656   0.65347   0.08583   0.00000  Uiso   1.00
H34    H     0.12454   0.92062   0.12765   0.00000  Uiso   1.00
H35    H     0.22689   0.40585   0.25315   0.00000  Uiso   1.00
H36    H     0.46022   0.54918   0.02620   0.00000  Uiso   1.00
H37    H     0.97097   0.11254   0.11438   0.00000  Uiso   1.00
O38    O     0.13019   0.18530   0.27224   0.00000  Uiso   1.00
O39    O     0.43630   0.37337   0.97448   0.00000  Uiso   1.00
O40    O     0.79442   0.11247   0.09018   0.00000  Uiso   1.00
N41    N     0.07400   0.22107   0.21610   0.00000  Uiso   1.00
N42    N     0.29216   0.35506   0.00391   0.00000  Uiso   1.00
N43    N     0.83476   0.88176   0.08635   0.00000  Uiso   1.00
N44    N     0.18062   0.36327   0.23648   0.00000  Uiso   1.00
N45    N     0.39878   0.49726   0.02429   0.00000  Uiso   1.00
N46    N     0.94138   0.02396   0.10673   0.00000  Uiso   1.00
C47    C     0.44244   0.02655   0.60034   0.00000  Uiso   1.00
C48    C     0.41186   0.06134   0.63722   0.00000  Uiso   1.00
C49    C     0.44553   0.16981   0.65688   0.00000  Uiso   1.00
C50    C     0.40865   0.18427   0.69006   0.00000  Uiso   1.00
C51    C     0.37150   0.25215   0.74535   0.00000  Uiso   1.00
C52    C     0.35173   0.02443   0.57875   0.00000  Uiso   1.00
C53    C     0.33485   0.10186   0.54924   0.00000  Uiso   1.00
C54    C     0.24735   0.08522   0.53319   0.00000  Uiso   1.00
C55    C     0.11686   0.09573   0.49767   0.00000  Uiso   1.00
C56    C     0.47779   0.87928   0.60147   0.00000  Uiso   1.00
C57    C     0.56690   0.83465   0.59106   0.00000  Uiso   1.00
C58    C     0.58552   0.69581   0.59413   0.00000  Uiso   1.00
C59    C     0.65077   0.48095   0.59390   0.00000  Uiso   1.00
C60    C     0.31705   0.85932   0.62431   0.00000  Uiso   1.00
C61    C     0.34376   0.97051   0.65024   0.00000  Uiso   1.00
C62    C     0.30681   0.98480   0.68340   0.00000  Uiso   1.00
C63    C     0.34043   0.09327   0.70310   0.00000  Uiso   1.00
C64    C     0.28362   0.93360   0.59176   0.00000  Uiso   1.00
C65    C     0.19613   0.91684   0.57575   0.00000  Uiso   1.00
C66    C     0.17912   0.99423   0.54623   0.00000  Uiso   1.00
C67    C     0.40969   0.78845   0.61449   0.00000  Uiso   1.00
C68    C     0.42817   0.64964   0.61758   0.00000  Uiso   1.00
C69    C     0.51730   0.60481   0.60717   0.00000  Uiso   1.00
H70    H     0.49546   0.09726   0.59020   0.00000  Uiso   1.00
H71    H     0.49823   0.24009   0.64680   0.00000  Uiso   1.00
H72    H     0.38757   0.17213   0.53917   0.00000  Uiso   1.00
H73    H     0.61958   0.90497   0.58099   0.00000  Uiso   1.00
H74    H     0.47125   0.35842   0.71528   0.00000  Uiso   1.00
H75    H     0.23793   0.21508   0.48833   0.00000  Uiso   1.00
H76    H     0.72717   0.65173   0.57651   0.00000  Uiso   1.00
H77    H     0.26403   0.78860   0.63444   0.00000  Uiso   1.00
H78    H     0.25411   0.91449   0.69346   0.00000  Uiso   1.00
H79    H     0.14344   0.84653   0.58583   0.00000  Uiso   1.00
H80    H     0.37546   0.57938   0.62765   0.00000  Uiso   1.00
H81    H     0.27311   0.09415   0.75315   0.00000  Uiso   1.00
H82    H     0.03978   0.95082   0.52620   0.00000  Uiso   1.00
H83    H     0.52903   0.38746   0.61438   0.00000  Uiso   1.00
O84    O     0.36981   0.31470   0.77224   0.00000  Uiso   1.00
O85    O     0.06370   0.12663   0.47448   0.00000  Uiso   1.00
O86    O     0.70558   0.38753   0.59018   0.00000  Uiso   1.00
N87    N     0.42600   0.27893   0.71610   0.00000  Uiso   1.00
N88    N     0.20784   0.14494   0.50391   0.00000  Uiso   1.00
N89    N     0.66524   0.61824   0.58635   0.00000  Uiso   1.00
N90    N     0.31938   0.13673   0.73648   0.00000  Uiso   1.00
N91    N     0.10122   0.00274   0.52429   0.00000  Uiso   1.00
N92    N     0.55862   0.47604   0.60673   0.00000  Uiso   1.00
C93    C     0.94244   0.47345   0.39966   0.00000  Uiso   1.00
C94    C     0.91186   0.43866   0.36278   0.00000  Uiso   1.00
C95    C     0.94553   0.33019   0.34312   0.00000  Uiso   1.00
C96    C     0.90865   0.31573   0.30994   0.00000  Uiso   1.00
C97    C     0.87150   0.24785   0.25465   0.00000  Uiso   1.00
C98    C     0.85173   0.47557   0.42125   0.00000  Uiso   1.00
C99    C     0.83485   0.39814   0.45076   0.00000  Uiso   1.00
C100   C     0.74735   0.41478   0.46681   0.00000  Uiso   1.00
C101   C     0.61686   0.40427   0.50233   0.00000  Uiso   1.00
C102   C     0.97779   0.62072   0.39853   0.00000  Uiso   1.00
C103   C     0.06690   0.66535   0.40894   0.00000  Uiso   1.00
C104   C     0.08552   0.80419   0.40587   0.00000  Uiso   1.00
C105   C     0.15077   0.01905   0.40610   0.00000  Uiso   1.00
C106   C     0.81705   0.64068   0.37569   0.00000  Uiso   1.00
C107   C     0.84376   0.52949   0.34976   0.00000  Uiso   1.00
C108   C     0.80681   0.51520   0.31660   0.00000  Uiso   1.00
C109   C     0.84043   0.40673   0.29690   0.00000  Uiso   1.00
C110   C     0.78362   0.56640   0.40824   0.00000  Uiso   1.00
C111   C     0.69613   0.58316   0.42425   0.00000  Uiso   1.00
C112   C     0.67912   0.50577   0.45377   0.00000  Uiso   1.00
C113   C     0.90969   0.71155   0.38551   0.00000  Uiso   1.00
C114   C     0.92817   0.85036   0.38242   0.00000  Uiso   1.00
C115   C     0.01730   0.89519   0.39283   0.00000  Uiso   1.00
H116   H     0.99546   0.40274   0.40980   0.00000  Uiso   1.00
H117   H     0.99823   0.25991   0.35320   0.00000  Uiso   1.00
H118   H     0.88757   0.32787   0.46083   0.00000  Uiso   1.00
H119   H     0.11958   0.59503   0.41901   0.00000  Uiso   1.00
H120   H     0.97125   0.14158   0.28472   0.00000  Uiso   1.00
H121   H     0.73793   0.28492   0.51167   0.00000  Uiso   1.00
H122   H     0.22717   0.84827   0.42349   0.00000  Uiso   1.00
H123   H     0.76403   0.71140   0.36556   0.00000  Uiso   1.00
H124   H     0.75411   0.58551   0.30654   0.00000  Uiso   1.00
H125   H     0.64344   0.65347   0.41417   0.00000  Uiso   1.00
H126   H     0.87546   0.92062   0.37235   0.00000  Uiso   1.00
H127   H     0.77311   0.40585   0.24685   0.00000  Uiso   1.00
H128   H     0.53978   0.54918   0.47380   0.00000  Uiso   1.00
H129   H     0.02903   0.11254   0.38562   0.00000  Uiso   1.00
O130   O     0.86981   0.18530   0.22776   0.00000  Uiso   1.00
O131   O     0.56370   0.37337   0.52552   0.00000  Uiso   1.00
O132   O     0.20558   0.11247   0.40982   0.00000  Uiso   1.00
N133   N     0.92600   0.22107   0.28390   0.00000  Uiso   1.00
N134   N     0.70784   0.35506   0.49609   0.00000  Uiso   1.00
N135   N     0.16524   0.88176   0.41365   0.00000  Uiso   1.00
N136   N     0.81938   0.36327   0.26352   0.00000  Uiso   1.00
N137   N     0.60122   0.49726   0.47571   0.00000  Uiso   1.00
N138   N     0.05862   0.02396   0.39327   0.00000  Uiso   1.00
C139   C     0.55756   0.02655   0.89966   0.00000  Uiso   1.00
C140   C     0.58814   0.06134   0.86278   0.00000  Uiso   1.00
C141   C     0.55447   0.16981   0.84312   0.00000  Uiso   1.00
C142   C     0.59135   0.18427   0.80994   0.00000  Uiso   1.00
C143   C     0.62850   0.25215   0.75465   0.00000  Uiso   1.00
C144   C     0.64827   0.02443   0.92125   0.00000  Uiso   1.00
C145   C     0.66515   0.10186   0.95076   0.00000  Uiso   1.00
C146   C     0.75265   0.08522   0.96681   0.00000  Uiso   1.00
C147   C     0.88314   0.09573   0.00233   0.00000  Uiso   1.00
C148   C     0.52221   0.87928   0.89853   0.00000  Uiso   1.00
C149   C     0.43310   0.83465   0.90894   0.00000  Uiso   1.00
C150   C     0.41448   0.69581   0.90587   0.00000  Uiso   1.00
C151   C     0.34923   0.48095   0.90610   0.00000  Uiso   1.00
C152   C     0.68295   0.85932   0.87569   0.00000  Uiso   1.00
C153   C     0.65624   0.97051   0.84976   0.00000  Uiso   1.00
C154   C     0.69319   0.98480   0.81660   0.00000  Uiso   1.00
C155   C     0.65957   0.09327   0.79690   0.00000  Uiso   1.00
C156   C     0.71638   0.93360   0.90824   0.00000  Uiso   1.00
C157   C     0.80387   0.91684   0.92425   0.00000  Uiso   1.00
C158   C     0.82088   0.99423   0.95377   0.00000  Uiso   1.00
C159   C     0.59031   0.78845   0.88551   0.00000  Uiso   1.00
C160   C     0.57183   0.64964   0.88242   0.00000  Uiso   1.00
C161   C     0.48270   0.60481   0.89283   0.00000  Uiso   1.00
H162   H     0.50454   0.09726   0.90980   0.00000  Uiso   1.00
H163   H     0.50177   0.24009   0.85320   0.00000  Uiso   1.00
H164   H     0.61243   0.17213   0.96083   0.00000  Uiso   1.00
H165   H     0.38042   0.90497   0.91901   0.00000  Uiso   1.00
H166   H     0.52875   0.35842   0.78472   0.00000  Uiso   1.00
H167   H     0.76207   0.21508   0.01167   0.00000  Uiso   1.00
H168   H     0.27283   0.65173   0.92349   0.00000  Uiso   1.00
H169   H     0.73597   0.78860   0.86556   0.00000  Uiso   1.00
H170   H     0.74589   0.91449   0.80654   0.00000  Uiso   1.00
H171   H     0.85656   0.84653   0.91417   0.00000  Uiso   1.00
H172   H     0.62454   0.57938   0.87235   0.00000  Uiso   1.00
H173   H     0.72689   0.09415   0.74685   0.00000  Uiso   1.00
H174   H     0.96022   0.95082   0.97380   0.00000  Uiso   1.00
H175   H     0.47097   0.38746   0.88562   0.00000  Uiso   1.00
O176   O     0.63019   0.31470   0.72776   0.00000  Uiso   1.00
O177   O     0.93630   0.12663   0.02552   0.00000  Uiso   1.00
O178   O     0.29442   0.38753   0.90982   0.00000  Uiso   1.00
N179   N     0.57400   0.27893   0.78390   0.00000  Uiso   1.00
N180   N     0.79216   0.14494   0.99609   0.00000  Uiso   1.00
N181   N     0.33476   0.61824   0.91365   0.00000  Uiso   1.00
N182   N     0.68062   0.13673   0.76352   0.00000  Uiso   1.00
N183   N     0.89878   0.00274   0.97571   0.00000  Uiso   1.00
N184   N     0.44138   0.47604   0.89327   0.00000  Uiso   1.00
C185   C     0.94244   0.52655   0.89966   0.00000  Uiso   1.00
C186   C     0.91186   0.56134   0.86278   0.00000  Uiso   1.00
C187   C     0.94553   0.66981   0.84312   0.00000  Uiso   1.00
C188   C     0.90865   0.68427   0.80994   0.00000  Uiso   1.00
C189   C     0.87150   0.75215   0.75465   0.00000  Uiso   1.00
C190   C     0.85173   0.52443   0.92125   0.00000  Uiso   1.00
C191   C     0.83485   0.60186   0.95076   0.00000  Uiso   1.00
C192   C     0.74735   0.58522   0.96681   0.00000  Uiso   1.00
C193   C     0.61686   0.59573   0.00233   0.00000  Uiso   1.00
C194   C     0.97779   0.37928   0.89853   0.00000  Uiso   1.00
C195   C     0.06690   0.33465   0.90894   0.00000  Uiso   1.00
C196   C     0.08552   0.19581   0.90587   0.00000  Uiso   1.00
C197   C     0.15077   0.98095   0.90610   0.00000  Uiso   1.00
C198   C     0.81705   0.35932   0.87569   0.00000  Uiso   1.00
C199   C     0.84376   0.47051   0.84976   0.00000  Uiso   1.00
C200   C     0.80681   0.48480   0.81660   0.00000  Uiso   1.00
C201   C     0.84043   0.59327   0.79690   0.00000  Uiso   1.00
C202   C     0.78362   0.43360   0.90824   0.00000  Uiso   1.00
C203   C     0.69613   0.41684   0.92425   0.00000  Uiso   1.00
C204   C     0.67912   0.49423   0.95377   0.00000  Uiso   1.00
C205   C     0.90969   0.28845   0.88551   0.00000  Uiso   1.00
C206   C     0.92817   0.14964   0.88242   0.00000  Uiso   1.00
C207   C     0.01730   0.10481   0.89283   0.00000  Uiso   1.00
H208   H     0.99546   0.59726   0.90980   0.00000  Uiso   1.00
H209   H     0.99823   0.74009   0.85320   0.00000  Uiso   1.00
H210   H     0.88757   0.67213   0.96083   0.00000  Uiso   1.00
H211   H     0.11958   0.40497   0.91901   0.00000  Uiso   1.00
H212   H     0.97125   0.85842   0.78472   0.00000  Uiso   1.00
H213   H     0.73793   0.71508   0.01167   0.00000  Uiso   1.00
H214   H     0.22717   0.15173   0.92349   0.00000  Uiso   1.00
H215   H     0.76403   0.28860   0.86556   0.00000  Uiso   1.00
H216   H     0.75411   0.41449   0.80654   0.00000  Uiso   1.00
H217   H     0.64344   0.34653   0.91417   0.00000  Uiso   1.00
H218   H     0.87546   0.07938   0.87235   0.00000  Uiso   1.00
H219   H     0.77311   0.59415   0.74685   0.00000  Uiso   1.00
H220   H     0.53978   0.45082   0.97380   0.00000  Uiso   1.00
H221   H     0.02903   0.88746   0.88562   0.00000  Uiso   1.00
O222   O     0.86981   0.81470   0.72776   0.00000  Uiso   1.00
O223   O     0.56370   0.62663   0.02552   0.00000  Uiso   1.00
O224   O     0.20558   0.88753   0.90982   0.00000  Uiso   1.00
N225   N     0.92600   0.77893   0.78390   0.00000  Uiso   1.00
N226   N     0.70784   0.64494   0.99609   0.00000  Uiso   1.00
N227   N     0.16524   0.11824   0.91365   0.00000  Uiso   1.00
N228   N     0.81938   0.63673   0.76352   0.00000  Uiso   1.00
N229   N     0.60122   0.50274   0.97571   0.00000  Uiso   1.00
N230   N     0.05862   0.97604   0.89327   0.00000  Uiso   1.00
C231   C     0.55756   0.97345   0.39966   0.00000  Uiso   1.00
C232   C     0.58814   0.93866   0.36278   0.00000  Uiso   1.00
C233   C     0.55447   0.83019   0.34312   0.00000  Uiso   1.00
C234   C     0.59135   0.81573   0.30994   0.00000  Uiso   1.00
C235   C     0.62850   0.74785   0.25465   0.00000  Uiso   1.00
C236   C     0.64827   0.97557   0.42125   0.00000  Uiso   1.00
C237   C     0.66515   0.89814   0.45076   0.00000  Uiso   1.00
C238   C     0.75265   0.91478   0.46681   0.00000  Uiso   1.00
C239   C     0.88314   0.90427   0.50233   0.00000  Uiso   1.00
C240   C     0.52221   0.12072   0.39853   0.00000  Uiso   1.00
C241   C     0.43310   0.16535   0.40894   0.00000  Uiso   1.00
C242   C     0.41448   0.30419   0.40587   0.00000  Uiso   1.00
C243   C     0.34923   0.51905   0.40610   0.00000  Uiso   1.00
C244   C     0.68295   0.14068   0.37569   0.00000  Uiso   1.00
C245   C     0.65624   0.02949   0.34976   0.00000  Uiso   1.00
C246   C     0.69319   0.01520   0.31660   0.00000  Uiso   1.00
C247   C     0.65957   0.90673   0.29690   0.00000  Uiso   1.00
C248   C     0.71638   0.06640   0.40824   0.00000  Uiso   1.00
C249   C     0.80387   0.08316   0.42425   0.00000  Uiso   1.00
C250   C     0.82088   0.00577   0.45377   0.00000  Uiso   1.00
C251   C     0.59031   0.21155   0.38551   0.00000  Uiso   1.00
C252   C     0.57183   0.35036   0.38242   0.00000  Uiso   1.00
C253   C     0.48270   0.39519   0.39283   0.00000  Uiso   1.00
H254   H     0.50454   0.90274   0.40980   0.00000  Uiso   1.00
H255   H     0.50177   0.75991   0.35320   0.00000  Uiso   1.00
H256   H     0.61243   0.82787   0.46083   0.00000  Uiso   1.00
H257   H     0.38042   0.09503   0.41901   0.00000  Uiso   1.00
H258   H     0.52875   0.64158   0.28472   0.00000  Uiso   1.00
H259   H     0.76207   0.78492   0.51167   0.00000  Uiso   1.00
H260   H     0.27283   0.34827   0.42349   0.00000  Uiso   1.00
H261   H     0.73597   0.21140   0.36556   0.00000  Uiso   1.00
H262   H     0.74589   0.08551   0.30654   0.00000  Uiso   1.00
H263   H     0.85656   0.15347   0.41417   0.00000  Uiso   1.00
H264   H     0.62454   0.42062   0.37235   0.00000  Uiso   1.00
H265   H     0.72689   0.90585   0.24685   0.00000  Uiso   1.00
H266   H     0.96022   0.04918   0.47380   0.00000  Uiso   1.00
H267   H     0.47097   0.61254   0.38562   0.00000  Uiso   1.00
O268   O     0.63019   0.68530   0.22776   0.00000  Uiso   1.00
O269   O     0.93630   0.87337   0.52552   0.00000  Uiso   1.00
O270   O     0.29442   0.61247   0.40982   0.00000  Uiso   1.00
N271   N     0.57400   0.72107   0.28390   0.00000  Uiso   1.00
N272   N     0.79216   0.85506   0.49609   0.00000  Uiso   1.00
N273   N     0.33476   0.38176   0.41365   0.00000  Uiso   1.00
N274   N     0.68062   0.86327   0.26352   0.00000  Uiso   1.00
N275   N     0.89878   0.99726   0.47571   0.00000  Uiso   1.00
N276   N     0.44138   0.52396   0.39327   0.00000  Uiso   1.00
C277   C     0.05756   0.52655   0.60034   0.00000  Uiso   1.00
C278   C     0.08814   0.56134   0.63722   0.00000  Uiso   1.00
C279   C     0.05447   0.66981   0.65688   0.00000  Uiso   1.00
C280   C     0.09135   0.68427   0.69006   0.00000  Uiso   1.00
C281   C     0.12850   0.75215   0.74535   0.00000  Uiso   1.00
C282   C     0.14827   0.52443   0.57875   0.00000  Uiso   1.00
C283   C     0.16515   0.60186   0.54924   0.00000  Uiso   1.00
C284   C     0.25265   0.58522   0.53319   0.00000  Uiso   1.00
C285   C     0.38314   0.59573   0.49767   0.00000  Uiso   1.00
C286   C     0.02221   0.37928   0.60147   0.00000  Uiso   1.00
C287   C     0.93310   0.33465   0.59106   0.00000  Uiso   1.00
C288   C     0.91448   0.19581   0.59413   0.00000  Uiso   1.00
C289   C     0.84923   0.98095   0.59390   0.00000  Uiso   1.00
C290   C     0.18295   0.35932   0.62431   0.00000  Uiso   1.00
C291   C     0.15624   0.47051   0.65024   0.00000  Uiso   1.00
C292   C     0.19319   0.48480   0.68340   0.00000  Uiso   1.00
C293   C     0.15957   0.59327   0.70310   0.00000  Uiso   1.00
C294   C     0.21638   0.43360   0.59176   0.00000  Uiso   1.00
C295   C     0.30387   0.41684   0.57575   0.00000  Uiso   1.00
C296   C     0.32088   0.49423   0.54623   0.00000  Uiso   1.00
C297   C     0.09031   0.28845   0.61449   0.00000  Uiso   1.00
C298   C     0.07183   0.14964   0.61758   0.00000  Uiso   1.00
C299   C     0.98270   0.10481   0.60717   0.00000  Uiso   1.00
H300   H     0.00454   0.59726   0.59020   0.00000  Uiso   1.00
H301   H     0.00177   0.74009   0.64680   0.00000  Uiso   1.00
H302   H     0.11243   0.67213   0.53917   0.00000  Uiso   1.00
H303   H     0.88042   0.40497   0.58099   0.00000  Uiso   1.00
H304   H     0.02875   0.85842   0.71528   0.00000  Uiso   1.00
H305   H     0.26207   0.71508   0.48833   0.00000  Uiso   1.00
H306   H     0.77283   0.15173   0.57651   0.00000  Uiso   1.00
H307   H     0.23597   0.28860   0.63444   0.00000  Uiso   1.00
H308   H     0.24589   0.41449   0.69346   0.00000  Uiso   1.00
H309   H     0.35656   0.34653   0.58583   0.00000  Uiso   1.00
H310   H     0.12454   0.07938   0.62765   0.00000  Uiso   1.00
H311   H     0.22689   0.59415   0.75315   0.00000  Uiso   1.00
H312   H     0.46022   0.45082   0.52620   0.00000  Uiso   1.00
H313   H     0.97097   0.88746   0.61438   0.00000  Uiso   1.00
O314   O     0.13019   0.81470   0.77224   0.00000  Uiso   1.00
O315   O     0.43630   0.62663   0.47448   0.00000  Uiso   1.00
O316   O     0.79442   0.88753   0.59018   0.00000  Uiso   1.00
N317   N     0.07400   0.77893   0.71610   0.00000  Uiso   1.00
N318   N     0.29216   0.64494   0.50391   0.00000  Uiso   1.00
N319   N     0.83476   0.11824   0.58635   0.00000  Uiso   1.00
N320   N     0.18062   0.63673   0.73648   0.00000  Uiso   1.00
N321   N     0.39878   0.50274   0.52429   0.00000  Uiso   1.00
N322   N     0.94138   0.97604   0.60673   0.00000  Uiso   1.00
C323   C     0.44244   0.97345   0.10034   0.00000  Uiso   1.00
C324   C     0.41186   0.93866   0.13722   0.00000  Uiso   1.00
C325   C     0.44553   0.83019   0.15688   0.00000  Uiso   1.00
C326   C     0.40865   0.81573   0.19006   0.00000  Uiso   1.00
C327   C     0.37150   0.74785   0.24535   0.00000  Uiso   1.00
C328   C     0.35173   0.97557   0.07875   0.00000  Uiso   1.00
C329   C     0.33485   0.89814   0.04924   0.00000  Uiso   1.00
C330   C     0.24735   0.91478   0.03319   0.00000  Uiso   1.00
C331   C     0.11686   0.90427   0.99767   0.00000  Uiso   1.00
C332   C     0.47779   0.12072   0.10147   0.00000  Uiso   1.00
C333   C     0.56690   0.16535   0.09106   0.00000  Uiso   1.00
C334   C     0.58552   0.30419   0.09413   0.00000  Uiso   1.00
C335   C     0.65077   0.51905   0.09390   0.00000  Uiso   1.00
C336   C     0.31705   0.14068   0.12431   0.00000  Uiso   1.00
C337   C     0.34376   0.02949   0.15024   0.00000  Uiso   1.00
C338   C     0.30681   0.01520   0.18340   0.00000  Uiso   1.00
C339   C     0.34043   0.90673   0.20310   0.00000  Uiso   1.00
C340   C     0.28362   0.06640   0.09176   0.00000  Uiso   1.00
C341   C     0.19613   0.08316   0.07575   0.00000  Uiso   1.00
C342   C     0.17912   0.00577   0.04623   0.00000  Uiso   1.00
C343   C     0.40969   0.21155   0.11449   0.00000  Uiso   1.00
C344   C     0.42817   0.35036   0.11758   0.00000  Uiso   1.00
C345   C     0.51730   0.39519   0.10717   0.00000  Uiso   1.00
H346   H     0.49546   0.90274   0.09020   0.00000  Uiso   1.00
H347   H     0.49823   0.75991   0.14680   0.00000  Uiso   1.00
H348   H     0.38757   0.82787   0.03917   0.00000  Uiso   1.00
H349   H     0.61958   0.09503   0.08099   0.00000  Uiso   1.00
H350   H     0.47125   0.64158   0.21528   0.00000  Uiso   1.00
H351   H     0.23793   0.78492   0.98833   0.00000  Uiso   1.00
H352   H     0.72717   0.34827   0.07651   0.00000  Uiso   1.00
H353   H     0.26403   0.21140   0.13444   0.00000  Uiso   1.00
H354   H     0.25411   0.08551   0.19346   0.00000  Uiso   1.00
H355   H     0.14344   0.15347   0.08583   0.00000  Uiso   1.00
H356   H     0.37546   0.42062   0.12765   0.00000  Uiso   1.00
H357   H     0.27311   0.90585   0.25315   0.00000  Uiso   1.00
H358   H     0.03978   0.04918   0.02620   0.00000  Uiso   1.00
H359   H     0.52903   0.61254   0.11438   0.00000  Uiso   1.00
O360   O     0.36981   0.68530   0.27224   0.00000  Uiso   1.00
O361   O     0.06370   0.87337   0.97448   0.00000  Uiso   1.00
O362   O     0.70558   0.61247   0.09018   0.00000  Uiso   1.00
N363   N     0.42600   0.72107   0.21610   0.00000  Uiso   1.00
N364   N     0.20784   0.85506   0.00391   0.00000  Uiso   1.00
N365   N     0.66524   0.38176   0.08635   0.00000  Uiso   1.00
N366   N     0.31938   0.86327   0.23648   0.00000  Uiso   1.00
N367   N     0.10122   0.99726   0.02429   0.00000  Uiso   1.00
N368   N     0.55862   0.52396   0.10673   0.00000  Uiso   1.00
