data_job_06744
_audit_creation_date              2018-12-19
_audit_creation_method            'Materials Studio'
_symmetry_space_group_name_H-M    'P1'
_symmetry_Int_Tables_number       1
_symmetry_cell_setting            triclinic
loop_
_symmetry_equiv_pos_as_xyz
  x,y,z
_cell_length_a                    20.3415
_cell_length_b                    17.2637
_cell_length_c                    23.8496
_cell_angle_alpha                 69.2271
_cell_angle_beta                  97.0271
_cell_angle_gamma                 88.9247
loop_
_atom_site_label
_atom_site_type_symbol
_atom_site_fract_x
_atom_site_fract_y
_atom_site_fract_z
_atom_site_U_iso_or_equiv
_atom_site_adp_type
_atom_site_occupancy
C1     C     0.09782   0.70847   0.06080   0.00000  Uiso   1.00
C2     C     0.16060   0.68599   0.03935   0.00000  Uiso   1.00
C3     C     0.16410   0.67784   0.98394   0.00000  Uiso   1.00
C4     C     0.22619   0.65689   0.97289   0.00000  Uiso   1.00
C5     C     0.31508   0.62382   0.93308   0.00000  Uiso   1.00
C6     C     0.09217   0.63856   0.12054   0.00000  Uiso   1.00
C7     C     0.03813   0.59054   0.13340   0.00000  Uiso   1.00
C8     C     0.04261   0.52966   0.19070   0.00000  Uiso   1.00
C9     C     0.02523   0.42300   0.27695   0.00000  Uiso   1.00
C10    C     0.11200   0.78527   0.07660   0.00000  Uiso   1.00
C11    C     0.07461   0.86061   0.05251   0.00000  Uiso   1.00
C12    C     0.09578   0.92325   0.07283   0.00000  Uiso   1.00
C13    C     0.10918   0.04439   0.09085   0.00000  Uiso   1.00
C14    C     0.20188   0.68574   0.13972   0.00000  Uiso   1.00
C15    C     0.21713   0.67364   0.08222   0.00000  Uiso   1.00
C16    C     0.27923   0.65269   0.07125   0.00000  Uiso   1.00
C17    C     0.28282   0.64452   0.01583   0.00000  Uiso   1.00
C18    C     0.14869   0.62621   0.16341   0.00000  Uiso   1.00
C19    C     0.15326   0.56539   0.22071   0.00000  Uiso   1.00
C20    C     0.09924   0.51729   0.23365   0.00000  Uiso   1.00
C21    C     0.16852   0.77293   0.11947   0.00000  Uiso   1.00
C22    C     0.18975   0.83546   0.13983   0.00000  Uiso   1.00
C23    C     0.15240   0.91088   0.11578   0.00000  Uiso   1.00
H24    H     0.05381   0.71808   0.02743   0.00000  Uiso   1.00
H25    H     0.12034   0.68739   0.95078   0.00000  Uiso   1.00
H26    H     0.99439   0.60012   0.10022   0.00000  Uiso   1.00
H27    H     0.03087   0.87014   0.01934   0.00000  Uiso   1.00
H28    H     0.21903   0.64791   0.88471   0.00000  Uiso   1.00
H29    H     0.95344   0.46389   0.19981   0.00000  Uiso   1.00
H30    H     0.03037   0.03330   0.02928   0.00000  Uiso   1.00
H31    H     0.24589   0.67612   0.17310   0.00000  Uiso   1.00
H32    H     0.32296   0.64314   0.10444   0.00000  Uiso   1.00
H33    H     0.19701   0.55586   0.25387   0.00000  Uiso   1.00
H34    H     0.23349   0.82589   0.17300   0.00000  Uiso   1.00
H35    H     0.38348   0.61198   0.00942   0.00000  Uiso   1.00
H36    H     0.11789   0.42797   0.32453   0.00000  Uiso   1.00
H37    H     0.19482   0.99737   0.15399   0.00000  Uiso   1.00
O38    O     0.34849   0.60898   0.89928   0.00000  Uiso   1.00
O39    O     0.00003   0.36757   0.31268   0.00000  Uiso   1.00
O40    O     0.10097   0.11461   0.08894   0.00000  Uiso   1.00
N41    N     0.24716   0.64399   0.92348   0.00000  Uiso   1.00
N42    N     0.99885   0.47194   0.21808   0.00000  Uiso   1.00
N43    N     0.07076   0.00428   0.05865   0.00000  Uiso   1.00
N44    N     0.33565   0.62467   0.99058   0.00000  Uiso   1.00
N45    N     0.08734   0.45261   0.28518   0.00000  Uiso   1.00
N46    N     0.15925   0.98495   0.12576   0.00000  Uiso   1.00
C47    C     0.16385   0.03200   0.92628   0.00000  Uiso   1.00
C48    C     0.12709   0.11626   0.89050   0.00000  Uiso   1.00
C49    C     0.06649   0.14349   0.90045   0.00000  Uiso   1.00
C50    C     0.04111   0.22259   0.86283   0.00000  Uiso   1.00
C51    C     0.97884   0.34579   0.81424   0.00000  Uiso   1.00
C52    C     0.17501   0.99260   0.87993   0.00000  Uiso   1.00
C53    C     0.15471   0.91584   0.88099   0.00000  Uiso   1.00
C54    C     0.16967   0.89084   0.83446   0.00000  Uiso   1.00
C55    C     0.18183   0.82203   0.76948   0.00000  Uiso   1.00
C56    C     0.23240   0.05024   0.95047   0.00000  Uiso   1.00
C57    C     0.26036   0.02195   0.01086   0.00000  Uiso   1.00
C58    C     0.32365   0.04547   0.02372   0.00000  Uiso   1.00
C59    C     0.42493   0.06616   0.06828   0.00000  Uiso   1.00
C60    C     0.22654   0.12407   0.84176   0.00000  Uiso   1.00
C61    C     0.16115   0.16626   0.84460   0.00000  Uiso   1.00
C62    C     0.13585   0.24534   0.80695   0.00000  Uiso   1.00
C63    C     0.07522   0.27268   0.81684   0.00000  Uiso   1.00
C64    C     0.20906   0.04260   0.83402   0.00000  Uiso   1.00
C65    C     0.22406   0.01770   0.78748   0.00000  Uiso   1.00
C66    C     0.20378   0.94094   0.78847   0.00000  Uiso   1.00
C67    C     0.26645   0.10025   0.90457   0.00000  Uiso   1.00
C68    C     0.32972   0.12381   0.91734   0.00000  Uiso   1.00
C69    C     0.35777   0.09556   0.97773   0.00000  Uiso   1.00
H70    H     0.13734   0.99307   0.96201   0.00000  Uiso   1.00
H71    H     0.04015   0.10477   0.93598   0.00000  Uiso   1.00
H72    H     0.12836   0.87716   0.91652   0.00000  Uiso   1.00
H73    H     0.23400   0.98325   0.04637   0.00000  Uiso   1.00
H74    H     0.94741   0.25064   0.88686   0.00000  Uiso   1.00
H75    H     0.13342   0.77071   0.84585   0.00000  Uiso   1.00
H76    H     0.35618   0.99442   0.11965   0.00000  Uiso   1.00
H77    H     0.25305   0.16300   0.80602   0.00000  Uiso   1.00
H78    H     0.16221   0.28402   0.77142   0.00000  Uiso   1.00
H79    H     0.25042   0.05641   0.75197   0.00000  Uiso   1.00
H80    H     0.35605   0.16251   0.88181   0.00000  Uiso   1.00
H81    H     0.04647   0.39613   0.75330   0.00000  Uiso   1.00
H82    H     0.23248   0.91619   0.71228   0.00000  Uiso   1.00
H83    H     0.45524   0.13991   0.98608   0.00000  Uiso   1.00
O84    O     0.93508   0.39992   0.80012   0.00000  Uiso   1.00
O85    O     0.17913   0.77026   0.74632   0.00000  Uiso   1.00
O86    O     0.47138   0.06377   0.10554   0.00000  Uiso   1.00
N87    N     0.98319   0.26828   0.86018   0.00000  Uiso   1.00
N88    N     0.15709   0.81958   0.82183   0.00000  Uiso   1.00
N89    N     0.36536   0.02871   0.07781   0.00000  Uiso   1.00
N90    N     0.03650   0.34657   0.78831   0.00000  Uiso   1.00
N91    N     0.21040   0.89786   0.74996   0.00000  Uiso   1.00
N92    N     0.41867   0.10700   0.00594   0.00000  Uiso   1.00
C93    C     0.87319   0.85475   0.28681   0.00000  Uiso   1.00
C94    C     0.83011   0.82915   0.33760   0.00000  Uiso   1.00
C95    C     0.82224   0.74828   0.37479   0.00000  Uiso   1.00
C96    C     0.78064   0.73785   0.41858   0.00000  Uiso   1.00
C97    C     0.71865   0.68775   0.49646   0.00000  Uiso   1.00
C98    C     0.82722   0.90680   0.22971   0.00000  Uiso   1.00
C99    C     0.81694   0.89123   0.17618   0.00000  Uiso   1.00
C100   C     0.77292   0.94618   0.12914   0.00000  Uiso   1.00
C101   C     0.70651   0.01666   0.03950   0.00000  Uiso   1.00
C102   C     0.92120   0.91415   0.30109   0.00000  Uiso   1.00
C103   C     0.98994   0.90477   0.30757   0.00000  Uiso   1.00
C104   C     0.02504   0.96591   0.32062   0.00000  Uiso   1.00
C105   C     0.10454   0.04780   0.34181   0.00000  Uiso   1.00
C106   C     0.81331   0.98002   0.29845   0.00000  Uiso   1.00
C107   C     0.79758   0.89719   0.34392   0.00000  Uiso   1.00
C108   C     0.75598   0.88688   0.38767   0.00000  Uiso   1.00
C109   C     0.74805   0.80602   0.42491   0.00000  Uiso   1.00
C110   C     0.79470   0.97484   0.23603   0.00000  Uiso   1.00
C111   C     0.75068   0.02983   0.18905   0.00000  Uiso   1.00
C112   C     0.74033   0.01434   0.13547   0.00000  Uiso   1.00
C113   C     0.88868   0.98219   0.30742   0.00000  Uiso   1.00
C114   C     0.92368   0.04336   0.32045   0.00000  Uiso   1.00
C115   C     0.99246   0.03408   0.32695   0.00000  Uiso   1.00
H116   H     0.89851   0.80178   0.28189   0.00000  Uiso   1.00
H117   H     0.84741   0.69564   0.36988   0.00000  Uiso   1.00
H118   H     0.84213   0.83857   0.17130   0.00000  Uiso   1.00
H119   H     0.01509   0.85210   0.30268   0.00000  Uiso   1.00
H120   H     0.77639   0.60798   0.47021   0.00000  Uiso   1.00
H121   H     0.76526   0.90937   0.05148   0.00000  Uiso   1.00
H122   H     0.13000   0.93791   0.32851   0.00000  Uiso   1.00
H123   H     0.78798   0.03300   0.30337   0.00000  Uiso   1.00
H124   H     0.73081   0.93955   0.39254   0.00000  Uiso   1.00
H125   H     0.72552   0.08248   0.19396   0.00000  Uiso   1.00
H126   H     0.89849   0.09601   0.32534   0.00000  Uiso   1.00
H127   H     0.68175   0.80594   0.48860   0.00000  Uiso   1.00
H128   H     0.67062   0.10733   0.06987   0.00000  Uiso   1.00
H129   H     0.03536   0.13587   0.34690   0.00000  Uiso   1.00
O130   O     0.69344   0.64131   0.53767   0.00000  Uiso   1.00
O131   O     0.67885   0.03673   0.98831   0.00000  Uiso   1.00
O132   O     0.15738   0.07417   0.35177   0.00000  Uiso   1.00
N133   N     0.76198   0.66739   0.46231   0.00000  Uiso   1.00
N134   N     0.75156   0.94917   0.07082   0.00000  Uiso   1.00
N135   N     0.09256   0.97586   0.32981   0.00000  Uiso   1.00
N136   N     0.71105   0.77392   0.47221   0.00000  Uiso   1.00
N137   N     0.70064   0.05569   0.08072   0.00000  Uiso   1.00
N138   N     0.04164   0.08238   0.33971   0.00000  Uiso   1.00
C139   C     0.62093   0.34785   0.35827   0.00000  Uiso   1.00
C140   C     0.69525   0.32991   0.36135   0.00000  Uiso   1.00
C141   C     0.72690   0.25236   0.37451   0.00000  Uiso   1.00
C142   C     0.79524   0.24897   0.37511   0.00000  Uiso   1.00
C143   C     0.90524   0.21023   0.38170   0.00000  Uiso   1.00
C144   C     0.59825   0.41221   0.29540   0.00000  Uiso   1.00
C145   C     0.54835   0.40385   0.25313   0.00000  Uiso   1.00
C146   C     0.53503   0.46976   0.19821   0.00000  Uiso   1.00
C147   C     0.49442   0.55882   0.10245   0.00000  Uiso   1.00
C148   C     0.61390   0.39181   0.40273   0.00000  Uiso   1.00
C149   C     0.57714   0.36632   0.45070   0.00000  Uiso   1.00
C150   C     0.57698   0.41506   0.48614   0.00000  Uiso   1.00
C151   C     0.56067   0.47244   0.55703   0.00000  Uiso   1.00
C152   C     0.68601   0.47976   0.33592   0.00000  Uiso   1.00
C153   C     0.73059   0.40157   0.34920   0.00000  Uiso   1.00
C154   C     0.79890   0.39830   0.34978   0.00000  Uiso   1.00
C155   C     0.83065   0.32075   0.36295   0.00000  Uiso   1.00
C156   C     0.63360   0.48386   0.28326   0.00000  Uiso   1.00
C157   C     0.62035   0.54980   0.22840   0.00000  Uiso   1.00
C158   C     0.57045   0.54154   0.18605   0.00000  Uiso   1.00
C159   C     0.64925   0.46346   0.39060   0.00000  Uiso   1.00
C160   C     0.64915   0.51226   0.42597   0.00000  Uiso   1.00
C161   C     0.61240   0.48684   0.47398   0.00000  Uiso   1.00
H162   H     0.59341   0.29207   0.36772   0.00000  Uiso   1.00
H163   H     0.69952   0.19692   0.38390   0.00000  Uiso   1.00
H164   H     0.52100   0.34840   0.26254   0.00000  Uiso   1.00
H165   H     0.54979   0.31087   0.46008   0.00000  Uiso   1.00
H166   H     0.83275   0.12304   0.39647   0.00000  Uiso   1.00
H167   H     0.45631   0.44245   0.14057   0.00000  Uiso   1.00
H168   H     0.51702   0.36330   0.55713   0.00000  Uiso   1.00
H169   H     0.71354   0.53555   0.32646   0.00000  Uiso   1.00
H170   H     0.82625   0.45376   0.34038   0.00000  Uiso   1.00
H171   H     0.64772   0.60524   0.21902   0.00000  Uiso   1.00
H172   H     0.67651   0.56770   0.41656   0.00000  Uiso   1.00
H173   H     0.93561   0.33150   0.36114   0.00000  Uiso   1.00
H174   H     0.55916   0.65091   0.10525   0.00000  Uiso   1.00
H175   H     0.61987   0.57176   0.52181   0.00000  Uiso   1.00
O176   O     0.95615   0.16907   0.38869   0.00000  Uiso   1.00
O177   O     0.46226   0.58814   0.05297   0.00000  Uiso   1.00
O178   O     0.54191   0.48429   0.59948   0.00000  Uiso   1.00
N179   N     0.84150   0.18332   0.38625   0.00000  Uiso   1.00
N180   N     0.48955   0.48195   0.14701   0.00000  Uiso   1.00
N181   N     0.54629   0.40796   0.53644   0.00000  Uiso   1.00
N182   N     0.89684   0.29549   0.36725   0.00000  Uiso   1.00
N183   N     0.54489   0.59412   0.12800   0.00000  Uiso   1.00
N184   N     0.60163   0.52013   0.51744   0.00000  Uiso   1.00
C185   C     0.65483   0.24677   0.66121   0.00000  Uiso   1.00
C186   C     0.63452   0.22019   0.72446   0.00000  Uiso   1.00
C187   C     0.58050   0.25394   0.74037   0.00000  Uiso   1.00
C188   C     0.57031   0.22103   0.80060   0.00000  Uiso   1.00
C189   C     0.53231   0.18951   0.89231   0.00000  Uiso   1.00
C190   C     0.65692   0.16860   0.64546   0.00000  Uiso   1.00
C191   C     0.62174   0.15900   0.59494   0.00000  Uiso   1.00
C192   C     0.63042   0.08266   0.58867   0.00000  Uiso   1.00
C193   C     0.62723   0.97107   0.55771   0.00000  Uiso   1.00
C194   C     0.72648   0.27034   0.66762   0.00000  Uiso   1.00
C195   C     0.74981   0.34626   0.63572   0.00000  Uiso   1.00
C196   C     0.81707   0.35557   0.64810   0.00000  Uiso   1.00
C197   C     0.92189   0.40194   0.65154   0.00000  Uiso   1.00
C198   C     0.73280   0.12830   0.73988   0.00000  Uiso   1.00
C199   C     0.67687   0.15583   0.76719   0.00000  Uiso   1.00
C200   C     0.66677   0.12286   0.82741   0.00000  Uiso   1.00
C201   C     0.61274   0.15656   0.84341   0.00000  Uiso   1.00
C202   C     0.69927   0.10425   0.68819   0.00000  Uiso   1.00
C203   C     0.70801   0.02791   0.68199   0.00000  Uiso   1.00
C204   C     0.67285   0.01819   0.63148   0.00000  Uiso   1.00
C205   C     0.76884   0.20598   0.71035   0.00000  Uiso   1.00
C206   C     0.83607   0.21518   0.72277   0.00000  Uiso   1.00
C207   C     0.85949   0.29110   0.69091   0.00000  Uiso   1.00
H208   H     0.62186   0.29687   0.62794   0.00000  Uiso   1.00
H209   H     0.54773   0.30374   0.70728   0.00000  Uiso   1.00
H210   H     0.58897   0.20881   0.56188   0.00000  Uiso   1.00
H211   H     0.71702   0.39604   0.60266   0.00000  Uiso   1.00
H212   H     0.48421   0.28295   0.81410   0.00000  Uiso   1.00
H213   H     0.57119   0.08280   0.50750   0.00000  Uiso   1.00
H214   H     0.84120   0.47762   0.59348   0.00000  Uiso   1.00
H215   H     0.76578   0.07819   0.77315   0.00000  Uiso   1.00
H216   H     0.69955   0.07306   0.86047   0.00000  Uiso   1.00
H217   H     0.74079   0.97813   0.71506   0.00000  Uiso   1.00
H218   H     0.86883   0.16536   0.75584   0.00000  Uiso   1.00
H219   H     0.60743   0.09572   0.93843   0.00000  Uiso   1.00
H220   H     0.69441   0.89557   0.63182   0.00000  Uiso   1.00
H221   H     0.96442   0.29039   0.71781   0.00000  Uiso   1.00
O222   O     0.49965   0.18989   0.93108   0.00000  Uiso   1.00
O223   O     0.61376   0.92730   0.52882   0.00000  Uiso   1.00
O224   O     0.96801   0.44529   0.64164   0.00000  Uiso   1.00
N225   N     0.52231   0.23960   0.83138   0.00000  Uiso   1.00
N226   N     0.60362   0.05247   0.54473   0.00000  Uiso   1.00
N227   N     0.85606   0.42158   0.62511   0.00000  Uiso   1.00
N228   N     0.58861   0.13886   0.89828   0.00000  Uiso   1.00
N229   N     0.66992   0.95172   0.61163   0.00000  Uiso   1.00
N230   N     0.92236   0.32084   0.69201   0.00000  Uiso   1.00
C231   C     0.38395   0.67585   0.50000   0.00000  Uiso   1.00
C232   C     0.34707   0.75344   0.45224   0.00000  Uiso   1.00
C233   C     0.33996   0.77250   0.39009   0.00000  Uiso   1.00
C234   C     0.30442   0.84647   0.35401   0.00000  Uiso   1.00
C235   C     0.25130   0.95887   0.27602   0.00000  Uiso   1.00
C236   C     0.33404   0.63434   0.54226   0.00000  Uiso   1.00
C237   C     0.31598   0.55326   0.55581   0.00000  Uiso   1.00
C238   C     0.26948   0.52698   0.59551   0.00000  Uiso   1.00
C239   C     0.19616   0.45447   0.65731   0.00000  Uiso   1.00
C240   C     0.43615   0.70656   0.53732   0.00000  Uiso   1.00
C241   C     0.50395   0.68618   0.54672   0.00000  Uiso   1.00
C242   C     0.54341   0.72068   0.58227   0.00000  Uiso   1.00
C243   C     0.62864   0.76029   0.63639   0.00000  Uiso   1.00
C244   C     0.33348   0.77333   0.54643   0.00000  Uiso   1.00
C245   C     0.31966   0.80638   0.47746   0.00000  Uiso   1.00
C246   C     0.28412   0.88035   0.44147   0.00000  Uiso   1.00
C247   C     0.27696   0.89952   0.37927   0.00000  Uiso   1.00
C248   C     0.30663   0.68729   0.56748   0.00000  Uiso   1.00
C249   C     0.26015   0.66112   0.60718   0.00000  Uiso   1.00
C250   C     0.24202   0.58002   0.62078   0.00000  Uiso   1.00
C251   C     0.40874   0.75951   0.56254   0.00000  Uiso   1.00
C252   C     0.44811   0.79404   0.59809   0.00000  Uiso   1.00
C253   C     0.51595   0.77372   0.60754   0.00000  Uiso   1.00
H254   H     0.40529   0.63462   0.48037   0.00000  Uiso   1.00
H255   H     0.36117   0.73150   0.37059   0.00000  Uiso   1.00
H256   H     0.33721   0.51230   0.53629   0.00000  Uiso   1.00
H257   H     0.52514   0.64520   0.52719   0.00000  Uiso   1.00
H258   H     0.30015   0.86224   0.26001   0.00000  Uiso   1.00
H259   H     0.24964   0.40004   0.60940   0.00000  Uiso   1.00
H260   H     0.64593   0.68029   0.59023   0.00000  Uiso   1.00
H261   H     0.31214   0.81455   0.56607   0.00000  Uiso   1.00
H262   H     0.26292   0.92131   0.46100   0.00000  Uiso   1.00
H263   H     0.23895   0.70211   0.62669   0.00000  Uiso   1.00
H264   H     0.42688   0.83501   0.61760   0.00000  Uiso   1.00
H265   H     0.22040   0.01630   0.33339   0.00000  Uiso   1.00
H266   H     0.16989   0.55410   0.68278   0.00000  Uiso   1.00
H267   H     0.56618   0.83434   0.66360   0.00000  Uiso   1.00
O268   O     0.22956   0.00624   0.22603   0.00000  Uiso   1.00
O269   O     0.16329   0.39985   0.68443   0.00000  Uiso   1.00
O270   O     0.68322   0.76752   0.65927   0.00000  Uiso   1.00
N271   N     0.28815   0.88386   0.29170   0.00000  Uiso   1.00
N272   N     0.24091   0.45173   0.61835   0.00000  Uiso   1.00
N273   N     0.61141   0.71372   0.60044   0.00000  Uiso   1.00
N274   N     0.24524   0.96676   0.33118   0.00000  Uiso   1.00
N275   N     0.19800   0.53463   0.65783   0.00000  Uiso   1.00
N276   N     0.56850   0.79662   0.63992   0.00000  Uiso   1.00
C277   C     0.91116   0.20560   0.08537   0.00000  Uiso   1.00
C278   C     0.84802   0.22697   0.10686   0.00000  Uiso   1.00
C279   C     0.83916   0.21083   0.16664   0.00000  Uiso   1.00
C280   C     0.77772   0.23523   0.17690   0.00000  Uiso   1.00
C281   C     0.68741   0.26251   0.21754   0.00000  Uiso   1.00
C282   C     0.93075   0.28701   0.04093   0.00000  Uiso   1.00
C283   C     0.99146   0.32133   0.04528   0.00000  Uiso   1.00
C284   C     0.99966   0.39627   0.00004   0.00000  Uiso   1.00
C285   C     0.03781   0.51672   0.93830   0.00000  Uiso   1.00
C286   C     0.89073   0.15220   0.04797   0.00000  Uiso   1.00
C287   C     0.91779   0.07317   0.05823   0.00000  Uiso   1.00
C288   C     0.89230   0.03462   0.01891   0.00000  Uiso   1.00
C289   C     0.86831   0.94575   0.96810   0.00000  Uiso   1.00
C290   C     0.81781   0.27765   0.99729   0.00000  Uiso   1.00
C291   C     0.79732   0.26611   0.05901   0.00000  Uiso   1.00
C292   C     0.73588   0.29055   0.06919   0.00000  Uiso   1.00
C293   C     0.72692   0.27444   0.12898   0.00000  Uiso   1.00
C294   C     0.88005   0.32615   0.99309   0.00000  Uiso   1.00
C295   C     0.88817   0.40105   0.94783   0.00000  Uiso   1.00
C296   C     0.94887   0.43548   0.95211   0.00000  Uiso   1.00
C297   C     0.84002   0.19133   0.00013   0.00000  Uiso   1.00
C298   C     0.81450   0.15289   0.96078   0.00000  Uiso   1.00
C299   C     0.84151   0.07383   0.97098   0.00000  Uiso   1.00
H300   H     0.95064   0.17513   0.12261   0.00000  Uiso   1.00
H301   H     0.87841   0.18054   0.20365   0.00000  Uiso   1.00
H302   H     0.03069   0.29102   0.08230   0.00000  Uiso   1.00
H303   H     0.95702   0.04291   0.09525   0.00000  Uiso   1.00
H304   H     0.77599   0.20383   0.27239   0.00000  Uiso   1.00
H305   H     0.09707   0.43677   0.01652   0.00000  Uiso   1.00
H306   H     0.94174   0.91356   0.04382   0.00000  Uiso   1.00
H307   H     0.77833   0.30813   0.96005   0.00000  Uiso   1.00
H308   H     0.69665   0.32084   0.03216   0.00000  Uiso   1.00
H309   H     0.84892   0.43132   0.91082   0.00000  Uiso   1.00
H310   H     0.77526   0.18320   0.92377   0.00000  Uiso   1.00
H311   H     0.62846   0.31770   0.13320   0.00000  Uiso   1.00
H312   H     0.94955   0.55064   0.87733   0.00000  Uiso   1.00
H313   H     0.79421   0.02744   0.90464   0.00000  Uiso   1.00
O314   O     0.65161   0.26675   0.25317   0.00000  Uiso   1.00
O315   O     0.07286   0.57235   0.91747   0.00000  Uiso   1.00
O316   O     0.86907   0.88592   0.95330   0.00000  Uiso   1.00
N317   N     0.75247   0.22887   0.22973   0.00000  Uiso   1.00
N318   N     0.05266   0.44667   0.99051   0.00000  Uiso   1.00
N319   N     0.90745   0.95752   0.01604   0.00000  Uiso   1.00
N320   N     0.67309   0.29014   0.15484   0.00000  Uiso   1.00
N321   N     0.97328   0.50794   0.91562   0.00000  Uiso   1.00
N322   N     0.82807   0.01879   0.94114   0.00000  Uiso   1.00
C323   C     0.11481   0.58154   0.41407   0.00000  Uiso   1.00
C324   C     0.11375   0.48736   0.43408   0.00000  Uiso   1.00
C325   C     0.16857   0.43231   0.44520   0.00000  Uiso   1.00
C326   C     0.15724   0.34849   0.46312   0.00000  Uiso   1.00
C327   C     0.16532   0.20646   0.49321   0.00000  Uiso   1.00
C328   C     0.08342   0.60556   0.46099   0.00000  Uiso   1.00
C329   C     0.11274   0.64991   0.49473   0.00000  Uiso   1.00
C330   C     0.07587   0.66560   0.53530   0.00000  Uiso   1.00
C331   C     0.03685   0.70714   0.60714   0.00000  Uiso   1.00
C332   C     0.06665   0.61677   0.35542   0.00000  Uiso   1.00
C333   C     0.08186   0.67057   0.30039   0.00000  Uiso   1.00
C334   C     0.03087   0.69572   0.25208   0.00000  Uiso   1.00
C335   C     0.96582   0.75466   0.16000   0.00000  Uiso   1.00
C336   C     0.99720   0.53057   0.42612   0.00000  Uiso   1.00
C337   C     0.04987   0.45967   0.44062   0.00000  Uiso   1.00
C338   C     0.03845   0.37592   0.45853   0.00000  Uiso   1.00
C339   C     0.09325   0.32075   0.46967   0.00000  Uiso   1.00
C340   C     0.01955   0.57788   0.46753   0.00000  Uiso   1.00
C341   C     0.98262   0.59351   0.50806   0.00000  Uiso   1.00
C342   C     0.01188   0.63787   0.54185   0.00000  Uiso   1.00
C343   C     0.00277   0.58909   0.36196   0.00000  Uiso   1.00
C344   C     0.95175   0.61417   0.31372   0.00000  Uiso   1.00
C345   C     0.96688   0.66799   0.25863   0.00000  Uiso   1.00
H346   H     0.16454   0.60310   0.40898   0.00000  Uiso   1.00
H347   H     0.21800   0.45376   0.44014   0.00000  Uiso   1.00
H348   H     0.16217   0.67134   0.48965   0.00000  Uiso   1.00
H349   H     0.13130   0.69198   0.29535   0.00000  Uiso   1.00
H350   H     0.24910   0.27598   0.47758   0.00000  Uiso   1.00
H351   H     0.13138   0.73477   0.58198   0.00000  Uiso   1.00
H352   H     0.06629   0.77832   0.17224   0.00000  Uiso   1.00
H353   H     0.94747   0.50901   0.43122   0.00000  Uiso   1.00
H354   H     0.98901   0.35451   0.46359   0.00000  Uiso   1.00
H355   H     0.93319   0.57208   0.51311   0.00000  Uiso   1.00
H356   H     0.90232   0.59273   0.31880   0.00000  Uiso   1.00
H357   H     0.06325   0.19542   0.49662   0.00000  Uiso   1.00
H358   H     0.94553   0.65422   0.60101   0.00000  Uiso   1.00
H359   H     0.88044   0.69776   0.19128   0.00000  Uiso   1.00
O360   O     0.18743   0.13576   0.50801   0.00000  Uiso   1.00
O361   O     0.03298   0.73769   0.64497   0.00000  Uiso   1.00
O362   O     0.94758   0.79481   0.10741   0.00000  Uiso   1.00
N363   N     0.19965   0.27823   0.47761   0.00000  Uiso   1.00
N364   N     0.08960   0.70716   0.57522   0.00000  Uiso   1.00
N365   N     0.02874   0.74789   0.19216   0.00000  Uiso   1.00
N366   N     0.09965   0.23488   0.48785   0.00000  Uiso   1.00
N367   N     0.98960   0.66381   0.58546   0.00000  Uiso   1.00
N368   N     0.92874   0.70454   0.20240   0.00000  Uiso   1.00
C369   C     0.49447   0.91734   0.79321   0.00000  Uiso   1.00
C370   C     0.44958   0.96819   0.73503   0.00000  Uiso   1.00
C371   C     0.46015   0.04724   0.69637   0.00000  Uiso   1.00
C372   C     0.41331   0.08324   0.64547   0.00000  Uiso   1.00
C373   C     0.35205   0.16852   0.55691   0.00000  Uiso   1.00
C374   C     0.51335   0.83557   0.78636   0.00000  Uiso   1.00
C375   C     0.57754   0.80311   0.79087   0.00000  Uiso   1.00
C376   C     0.58438   0.72746   0.78319   0.00000  Uiso   1.00
C377   C     0.62214   0.60681   0.77438   0.00000  Uiso   1.00
C378   C     0.45058   0.89574   0.84338   0.00000  Uiso   1.00
C379   C     0.46201   0.91385   0.89584   0.00000  Uiso   1.00
C380   C     0.41600   0.88884   0.93616   0.00000  Uiso   1.00
C381   C     0.35630   0.86161   0.01587   0.00000  Uiso   1.00
C382   C     0.39247   0.84070   0.77155   0.00000  Uiso   1.00
C383   C     0.39418   0.92656   0.72327   0.00000  Uiso   1.00
C384   C     0.34730   0.96245   0.67241   0.00000  Uiso   1.00
C385   C     0.35781   0.04154   0.63368   0.00000  Uiso   1.00
C386   C     0.45795   0.79394   0.77460   0.00000  Uiso   1.00
C387   C     0.46470   0.71832   0.76692   0.00000  Uiso   1.00
C388   C     0.52888   0.68575   0.77141   0.00000  Uiso   1.00
C389   C     0.39518   0.85411   0.83162   0.00000  Uiso   1.00
C390   C     0.34916   0.82906   0.87188   0.00000  Uiso   1.00
C391   C     0.36050   0.84713   0.92438   0.00000  Uiso   1.00
H392   H     0.53760   0.94975   0.80236   0.00000  Uiso   1.00
H393   H     0.50303   0.07944   0.70548   0.00000  Uiso   1.00
H394   H     0.62041   0.83534   0.79998   0.00000  Uiso   1.00
H395   H     0.50488   0.94607   0.90492   0.00000  Uiso   1.00
H396   H     0.44029   0.20485   0.59288   0.00000  Uiso   1.00
H397   H     0.68778   0.69014   0.79215   0.00000  Uiso   1.00
H398   H     0.44418   0.92363   0.01344   0.00000  Uiso   1.00
H399   H     0.34934   0.80828   0.76240   0.00000  Uiso   1.00
H400   H     0.30444   0.93022   0.66332   0.00000  Uiso   1.00
H401   H     0.42181   0.68612   0.75782   0.00000  Uiso   1.00
H402   H     0.30629   0.79684   0.86276   0.00000  Uiso   1.00
H403   H     0.27911   0.08374   0.55866   0.00000  Uiso   1.00
H404   H     0.52660   0.56902   0.75793   0.00000  Uiso   1.00
H405   H     0.28299   0.80251   0.97922   0.00000  Uiso   1.00
O406   O     0.33357   0.22705   0.51131   0.00000  Uiso   1.00
O407   O     0.65827   0.55176   0.77276   0.00000  Uiso   1.00
O408   O     0.33866   0.85809   0.06308   0.00000  Uiso   1.00
N409   N     0.40851   0.15962   0.59843   0.00000  Uiso   1.00
N410   N     0.63990   0.67840   0.78473   0.00000  Uiso   1.00
N411   N     0.41216   0.89668   0.99162   0.00000  Uiso   1.00
N412   N     0.32178   0.09445   0.58001   0.00000  Uiso   1.00
N413   N     0.55316   0.61323   0.76631   0.00000  Uiso   1.00
N414   N     0.32543   0.83150   0.97321   0.00000  Uiso   1.00
C415   C     0.36137   0.49677   0.80608   0.00000  Uiso   1.00
C416   C     0.28660   0.50324   0.80660   0.00000  Uiso   1.00
C417   C     0.24654   0.57640   0.78659   0.00000  Uiso   1.00
C418   C     0.17931   0.56915   0.79087   0.00000  Uiso   1.00
C419   C     0.06719   0.59101   0.78813   0.00000  Uiso   1.00
C420   C     0.39169   0.44756   0.87122   0.00000  Uiso   1.00
C421   C     0.44000   0.47390   0.90554   0.00000  Uiso   1.00
C422   C     0.46125   0.41977   0.96421   0.00000  Uiso   1.00
C423   C     0.51232   0.35515   0.06179   0.00000  Uiso   1.00
C424   C     0.37284   0.44154   0.77003   0.00000  Uiso   1.00
C425   C     0.40531   0.46281   0.71927   0.00000  Uiso   1.00
C426   C     0.41069   0.40360   0.69276   0.00000  Uiso   1.00
C427   C     0.43249   0.32964   0.63322   0.00000  Uiso   1.00
C428   C     0.31323   0.35379   0.84928   0.00000  Uiso   1.00
C429   C     0.26045   0.42557   0.83006   0.00000  Uiso   1.00
C430   C     0.19327   0.41821   0.83437   0.00000  Uiso   1.00
C431   C     0.15311   0.49135   0.81437   0.00000  Uiso   1.00
C432   C     0.36554   0.36990   0.89469   0.00000  Uiso   1.00
C433   C     0.38673   0.31571   0.95332   0.00000  Uiso   1.00
C434   C     0.43505   0.34196   0.98772   0.00000  Uiso   1.00
C435   C     0.34669   0.36387   0.79349   0.00000  Uiso   1.00
C436   C     0.35203   0.30462   0.76706   0.00000  Uiso   1.00
C437   C     0.38450   0.32579   0.71627   0.00000  Uiso   1.00
H438   H     0.38174   0.55724   0.78782   0.00000  Uiso   1.00
H439   H     0.26679   0.63650   0.76844   0.00000  Uiso   1.00
H440   H     0.46023   0.53401   0.88737   0.00000  Uiso   1.00
H441   H     0.42554   0.52292   0.70113   0.00000  Uiso   1.00
H442   H     0.12783   0.69012   0.75731   0.00000  Uiso   1.00
H443   H     0.53572   0.47400   0.00807   0.00000  Uiso   1.00
H444   H     0.46256   0.45062   0.61536   0.00000  Uiso   1.00
H445   H     0.29287   0.29332   0.86754   0.00000  Uiso   1.00
H446   H     0.17304   0.35810   0.85253   0.00000  Uiso   1.00
H447   H     0.36648   0.25561   0.97146   0.00000  Uiso   1.00
H448   H     0.33179   0.24452   0.78523   0.00000  Uiso   1.00
H449   H     0.05174   0.46416   0.82557   0.00000  Uiso   1.00
H450   H     0.45963   0.24804   0.07633   0.00000  Uiso   1.00
H451   H     0.38647   0.22466   0.68361   0.00000  Uiso   1.00
O452   O     0.01257   0.62452   0.78015   0.00000  Uiso   1.00
O453   O     0.54771   0.34097   0.10913   0.00000  Uiso   1.00
O454   O     0.45173   0.31030   0.59390   0.00000  Uiso   1.00
N455   N     0.12636   0.62805   0.77543   0.00000  Uiso   1.00
N456   N     0.50771   0.42600   0.00988   0.00000  Uiso   1.00
N457   N     0.43933   0.40413   0.64273   0.00000  Uiso   1.00
N458   N     0.08542   0.50647   0.81215   0.00000  Uiso   1.00
N459   N     0.46677   0.30441   0.04660   0.00000  Uiso   1.00
N460   N     0.39838   0.28254   0.67946   0.00000  Uiso   1.00
C461   C     0.55803   0.72853   0.35269   0.00000  Uiso   1.00
C462   C     0.59559   0.74043   0.29898   0.00000  Uiso   1.00
C463   C     0.65906   0.70696   0.30199   0.00000  Uiso   1.00
C464   C     0.68471   0.72514   0.24775   0.00000  Uiso   1.00
C465   C     0.74861   0.73607   0.17276   0.00000  Uiso   1.00
C466   C     0.53951   0.81550   0.35082   0.00000  Uiso   1.00
C467   C     0.55582   0.84513   0.39742   0.00000  Uiso   1.00
C468   C     0.53425   0.92651   0.38681   0.00000  Uiso   1.00
C469   C     0.51105   0.05397   0.39232   0.00000  Uiso   1.00
C470   C     0.49286   0.69259   0.33859   0.00000  Uiso   1.00
C471   C     0.46993   0.61889   0.37491   0.00000  Uiso   1.00
C472   C     0.40907   0.59679   0.35401   0.00000  Uiso   1.00
C473   C     0.31343   0.53341   0.34053   0.00000  Uiso   1.00
C474   C     0.49071   0.82036   0.25101   0.00000  Uiso   1.00
C475   C     0.55903   0.79031   0.24376   0.00000  Uiso   1.00
C476   C     0.58459   0.80855   0.18949   0.00000  Uiso   1.00
C477   C     0.64808   0.77511   0.19242   0.00000  Uiso   1.00
C478   C     0.50295   0.86538   0.29560   0.00000  Uiso   1.00
C479   C     0.48135   0.94673   0.28492   0.00000  Uiso   1.00
C480   C     0.49763   0.97648   0.33149   0.00000  Uiso   1.00
C481   C     0.45629   0.74247   0.28336   0.00000  Uiso   1.00
C482   C     0.39546   0.72049   0.26241   0.00000  Uiso   1.00
C483   C     0.37245   0.64676   0.29868   0.00000  Uiso   1.00
H484   H     0.58649   0.68970   0.39569   0.00000  Uiso   1.00
H485   H     0.68734   0.66837   0.34474   0.00000  Uiso   1.00
H486   H     0.58411   0.80652   0.44015   0.00000  Uiso   1.00
H487   H     0.49823   0.58031   0.41764   0.00000  Uiso   1.00
H488   H     0.78303   0.66673   0.26390   0.00000  Uiso   1.00
H489   H     0.56535   0.95803   0.46509   0.00000  Uiso   1.00
H490   H     0.38426   0.48102   0.41763   0.00000  Uiso   1.00
H491   H     0.46225   0.85919   0.20801   0.00000  Uiso   1.00
H492   H     0.55628   0.84715   0.14676   0.00000  Uiso   1.00
H493   H     0.45306   0.98531   0.24218   0.00000  Uiso   1.00
H494   H     0.36718   0.75910   0.21967   0.00000  Uiso   1.00
H495   H     0.67666   0.81184   0.10321   0.00000  Uiso   1.00
H496   H     0.45898   0.10314   0.30441   0.00000  Uiso   1.00
H497   H     0.27790   0.62613   0.25694   0.00000  Uiso   1.00
O498   O     0.79395   0.72833   0.14665   0.00000  Uiso   1.00
O499   O     0.50836   0.11049   0.41062   0.00000  Uiso   1.00
O500   O     0.27078   0.48467   0.34834   0.00000  Uiso   1.00
N501   N     0.74509   0.70252   0.23448   0.00000  Uiso   1.00
N502   N     0.54158   0.97487   0.42259   0.00000  Uiso   1.00
N503   N     0.37227   0.52892   0.37822   0.00000  Uiso   1.00
N504   N     0.68785   0.78060   0.14802   0.00000  Uiso   1.00
N505   N     0.48434   0.05295   0.33612   0.00000  Uiso   1.00
N506   N     0.31503   0.60700   0.29175   0.00000  Uiso   1.00
C507   C     0.94400   0.05117   0.69208   0.00000  Uiso   1.00
C508   C     0.95769   0.96512   0.74115   0.00000  Uiso   1.00
C509   C     0.93725   0.94038   0.79797   0.00000  Uiso   1.00
C510   C     0.95478   0.85902   0.83637   0.00000  Uiso   1.00
C511   C     0.97050   0.73372   0.91528   0.00000  Uiso   1.00
C512   C     0.01164   0.08168   0.67631   0.00000  Uiso   1.00
C513   C     0.03655   0.15494   0.67861   0.00000  Uiso   1.00
C514   C     0.09949   0.17169   0.66241   0.00000  Uiso   1.00
C515   C     0.19894   0.22738   0.64061   0.00000  Uiso   1.00
C516   C     0.90890   0.03784   0.63627   0.00000  Uiso   1.00
C517   C     0.84745   0.07427   0.60489   0.00000  Uiso   1.00
C518   C     0.82390   0.05413   0.55498   0.00000  Uiso   1.00
C519   C     0.76384   0.04176   0.47102   0.00000  Uiso   1.00
C520   C     0.01147   0.95066   0.65921   0.00000  Uiso   1.00
C521   C     0.99434   0.91053   0.72329   0.00000  Uiso   1.00
C522   C     0.01190   0.82918   0.76161   0.00000  Uiso   1.00
C523   C     0.99149   0.80432   0.81848   0.00000  Uiso   1.00
C524   C     0.04829   0.02709   0.65846   0.00000  Uiso   1.00
C525   C     0.11120   0.04374   0.64224   0.00000  Uiso   1.00
C526   C     0.13621   0.11700   0.64452   0.00000  Uiso   1.00
C527   C     0.94555   0.98325   0.61842   0.00000  Uiso   1.00
C528   C     0.92210   0.96306   0.56854   0.00000  Uiso   1.00
C529   C     0.86061   0.99944   0.53709   0.00000  Uiso   1.00
H530   H     0.91547   0.09368   0.70598   0.00000  Uiso   1.00
H531   H     0.90890   0.98265   0.81177   0.00000  Uiso   1.00
H532   H     0.00818   0.19718   0.69242   0.00000  Uiso   1.00
H533   H     0.81910   0.11651   0.61872   0.00000  Uiso   1.00
H534   H     0.91779   0.83550   0.92120   0.00000  Uiso   1.00
H535   H     0.12713   0.28785   0.66951   0.00000  Uiso   1.00
H536   H     0.72842   0.11775   0.51411   0.00000  Uiso   1.00
H537   H     0.04000   0.90816   0.64531   0.00000  Uiso   1.00
H538   H     0.04026   0.78695   0.74778   0.00000  Uiso   1.00
H539   H     0.13955   0.00148   0.62843   0.00000  Uiso   1.00
H540   H     0.95047   0.92081   0.55473   0.00000  Uiso   1.00
H541   H     0.02442   0.67665   0.86927   0.00000  Uiso   1.00
H542   H     0.23375   0.12901   0.61758   0.00000  Uiso   1.00
H543   H     0.83504   0.95891   0.46218   0.00000  Uiso   1.00
O544   O     0.96905   0.67970   0.96374   0.00000  Uiso   1.00
O545   O     0.24368   0.27318   0.63353   0.00000  Uiso   1.00
O546   O     0.72059   0.05001   0.42965   0.00000  Uiso   1.00
N547   N     0.94284   0.81474   0.89491   0.00000  Uiso   1.00
N548   N     0.13856   0.23766   0.65961   0.00000  Uiso   1.00
N549   N     0.76581   0.07865   0.51431   0.00000  Uiso   1.00
N550   N     0.00021   0.72927   0.86696   0.00000  Uiso   1.00
N551   N     0.19593   0.15219   0.63166   0.00000  Uiso   1.00
N552   N     0.82318   0.99318   0.48636   0.00000  Uiso   1.00
