data_job_04382
_audit_creation_date              2018-12-19
_audit_creation_method            'Materials Studio'
_symmetry_space_group_name_H-M    'P1'
_symmetry_Int_Tables_number       1
_symmetry_cell_setting            triclinic
loop_
_symmetry_equiv_pos_as_xyz
  x,y,z
_cell_length_a                    12.2421
_cell_length_b                    18.0389
_cell_length_c                    21.1449
_cell_angle_alpha                 90.0000
_cell_angle_beta                  90.0000
_cell_angle_gamma                 90.0000
loop_
_atom_site_label
_atom_site_type_symbol
_atom_site_fract_x
_atom_site_fract_y
_atom_site_fract_z
_atom_site_U_iso_or_equiv
_atom_site_adp_type
_atom_site_occupancy
C1     C     0.25348   0.11401   0.67947   0.00000  Uiso   1.00
C2     C     0.15299   0.14999   0.64992   0.00000  Uiso   1.00
C3     C     0.09690   0.21058   0.67401   0.00000  Uiso   1.00
C4     C     0.00696   0.23519   0.63996   0.00000  Uiso   1.00
C5     C     0.85585   0.29634   0.60262   0.00000  Uiso   1.00
C6     C     0.22445   0.03256   0.68900   0.00000  Uiso   1.00
C7     C     0.22844   0.99442   0.74595   0.00000  Uiso   1.00
C8     C     0.19867   0.92016   0.74479   0.00000  Uiso   1.00
C9     C     0.15856   0.79898   0.76811   0.00000  Uiso   1.00
C10    C     0.34191   0.11556   0.62870   0.00000  Uiso   1.00
C11    C     0.44469   0.14719   0.63497   0.00000  Uiso   1.00
C12    C     0.51382   0.14280   0.58305   0.00000  Uiso   1.00
C13    C     0.65610   0.15049   0.51275   0.00000  Uiso   1.00
C14    C     0.19352   0.04995   0.57615   0.00000  Uiso   1.00
C15    C     0.12043   0.11520   0.59379   0.00000  Uiso   1.00
C16    C     0.03056   0.13972   0.55969   0.00000  Uiso   1.00
C17    C     0.97434   0.20034   0.58373   0.00000  Uiso   1.00
C18    C     0.19188   0.99777   0.63287   0.00000  Uiso   1.00
C19    C     0.16210   0.92355   0.63163   0.00000  Uiso   1.00
C20    C     0.16604   0.88530   0.68856   0.00000  Uiso   1.00
C21    C     0.30935   0.08077   0.57258   0.00000  Uiso   1.00
C22    C     0.37834   0.07633   0.52064   0.00000  Uiso   1.00
C23    C     0.48120   0.10794   0.52682   0.00000  Uiso   1.00
H24    H     0.27884   0.14109   0.72317   0.00000  Uiso   1.00
H25    H     0.12212   0.23749   0.71745   0.00000  Uiso   1.00
H26    H     0.25366   0.02135   0.78937   0.00000  Uiso   1.00
H27    H     0.46986   0.17411   0.67840   0.00000  Uiso   1.00
H28    H     0.93398   0.32901   0.68638   0.00000  Uiso   1.00
H29    H     0.21137   0.87327   0.83802   0.00000  Uiso   1.00
H30    H     0.66729   0.19538   0.60402   0.00000  Uiso   1.00
H31    H     0.16817   0.02286   0.53245   0.00000  Uiso   1.00
H32    H     0.00537   0.11278   0.51626   0.00000  Uiso   1.00
H33    H     0.13691   0.89664   0.58819   0.00000  Uiso   1.00
H34    H     0.35311   0.04940   0.47722   0.00000  Uiso   1.00
H35    H     0.83922   0.22779   0.52308   0.00000  Uiso   1.00
H36    H     0.11661   0.77204   0.67473   0.00000  Uiso   1.00
H37    H     0.57252   0.09416   0.44073   0.00000  Uiso   1.00
O38    O     0.78149   0.33967   0.59753   0.00000  Uiso   1.00
O39    O     0.14543   0.74175   0.79648   0.00000  Uiso   1.00
O40    O     0.74357   0.16435   0.48948   0.00000  Uiso   1.00
N41    N     0.93404   0.29286   0.65016   0.00000  Uiso   1.00
N42    N     0.19336   0.86677   0.79194   0.00000  Uiso   1.00
N43    N     0.61961   0.16790   0.57318   0.00000  Uiso   1.00
N44    N     0.88305   0.23839   0.56229   0.00000  Uiso   1.00
N45    N     0.14237   0.81230   0.70407   0.00000  Uiso   1.00
N46    N     0.56862   0.11343   0.48531   0.00000  Uiso   1.00
C47    C     0.24652   0.38599   0.17947   0.00000  Uiso   1.00
C48    C     0.34701   0.35001   0.14992   0.00000  Uiso   1.00
C49    C     0.40310   0.28942   0.17401   0.00000  Uiso   1.00
C50    C     0.49304   0.26481   0.13996   0.00000  Uiso   1.00
C51    C     0.64415   0.20366   0.10262   0.00000  Uiso   1.00
C52    C     0.27555   0.46744   0.18900   0.00000  Uiso   1.00
C53    C     0.27156   0.50558   0.24595   0.00000  Uiso   1.00
C54    C     0.30133   0.57984   0.24479   0.00000  Uiso   1.00
C55    C     0.34144   0.70102   0.26811   0.00000  Uiso   1.00
C56    C     0.15809   0.38444   0.12870   0.00000  Uiso   1.00
C57    C     0.05531   0.35281   0.13497   0.00000  Uiso   1.00
C58    C     0.98618   0.35720   0.08305   0.00000  Uiso   1.00
C59    C     0.84390   0.34951   0.01275   0.00000  Uiso   1.00
C60    C     0.30648   0.45005   0.07615   0.00000  Uiso   1.00
C61    C     0.37957   0.38480   0.09379   0.00000  Uiso   1.00
C62    C     0.46944   0.36028   0.05969   0.00000  Uiso   1.00
C63    C     0.52566   0.29966   0.08373   0.00000  Uiso   1.00
C64    C     0.30812   0.50223   0.13287   0.00000  Uiso   1.00
C65    C     0.33790   0.57645   0.13163   0.00000  Uiso   1.00
C66    C     0.33396   0.61470   0.18856   0.00000  Uiso   1.00
C67    C     0.19065   0.41923   0.07258   0.00000  Uiso   1.00
C68    C     0.12166   0.42367   0.02064   0.00000  Uiso   1.00
C69    C     0.01880   0.39206   0.02682   0.00000  Uiso   1.00
H70    H     0.22116   0.35891   0.22317   0.00000  Uiso   1.00
H71    H     0.37788   0.26251   0.21745   0.00000  Uiso   1.00
H72    H     0.24634   0.47865   0.28937   0.00000  Uiso   1.00
H73    H     0.03014   0.32589   0.17840   0.00000  Uiso   1.00
H74    H     0.56602   0.17099   0.18638   0.00000  Uiso   1.00
H75    H     0.28863   0.62673   0.33802   0.00000  Uiso   1.00
H76    H     0.83271   0.30462   0.10402   0.00000  Uiso   1.00
H77    H     0.33183   0.47714   0.03245   0.00000  Uiso   1.00
H78    H     0.49463   0.38722   0.01626   0.00000  Uiso   1.00
H79    H     0.36309   0.60336   0.08819   0.00000  Uiso   1.00
H80    H     0.14689   0.45060   0.97722   0.00000  Uiso   1.00
H81    H     0.66078   0.27221   0.02308   0.00000  Uiso   1.00
H82    H     0.38339   0.72796   0.17473   0.00000  Uiso   1.00
H83    H     0.92748   0.40584   0.94073   0.00000  Uiso   1.00
O84    O     0.71851   0.16033   0.09753   0.00000  Uiso   1.00
O85    O     0.35457   0.75825   0.29648   0.00000  Uiso   1.00
O86    O     0.75643   0.33565   0.98948   0.00000  Uiso   1.00
N87    N     0.56596   0.20714   0.15016   0.00000  Uiso   1.00
N88    N     0.30664   0.63323   0.29194   0.00000  Uiso   1.00
N89    N     0.88039   0.33210   0.07318   0.00000  Uiso   1.00
N90    N     0.61695   0.26161   0.06229   0.00000  Uiso   1.00
N91    N     0.35763   0.68770   0.20407   0.00000  Uiso   1.00
N92    N     0.93138   0.38657   0.98531   0.00000  Uiso   1.00
C93    C     0.74652   0.11401   0.82053   0.00000  Uiso   1.00
C94    C     0.84701   0.14999   0.85008   0.00000  Uiso   1.00
C95    C     0.90310   0.21058   0.82599   0.00000  Uiso   1.00
C96    C     0.99304   0.23519   0.86004   0.00000  Uiso   1.00
C97    C     0.14415   0.29634   0.89738   0.00000  Uiso   1.00
C98    C     0.77555   0.03256   0.81100   0.00000  Uiso   1.00
C99    C     0.77156   0.99442   0.75405   0.00000  Uiso   1.00
C100   C     0.80133   0.92016   0.75521   0.00000  Uiso   1.00
C101   C     0.84144   0.79898   0.73189   0.00000  Uiso   1.00
C102   C     0.65809   0.11556   0.87130   0.00000  Uiso   1.00
C103   C     0.55531   0.14719   0.86503   0.00000  Uiso   1.00
C104   C     0.48618   0.14280   0.91695   0.00000  Uiso   1.00
C105   C     0.34390   0.15049   0.98725   0.00000  Uiso   1.00
C106   C     0.80648   0.04995   0.92385   0.00000  Uiso   1.00
C107   C     0.87957   0.11520   0.90621   0.00000  Uiso   1.00
C108   C     0.96944   0.13972   0.94031   0.00000  Uiso   1.00
C109   C     0.02566   0.20034   0.91627   0.00000  Uiso   1.00
C110   C     0.80812   0.99777   0.86713   0.00000  Uiso   1.00
C111   C     0.83790   0.92355   0.86837   0.00000  Uiso   1.00
C112   C     0.83396   0.88530   0.81144   0.00000  Uiso   1.00
C113   C     0.69065   0.08077   0.92742   0.00000  Uiso   1.00
C114   C     0.62166   0.07633   0.97936   0.00000  Uiso   1.00
C115   C     0.51880   0.10794   0.97318   0.00000  Uiso   1.00
H116   H     0.72116   0.14109   0.77683   0.00000  Uiso   1.00
H117   H     0.87788   0.23749   0.78255   0.00000  Uiso   1.00
H118   H     0.74634   0.02135   0.71063   0.00000  Uiso   1.00
H119   H     0.53014   0.17411   0.82160   0.00000  Uiso   1.00
H120   H     0.06602   0.32901   0.81362   0.00000  Uiso   1.00
H121   H     0.78863   0.87327   0.66198   0.00000  Uiso   1.00
H122   H     0.33271   0.19538   0.89598   0.00000  Uiso   1.00
H123   H     0.83183   0.02286   0.96755   0.00000  Uiso   1.00
H124   H     0.99463   0.11278   0.98374   0.00000  Uiso   1.00
H125   H     0.86309   0.89664   0.91181   0.00000  Uiso   1.00
H126   H     0.64689   0.04940   0.02278   0.00000  Uiso   1.00
H127   H     0.16078   0.22779   0.97692   0.00000  Uiso   1.00
H128   H     0.88339   0.77204   0.82527   0.00000  Uiso   1.00
H129   H     0.42748   0.09416   0.05927   0.00000  Uiso   1.00
O130   O     0.21851   0.33967   0.90247   0.00000  Uiso   1.00
O131   O     0.85457   0.74175   0.70352   0.00000  Uiso   1.00
O132   O     0.25643   0.16435   0.01052   0.00000  Uiso   1.00
N133   N     0.06596   0.29286   0.84984   0.00000  Uiso   1.00
N134   N     0.80664   0.86677   0.70806   0.00000  Uiso   1.00
N135   N     0.38039   0.16790   0.92682   0.00000  Uiso   1.00
N136   N     0.11695   0.23839   0.93771   0.00000  Uiso   1.00
N137   N     0.85763   0.81230   0.79593   0.00000  Uiso   1.00
N138   N     0.43138   0.11343   0.01469   0.00000  Uiso   1.00
C139   C     0.75348   0.38599   0.32053   0.00000  Uiso   1.00
C140   C     0.65299   0.35001   0.35008   0.00000  Uiso   1.00
C141   C     0.59690   0.28942   0.32599   0.00000  Uiso   1.00
C142   C     0.50696   0.26481   0.36004   0.00000  Uiso   1.00
C143   C     0.35585   0.20366   0.39738   0.00000  Uiso   1.00
C144   C     0.72445   0.46744   0.31100   0.00000  Uiso   1.00
C145   C     0.72844   0.50558   0.25405   0.00000  Uiso   1.00
C146   C     0.69867   0.57984   0.25521   0.00000  Uiso   1.00
C147   C     0.65856   0.70102   0.23189   0.00000  Uiso   1.00
C148   C     0.84191   0.38444   0.37130   0.00000  Uiso   1.00
C149   C     0.94469   0.35281   0.36503   0.00000  Uiso   1.00
C150   C     0.01382   0.35720   0.41695   0.00000  Uiso   1.00
C151   C     0.15610   0.34951   0.48725   0.00000  Uiso   1.00
C152   C     0.69352   0.45005   0.42385   0.00000  Uiso   1.00
C153   C     0.62043   0.38480   0.40621   0.00000  Uiso   1.00
C154   C     0.53056   0.36028   0.44031   0.00000  Uiso   1.00
C155   C     0.47434   0.29966   0.41627   0.00000  Uiso   1.00
C156   C     0.69188   0.50223   0.36713   0.00000  Uiso   1.00
C157   C     0.66210   0.57645   0.36837   0.00000  Uiso   1.00
C158   C     0.66604   0.61470   0.31144   0.00000  Uiso   1.00
C159   C     0.80935   0.41923   0.42742   0.00000  Uiso   1.00
C160   C     0.87834   0.42367   0.47936   0.00000  Uiso   1.00
C161   C     0.98120   0.39206   0.47318   0.00000  Uiso   1.00
H162   H     0.77884   0.35891   0.27683   0.00000  Uiso   1.00
H163   H     0.62212   0.26251   0.28255   0.00000  Uiso   1.00
H164   H     0.75366   0.47865   0.21063   0.00000  Uiso   1.00
H165   H     0.96986   0.32589   0.32160   0.00000  Uiso   1.00
H166   H     0.43398   0.17099   0.31362   0.00000  Uiso   1.00
H167   H     0.71137   0.62673   0.16198   0.00000  Uiso   1.00
H168   H     0.16729   0.30462   0.39598   0.00000  Uiso   1.00
H169   H     0.66817   0.47714   0.46755   0.00000  Uiso   1.00
H170   H     0.50537   0.38722   0.48374   0.00000  Uiso   1.00
H171   H     0.63691   0.60336   0.41181   0.00000  Uiso   1.00
H172   H     0.85311   0.45060   0.52278   0.00000  Uiso   1.00
H173   H     0.33922   0.27221   0.47692   0.00000  Uiso   1.00
H174   H     0.61661   0.72796   0.32527   0.00000  Uiso   1.00
H175   H     0.07252   0.40584   0.55927   0.00000  Uiso   1.00
O176   O     0.28149   0.16033   0.40247   0.00000  Uiso   1.00
O177   O     0.64543   0.75825   0.20352   0.00000  Uiso   1.00
O178   O     0.24357   0.33565   0.51052   0.00000  Uiso   1.00
N179   N     0.43404   0.20714   0.34984   0.00000  Uiso   1.00
N180   N     0.69336   0.63323   0.20806   0.00000  Uiso   1.00
N181   N     0.11961   0.33210   0.42682   0.00000  Uiso   1.00
N182   N     0.38305   0.26161   0.43771   0.00000  Uiso   1.00
N183   N     0.64237   0.68770   0.29593   0.00000  Uiso   1.00
N184   N     0.06862   0.38657   0.51469   0.00000  Uiso   1.00
C185   C     0.74652   0.88599   0.32053   0.00000  Uiso   1.00
C186   C     0.84701   0.85001   0.35008   0.00000  Uiso   1.00
C187   C     0.90310   0.78942   0.32599   0.00000  Uiso   1.00
C188   C     0.99304   0.76481   0.36004   0.00000  Uiso   1.00
C189   C     0.14415   0.70366   0.39738   0.00000  Uiso   1.00
C190   C     0.77555   0.96744   0.31100   0.00000  Uiso   1.00
C191   C     0.77156   0.00558   0.25405   0.00000  Uiso   1.00
C192   C     0.80133   0.07984   0.25521   0.00000  Uiso   1.00
C193   C     0.84144   0.20102   0.23189   0.00000  Uiso   1.00
C194   C     0.65809   0.88444   0.37130   0.00000  Uiso   1.00
C195   C     0.55531   0.85281   0.36503   0.00000  Uiso   1.00
C196   C     0.48618   0.85720   0.41695   0.00000  Uiso   1.00
C197   C     0.34390   0.84951   0.48725   0.00000  Uiso   1.00
C198   C     0.80648   0.95005   0.42385   0.00000  Uiso   1.00
C199   C     0.87957   0.88480   0.40621   0.00000  Uiso   1.00
C200   C     0.96944   0.86028   0.44031   0.00000  Uiso   1.00
C201   C     0.02566   0.79966   0.41627   0.00000  Uiso   1.00
C202   C     0.80812   0.00223   0.36713   0.00000  Uiso   1.00
C203   C     0.83790   0.07645   0.36837   0.00000  Uiso   1.00
C204   C     0.83396   0.11470   0.31144   0.00000  Uiso   1.00
C205   C     0.69065   0.91923   0.42742   0.00000  Uiso   1.00
C206   C     0.62166   0.92367   0.47936   0.00000  Uiso   1.00
C207   C     0.51880   0.89206   0.47318   0.00000  Uiso   1.00
H208   H     0.72116   0.85891   0.27683   0.00000  Uiso   1.00
H209   H     0.87788   0.76251   0.28255   0.00000  Uiso   1.00
H210   H     0.74634   0.97865   0.21063   0.00000  Uiso   1.00
H211   H     0.53014   0.82589   0.32160   0.00000  Uiso   1.00
H212   H     0.06602   0.67099   0.31362   0.00000  Uiso   1.00
H213   H     0.78863   0.12673   0.16198   0.00000  Uiso   1.00
H214   H     0.33271   0.80462   0.39598   0.00000  Uiso   1.00
H215   H     0.83183   0.97714   0.46755   0.00000  Uiso   1.00
H216   H     0.99463   0.88722   0.48374   0.00000  Uiso   1.00
H217   H     0.86309   0.10336   0.41181   0.00000  Uiso   1.00
H218   H     0.64689   0.95060   0.52278   0.00000  Uiso   1.00
H219   H     0.16078   0.77221   0.47692   0.00000  Uiso   1.00
H220   H     0.88339   0.22796   0.32527   0.00000  Uiso   1.00
H221   H     0.42748   0.90584   0.55927   0.00000  Uiso   1.00
O222   O     0.21851   0.66033   0.40247   0.00000  Uiso   1.00
O223   O     0.85457   0.25825   0.20352   0.00000  Uiso   1.00
O224   O     0.25643   0.83565   0.51052   0.00000  Uiso   1.00
N225   N     0.06596   0.70714   0.34984   0.00000  Uiso   1.00
N226   N     0.80664   0.13323   0.20806   0.00000  Uiso   1.00
N227   N     0.38039   0.83210   0.42682   0.00000  Uiso   1.00
N228   N     0.11695   0.76161   0.43771   0.00000  Uiso   1.00
N229   N     0.85763   0.18770   0.29593   0.00000  Uiso   1.00
N230   N     0.43138   0.88657   0.51469   0.00000  Uiso   1.00
C231   C     0.75348   0.61401   0.82053   0.00000  Uiso   1.00
C232   C     0.65299   0.64999   0.85008   0.00000  Uiso   1.00
C233   C     0.59690   0.71058   0.82599   0.00000  Uiso   1.00
C234   C     0.50696   0.73519   0.86004   0.00000  Uiso   1.00
C235   C     0.35585   0.79634   0.89738   0.00000  Uiso   1.00
C236   C     0.72445   0.53256   0.81100   0.00000  Uiso   1.00
C237   C     0.72844   0.49442   0.75405   0.00000  Uiso   1.00
C238   C     0.69867   0.42016   0.75521   0.00000  Uiso   1.00
C239   C     0.65856   0.29898   0.73189   0.00000  Uiso   1.00
C240   C     0.84191   0.61556   0.87130   0.00000  Uiso   1.00
C241   C     0.94469   0.64719   0.86503   0.00000  Uiso   1.00
C242   C     0.01382   0.64280   0.91695   0.00000  Uiso   1.00
C243   C     0.15610   0.65049   0.98725   0.00000  Uiso   1.00
C244   C     0.69352   0.54995   0.92385   0.00000  Uiso   1.00
C245   C     0.62043   0.61520   0.90621   0.00000  Uiso   1.00
C246   C     0.53056   0.63972   0.94031   0.00000  Uiso   1.00
C247   C     0.47434   0.70034   0.91627   0.00000  Uiso   1.00
C248   C     0.69188   0.49777   0.86713   0.00000  Uiso   1.00
C249   C     0.66210   0.42355   0.86837   0.00000  Uiso   1.00
C250   C     0.66604   0.38530   0.81144   0.00000  Uiso   1.00
C251   C     0.80935   0.58077   0.92742   0.00000  Uiso   1.00
C252   C     0.87834   0.57633   0.97936   0.00000  Uiso   1.00
C253   C     0.98120   0.60794   0.97318   0.00000  Uiso   1.00
H254   H     0.77884   0.64109   0.77683   0.00000  Uiso   1.00
H255   H     0.62212   0.73749   0.78255   0.00000  Uiso   1.00
H256   H     0.75366   0.52135   0.71063   0.00000  Uiso   1.00
H257   H     0.96986   0.67411   0.82160   0.00000  Uiso   1.00
H258   H     0.43398   0.82901   0.81362   0.00000  Uiso   1.00
H259   H     0.71137   0.37327   0.66198   0.00000  Uiso   1.00
H260   H     0.16729   0.69538   0.89598   0.00000  Uiso   1.00
H261   H     0.66817   0.52286   0.96755   0.00000  Uiso   1.00
H262   H     0.50537   0.61278   0.98374   0.00000  Uiso   1.00
H263   H     0.63691   0.39664   0.91181   0.00000  Uiso   1.00
H264   H     0.85311   0.54940   0.02278   0.00000  Uiso   1.00
H265   H     0.33922   0.72779   0.97692   0.00000  Uiso   1.00
H266   H     0.61661   0.27204   0.82527   0.00000  Uiso   1.00
H267   H     0.07252   0.59416   0.05927   0.00000  Uiso   1.00
O268   O     0.28149   0.83967   0.90247   0.00000  Uiso   1.00
O269   O     0.64543   0.24175   0.70352   0.00000  Uiso   1.00
O270   O     0.24357   0.66435   0.01052   0.00000  Uiso   1.00
N271   N     0.43404   0.79286   0.84984   0.00000  Uiso   1.00
N272   N     0.69336   0.36677   0.70806   0.00000  Uiso   1.00
N273   N     0.11961   0.66790   0.92682   0.00000  Uiso   1.00
N274   N     0.38305   0.73839   0.93771   0.00000  Uiso   1.00
N275   N     0.64237   0.31230   0.79593   0.00000  Uiso   1.00
N276   N     0.06862   0.61343   0.01469   0.00000  Uiso   1.00
C277   C     0.25348   0.88599   0.17947   0.00000  Uiso   1.00
C278   C     0.15299   0.85001   0.14992   0.00000  Uiso   1.00
C279   C     0.09690   0.78942   0.17401   0.00000  Uiso   1.00
C280   C     0.00696   0.76481   0.13996   0.00000  Uiso   1.00
C281   C     0.85585   0.70366   0.10262   0.00000  Uiso   1.00
C282   C     0.22445   0.96744   0.18900   0.00000  Uiso   1.00
C283   C     0.22844   0.00558   0.24595   0.00000  Uiso   1.00
C284   C     0.19867   0.07984   0.24479   0.00000  Uiso   1.00
C285   C     0.15856   0.20102   0.26811   0.00000  Uiso   1.00
C286   C     0.34191   0.88444   0.12870   0.00000  Uiso   1.00
C287   C     0.44469   0.85281   0.13497   0.00000  Uiso   1.00
C288   C     0.51382   0.85720   0.08305   0.00000  Uiso   1.00
C289   C     0.65610   0.84951   0.01275   0.00000  Uiso   1.00
C290   C     0.19352   0.95005   0.07615   0.00000  Uiso   1.00
C291   C     0.12043   0.88480   0.09379   0.00000  Uiso   1.00
C292   C     0.03056   0.86028   0.05969   0.00000  Uiso   1.00
C293   C     0.97434   0.79966   0.08373   0.00000  Uiso   1.00
C294   C     0.19188   0.00223   0.13287   0.00000  Uiso   1.00
C295   C     0.16210   0.07645   0.13163   0.00000  Uiso   1.00
C296   C     0.16604   0.11470   0.18856   0.00000  Uiso   1.00
C297   C     0.30935   0.91923   0.07258   0.00000  Uiso   1.00
C298   C     0.37834   0.92367   0.02064   0.00000  Uiso   1.00
C299   C     0.48120   0.89206   0.02682   0.00000  Uiso   1.00
H300   H     0.27884   0.85891   0.22317   0.00000  Uiso   1.00
H301   H     0.12212   0.76251   0.21745   0.00000  Uiso   1.00
H302   H     0.25366   0.97865   0.28937   0.00000  Uiso   1.00
H303   H     0.46986   0.82589   0.17840   0.00000  Uiso   1.00
H304   H     0.93398   0.67099   0.18638   0.00000  Uiso   1.00
H305   H     0.21137   0.12673   0.33802   0.00000  Uiso   1.00
H306   H     0.66729   0.80462   0.10402   0.00000  Uiso   1.00
H307   H     0.16817   0.97714   0.03245   0.00000  Uiso   1.00
H308   H     0.00537   0.88722   0.01626   0.00000  Uiso   1.00
H309   H     0.13691   0.10336   0.08819   0.00000  Uiso   1.00
H310   H     0.35311   0.95060   0.97722   0.00000  Uiso   1.00
H311   H     0.83922   0.77221   0.02308   0.00000  Uiso   1.00
H312   H     0.11661   0.22796   0.17473   0.00000  Uiso   1.00
H313   H     0.57252   0.90584   0.94073   0.00000  Uiso   1.00
O314   O     0.78149   0.66033   0.09753   0.00000  Uiso   1.00
O315   O     0.14543   0.25825   0.29648   0.00000  Uiso   1.00
O316   O     0.74357   0.83565   0.98948   0.00000  Uiso   1.00
N317   N     0.93404   0.70714   0.15016   0.00000  Uiso   1.00
N318   N     0.19336   0.13323   0.29194   0.00000  Uiso   1.00
N319   N     0.61961   0.83210   0.07318   0.00000  Uiso   1.00
N320   N     0.88305   0.76161   0.06229   0.00000  Uiso   1.00
N321   N     0.14237   0.18770   0.20407   0.00000  Uiso   1.00
N322   N     0.56862   0.88657   0.98531   0.00000  Uiso   1.00
C323   C     0.24652   0.61401   0.67947   0.00000  Uiso   1.00
C324   C     0.34701   0.64999   0.64992   0.00000  Uiso   1.00
C325   C     0.40310   0.71058   0.67401   0.00000  Uiso   1.00
C326   C     0.49304   0.73519   0.63996   0.00000  Uiso   1.00
C327   C     0.64415   0.79634   0.60262   0.00000  Uiso   1.00
C328   C     0.27555   0.53256   0.68900   0.00000  Uiso   1.00
C329   C     0.27156   0.49442   0.74595   0.00000  Uiso   1.00
C330   C     0.30133   0.42016   0.74479   0.00000  Uiso   1.00
C331   C     0.34144   0.29898   0.76811   0.00000  Uiso   1.00
C332   C     0.15809   0.61556   0.62870   0.00000  Uiso   1.00
C333   C     0.05531   0.64719   0.63497   0.00000  Uiso   1.00
C334   C     0.98618   0.64280   0.58305   0.00000  Uiso   1.00
C335   C     0.84390   0.65049   0.51275   0.00000  Uiso   1.00
C336   C     0.30648   0.54995   0.57615   0.00000  Uiso   1.00
C337   C     0.37957   0.61520   0.59379   0.00000  Uiso   1.00
C338   C     0.46944   0.63972   0.55969   0.00000  Uiso   1.00
C339   C     0.52566   0.70034   0.58373   0.00000  Uiso   1.00
C340   C     0.30812   0.49777   0.63287   0.00000  Uiso   1.00
C341   C     0.33790   0.42355   0.63163   0.00000  Uiso   1.00
C342   C     0.33396   0.38530   0.68856   0.00000  Uiso   1.00
C343   C     0.19065   0.58077   0.57258   0.00000  Uiso   1.00
C344   C     0.12166   0.57633   0.52064   0.00000  Uiso   1.00
C345   C     0.01880   0.60794   0.52682   0.00000  Uiso   1.00
H346   H     0.22116   0.64109   0.72317   0.00000  Uiso   1.00
H347   H     0.37788   0.73749   0.71745   0.00000  Uiso   1.00
H348   H     0.24634   0.52135   0.78937   0.00000  Uiso   1.00
H349   H     0.03014   0.67411   0.67840   0.00000  Uiso   1.00
H350   H     0.56602   0.82901   0.68638   0.00000  Uiso   1.00
H351   H     0.28863   0.37327   0.83802   0.00000  Uiso   1.00
H352   H     0.83271   0.69538   0.60402   0.00000  Uiso   1.00
H353   H     0.33183   0.52286   0.53245   0.00000  Uiso   1.00
H354   H     0.49463   0.61278   0.51626   0.00000  Uiso   1.00
H355   H     0.36309   0.39664   0.58819   0.00000  Uiso   1.00
H356   H     0.14689   0.54940   0.47722   0.00000  Uiso   1.00
H357   H     0.66078   0.72779   0.52308   0.00000  Uiso   1.00
H358   H     0.38339   0.27204   0.67473   0.00000  Uiso   1.00
H359   H     0.92748   0.59416   0.44073   0.00000  Uiso   1.00
O360   O     0.71851   0.83967   0.59753   0.00000  Uiso   1.00
O361   O     0.35457   0.24175   0.79648   0.00000  Uiso   1.00
O362   O     0.75643   0.66435   0.48948   0.00000  Uiso   1.00
N363   N     0.56596   0.79286   0.65016   0.00000  Uiso   1.00
N364   N     0.30664   0.36677   0.79194   0.00000  Uiso   1.00
N365   N     0.88039   0.66790   0.57318   0.00000  Uiso   1.00
N366   N     0.61695   0.73839   0.56229   0.00000  Uiso   1.00
N367   N     0.35763   0.31230   0.70407   0.00000  Uiso   1.00
N368   N     0.93138   0.61343   0.48531   0.00000  Uiso   1.00
