data_job_01043
_audit_creation_date              2018-12-19
_audit_creation_method            'Materials Studio'
_symmetry_space_group_name_H-M    'P1'
_symmetry_Int_Tables_number       1
_symmetry_cell_setting            triclinic
loop_
_symmetry_equiv_pos_as_xyz
  x,y,z
_cell_length_a                    14.9492
_cell_length_b                    10.8812
_cell_length_c                    14.8982
_cell_angle_alpha                 90.0000
_cell_angle_beta                  90.0000
_cell_angle_gamma                 90.0000
loop_
_atom_site_label
_atom_site_type_symbol
_atom_site_fract_x
_atom_site_fract_y
_atom_site_fract_z
_atom_site_U_iso_or_equiv
_atom_site_adp_type
_atom_site_occupancy
C1     C     0.68720   0.98905   0.58615   0.00000  Uiso   1.00
C2     C     0.73215   0.87323   0.55029   0.00000  Uiso   1.00
C3     C     0.71037   0.75350   0.57379   0.00000  Uiso   1.00
C4     C     0.75940   0.66019   0.53355   0.00000  Uiso   1.00
C5     C     0.81883   0.47645   0.48725   0.00000  Uiso   1.00
C6     C     0.76178   0.06711   0.62649   0.00000  Uiso   1.00
C7     C     0.76489   0.11040   0.71406   0.00000  Uiso   1.00
C8     C     0.83885   0.18031   0.73796   0.00000  Uiso   1.00
C9     C     0.94425   0.29764   0.80994   0.00000  Uiso   1.00
C10    C     0.65388   0.05915   0.50407   0.00000  Uiso   1.00
C11    C     0.56629   0.09579   0.48872   0.00000  Uiso   1.00
C12    C     0.54941   0.15902   0.40956   0.00000  Uiso   1.00
C13    C     0.48728   0.26401   0.29148   0.00000  Uiso   1.00
C14    C     0.81300   0.03624   0.47289   0.00000  Uiso   1.00
C15    C     0.80048   0.89886   0.48877   0.00000  Uiso   1.00
C16    C     0.84955   0.80570   0.44847   0.00000  Uiso   1.00
C17    C     0.82785   0.68586   0.47191   0.00000  Uiso   1.00
C18    C     0.83010   0.09274   0.56497   0.00000  Uiso   1.00
C19    C     0.90407   0.16260   0.58874   0.00000  Uiso   1.00
C20    C     0.90731   0.20598   0.67632   0.00000  Uiso   1.00
C21    C     0.72221   0.08478   0.44255   0.00000  Uiso   1.00
C22    C     0.70547   0.14798   0.36340   0.00000  Uiso   1.00
C23    C     0.61786   0.18470   0.34793   0.00000  Uiso   1.00
H24    H     0.63401   0.96911   0.63405   0.00000  Uiso   1.00
H25    H     0.65750   0.73371   0.62141   0.00000  Uiso   1.00
H26    H     0.71201   0.09056   0.76165   0.00000  Uiso   1.00
H27    H     0.51343   0.07594   0.53635   0.00000  Uiso   1.00
H28    H     0.71369   0.48403   0.58029   0.00000  Uiso   1.00
H29    H     0.82861   0.23651   0.87598   0.00000  Uiso   1.00
H30    H     0.40987   0.20569   0.40089   0.00000  Uiso   1.00
H31    H     0.86620   0.05619   0.42499   0.00000  Uiso   1.00
H32    H     0.90242   0.82556   0.40087   0.00000  Uiso   1.00
H33    H     0.95693   0.18242   0.54111   0.00000  Uiso   1.00
H34    H     0.75836   0.16780   0.31581   0.00000  Uiso   1.00
H35    H     0.91249   0.55858   0.40129   0.00000  Uiso   1.00
H36    H     0.02741   0.31107   0.69699   0.00000  Uiso   1.00
H37    H     0.60867   0.28024   0.22189   0.00000  Uiso   1.00
O38    O     0.83275   0.36803   0.47872   0.00000  Uiso   1.00
O39    O     0.98351   0.35527   0.86665   0.00000  Uiso   1.00
O40    O     0.43414   0.31482   0.24334   0.00000  Uiso   1.00
N41    N     0.75549   0.53323   0.54146   0.00000  Uiso   1.00
N42    N     0.86294   0.23674   0.81792   0.00000  Uiso   1.00
N43    N     0.47146   0.20794   0.37376   0.00000  Uiso   1.00
N44    N     0.86246   0.57334   0.44514   0.00000  Uiso   1.00
N45    N     0.96991   0.27685   0.72160   0.00000  Uiso   1.00
N46    N     0.57843   0.24806   0.27744   0.00000  Uiso   1.00
C47    C     0.31280   0.01095   0.08615   0.00000  Uiso   1.00
C48    C     0.26785   0.12677   0.05029   0.00000  Uiso   1.00
C49    C     0.28963   0.24650   0.07379   0.00000  Uiso   1.00
C50    C     0.24060   0.33981   0.03355   0.00000  Uiso   1.00
C51    C     0.18117   0.52355   0.98725   0.00000  Uiso   1.00
C52    C     0.23822   0.93289   0.12649   0.00000  Uiso   1.00
C53    C     0.23511   0.88960   0.21406   0.00000  Uiso   1.00
C54    C     0.16115   0.81969   0.23796   0.00000  Uiso   1.00
C55    C     0.05575   0.70236   0.30994   0.00000  Uiso   1.00
C56    C     0.34612   0.94085   0.00407   0.00000  Uiso   1.00
C57    C     0.43371   0.90421   0.98872   0.00000  Uiso   1.00
C58    C     0.45059   0.84098   0.90956   0.00000  Uiso   1.00
C59    C     0.51272   0.73599   0.79148   0.00000  Uiso   1.00
C60    C     0.18700   0.96376   0.97289   0.00000  Uiso   1.00
C61    C     0.19952   0.10114   0.98877   0.00000  Uiso   1.00
C62    C     0.15045   0.19430   0.94847   0.00000  Uiso   1.00
C63    C     0.17215   0.31414   0.97191   0.00000  Uiso   1.00
C64    C     0.16990   0.90726   0.06497   0.00000  Uiso   1.00
C65    C     0.09593   0.83740   0.08874   0.00000  Uiso   1.00
C66    C     0.09269   0.79402   0.17632   0.00000  Uiso   1.00
C67    C     0.27779   0.91522   0.94255   0.00000  Uiso   1.00
C68    C     0.29453   0.85202   0.86340   0.00000  Uiso   1.00
C69    C     0.38214   0.81530   0.84793   0.00000  Uiso   1.00
H70    H     0.36599   0.03089   0.13405   0.00000  Uiso   1.00
H71    H     0.34250   0.26629   0.12141   0.00000  Uiso   1.00
H72    H     0.28799   0.90944   0.26165   0.00000  Uiso   1.00
H73    H     0.48657   0.92406   0.03635   0.00000  Uiso   1.00
H74    H     0.28631   0.51597   0.08029   0.00000  Uiso   1.00
H75    H     0.17139   0.76349   0.37598   0.00000  Uiso   1.00
H76    H     0.59013   0.79431   0.90089   0.00000  Uiso   1.00
H77    H     0.13380   0.94381   0.92499   0.00000  Uiso   1.00
H78    H     0.09758   0.17444   0.90087   0.00000  Uiso   1.00
H79    H     0.04307   0.81758   0.04111   0.00000  Uiso   1.00
H80    H     0.24164   0.83220   0.81581   0.00000  Uiso   1.00
H81    H     0.08751   0.44142   0.90129   0.00000  Uiso   1.00
H82    H     0.97259   0.68893   0.19699   0.00000  Uiso   1.00
H83    H     0.39133   0.71976   0.72189   0.00000  Uiso   1.00
O84    O     0.16725   0.63197   0.97872   0.00000  Uiso   1.00
O85    O     0.01649   0.64473   0.36665   0.00000  Uiso   1.00
O86    O     0.56586   0.68518   0.74334   0.00000  Uiso   1.00
N87    N     0.24451   0.46677   0.04146   0.00000  Uiso   1.00
N88    N     0.13706   0.76326   0.31792   0.00000  Uiso   1.00
N89    N     0.52854   0.79206   0.87376   0.00000  Uiso   1.00
N90    N     0.13754   0.42666   0.94514   0.00000  Uiso   1.00
N91    N     0.03009   0.72315   0.22160   0.00000  Uiso   1.00
N92    N     0.42157   0.75194   0.77744   0.00000  Uiso   1.00
C93    C     0.18720   0.51095   0.58615   0.00000  Uiso   1.00
C94    C     0.23215   0.62677   0.55029   0.00000  Uiso   1.00
C95    C     0.21037   0.74650   0.57379   0.00000  Uiso   1.00
C96    C     0.25940   0.83981   0.53355   0.00000  Uiso   1.00
C97    C     0.31883   0.02355   0.48725   0.00000  Uiso   1.00
C98    C     0.26178   0.43289   0.62649   0.00000  Uiso   1.00
C99    C     0.26489   0.38960   0.71406   0.00000  Uiso   1.00
C100   C     0.33885   0.31969   0.73796   0.00000  Uiso   1.00
C101   C     0.44425   0.20236   0.80994   0.00000  Uiso   1.00
C102   C     0.15388   0.44085   0.50407   0.00000  Uiso   1.00
C103   C     0.06629   0.40421   0.48872   0.00000  Uiso   1.00
C104   C     0.04941   0.34098   0.40956   0.00000  Uiso   1.00
C105   C     0.98728   0.23599   0.29148   0.00000  Uiso   1.00
C106   C     0.31300   0.46376   0.47289   0.00000  Uiso   1.00
C107   C     0.30048   0.60114   0.48877   0.00000  Uiso   1.00
C108   C     0.34955   0.69430   0.44847   0.00000  Uiso   1.00
C109   C     0.32785   0.81414   0.47191   0.00000  Uiso   1.00
C110   C     0.33010   0.40726   0.56497   0.00000  Uiso   1.00
C111   C     0.40407   0.33740   0.58874   0.00000  Uiso   1.00
C112   C     0.40731   0.29402   0.67632   0.00000  Uiso   1.00
C113   C     0.22221   0.41522   0.44255   0.00000  Uiso   1.00
C114   C     0.20547   0.35202   0.36340   0.00000  Uiso   1.00
C115   C     0.11786   0.31530   0.34793   0.00000  Uiso   1.00
H116   H     0.13401   0.53089   0.63405   0.00000  Uiso   1.00
H117   H     0.15750   0.76629   0.62141   0.00000  Uiso   1.00
H118   H     0.21201   0.40944   0.76165   0.00000  Uiso   1.00
H119   H     0.01343   0.42406   0.53635   0.00000  Uiso   1.00
H120   H     0.21369   0.01597   0.58029   0.00000  Uiso   1.00
H121   H     0.32861   0.26349   0.87598   0.00000  Uiso   1.00
H122   H     0.90987   0.29431   0.40089   0.00000  Uiso   1.00
H123   H     0.36620   0.44381   0.42499   0.00000  Uiso   1.00
H124   H     0.40242   0.67444   0.40087   0.00000  Uiso   1.00
H125   H     0.45693   0.31758   0.54111   0.00000  Uiso   1.00
H126   H     0.25836   0.33220   0.31581   0.00000  Uiso   1.00
H127   H     0.41249   0.94142   0.40129   0.00000  Uiso   1.00
H128   H     0.52741   0.18893   0.69699   0.00000  Uiso   1.00
H129   H     0.10867   0.21976   0.22189   0.00000  Uiso   1.00
O130   O     0.33275   0.13197   0.47872   0.00000  Uiso   1.00
O131   O     0.48351   0.14473   0.86665   0.00000  Uiso   1.00
O132   O     0.93414   0.18518   0.24334   0.00000  Uiso   1.00
N133   N     0.25549   0.96677   0.54146   0.00000  Uiso   1.00
N134   N     0.36294   0.26326   0.81792   0.00000  Uiso   1.00
N135   N     0.97146   0.29206   0.37376   0.00000  Uiso   1.00
N136   N     0.36246   0.92666   0.44514   0.00000  Uiso   1.00
N137   N     0.46991   0.22315   0.72160   0.00000  Uiso   1.00
N138   N     0.07843   0.25194   0.27744   0.00000  Uiso   1.00
C139   C     0.81280   0.48905   0.08615   0.00000  Uiso   1.00
C140   C     0.76785   0.37323   0.05029   0.00000  Uiso   1.00
C141   C     0.78963   0.25350   0.07379   0.00000  Uiso   1.00
C142   C     0.74060   0.16019   0.03355   0.00000  Uiso   1.00
C143   C     0.68117   0.97645   0.98725   0.00000  Uiso   1.00
C144   C     0.73822   0.56711   0.12649   0.00000  Uiso   1.00
C145   C     0.73511   0.61040   0.21406   0.00000  Uiso   1.00
C146   C     0.66115   0.68031   0.23796   0.00000  Uiso   1.00
C147   C     0.55575   0.79764   0.30994   0.00000  Uiso   1.00
C148   C     0.84612   0.55915   0.00407   0.00000  Uiso   1.00
C149   C     0.93371   0.59579   0.98872   0.00000  Uiso   1.00
C150   C     0.95059   0.65902   0.90956   0.00000  Uiso   1.00
C151   C     0.01272   0.76401   0.79148   0.00000  Uiso   1.00
C152   C     0.68700   0.53624   0.97289   0.00000  Uiso   1.00
C153   C     0.69952   0.39886   0.98877   0.00000  Uiso   1.00
C154   C     0.65045   0.30570   0.94847   0.00000  Uiso   1.00
C155   C     0.67215   0.18586   0.97191   0.00000  Uiso   1.00
C156   C     0.66990   0.59274   0.06497   0.00000  Uiso   1.00
C157   C     0.59593   0.66260   0.08874   0.00000  Uiso   1.00
C158   C     0.59269   0.70598   0.17632   0.00000  Uiso   1.00
C159   C     0.77779   0.58478   0.94255   0.00000  Uiso   1.00
C160   C     0.79453   0.64798   0.86340   0.00000  Uiso   1.00
C161   C     0.88214   0.68470   0.84793   0.00000  Uiso   1.00
H162   H     0.86599   0.46911   0.13405   0.00000  Uiso   1.00
H163   H     0.84250   0.23371   0.12141   0.00000  Uiso   1.00
H164   H     0.78799   0.59056   0.26165   0.00000  Uiso   1.00
H165   H     0.98657   0.57594   0.03635   0.00000  Uiso   1.00
H166   H     0.78631   0.98403   0.08029   0.00000  Uiso   1.00
H167   H     0.67139   0.73651   0.37598   0.00000  Uiso   1.00
H168   H     0.09013   0.70569   0.90089   0.00000  Uiso   1.00
H169   H     0.63380   0.55619   0.92499   0.00000  Uiso   1.00
H170   H     0.59758   0.32556   0.90087   0.00000  Uiso   1.00
H171   H     0.54307   0.68242   0.04111   0.00000  Uiso   1.00
H172   H     0.74164   0.66780   0.81581   0.00000  Uiso   1.00
H173   H     0.58751   0.05858   0.90129   0.00000  Uiso   1.00
H174   H     0.47259   0.81107   0.19699   0.00000  Uiso   1.00
H175   H     0.89133   0.78024   0.72189   0.00000  Uiso   1.00
O176   O     0.66725   0.86803   0.97872   0.00000  Uiso   1.00
O177   O     0.51649   0.85527   0.36665   0.00000  Uiso   1.00
O178   O     0.06586   0.81482   0.74334   0.00000  Uiso   1.00
N179   N     0.74451   0.03323   0.04146   0.00000  Uiso   1.00
N180   N     0.63706   0.73674   0.31792   0.00000  Uiso   1.00
N181   N     0.02854   0.70794   0.87376   0.00000  Uiso   1.00
N182   N     0.63754   0.07334   0.94514   0.00000  Uiso   1.00
N183   N     0.53009   0.77685   0.22160   0.00000  Uiso   1.00
N184   N     0.92157   0.74806   0.77744   0.00000  Uiso   1.00
