data_job_04114
_audit_creation_date              2018-12-19
_audit_creation_method            'Materials Studio'
_symmetry_space_group_name_H-M    'P1'
_symmetry_Int_Tables_number       1
_symmetry_cell_setting            triclinic
loop_
_symmetry_equiv_pos_as_xyz
  x,y,z
_cell_length_a                    22.0028
_cell_length_b                    22.0028
_cell_length_c                    12.4832
_cell_angle_alpha                 90.0000
_cell_angle_beta                  90.0000
_cell_angle_gamma                 90.0000
loop_
_atom_site_label
_atom_site_type_symbol
_atom_site_fract_x
_atom_site_fract_y
_atom_site_fract_z
_atom_site_U_iso_or_equiv
_atom_site_adp_type
_atom_site_occupancy
C1     C     0.73211   0.69888   0.27039   0.00000  Uiso   1.00
C2     C     0.69870   0.69473   0.37717   0.00000  Uiso   1.00
C3     C     0.68176   0.74356   0.44088   0.00000  Uiso   1.00
C4     C     0.65156   0.73025   0.53568   0.00000  Uiso   1.00
C5     C     0.60166   0.73293   0.69696   0.00000  Uiso   1.00
C6     C     0.78926   0.66028   0.28267   0.00000  Uiso   1.00
C7     C     0.84845   0.68016   0.26691   0.00000  Uiso   1.00
C8     C     0.89447   0.63786   0.28214   0.00000  Uiso   1.00
C9     C     0.98514   0.58705   0.29663   0.00000  Uiso   1.00
C10    C     0.69226   0.66592   0.18906   0.00000  Uiso   1.00
C11    C     0.66992   0.69053   0.09458   0.00000  Uiso   1.00
C12    C     0.63429   0.65297   0.03098   0.00000  Uiso   1.00
C13    C     0.57437   0.61092   0.90013   0.00000  Uiso   1.00
C14    C     0.70859   0.58841   0.32544   0.00000  Uiso   1.00
C15    C     0.68593   0.63472   0.40707   0.00000  Uiso   1.00
C16    C     0.65574   0.62134   0.50179   0.00000  Uiso   1.00
C17    C     0.63876   0.67015   0.56563   0.00000  Uiso   1.00
C18    C     0.77648   0.60029   0.31257   0.00000  Uiso   1.00
C19    C     0.82243   0.55794   0.32782   0.00000  Uiso   1.00
C20    C     0.88167   0.57775   0.31210   0.00000  Uiso   1.00
C21    C     0.67949   0.60592   0.21896   0.00000  Uiso   1.00
C22    C     0.64389   0.56831   0.15549   0.00000  Uiso   1.00
C23    C     0.62149   0.59286   0.06094   0.00000  Uiso   1.00
H24    H     0.74206   0.74559   0.24711   0.00000  Uiso   1.00
H25    H     0.69166   0.78998   0.41772   0.00000  Uiso   1.00
H26    H     0.85832   0.72659   0.24376   0.00000  Uiso   1.00
H27    H     0.67981   0.73696   0.07147   0.00000  Uiso   1.00
H28    H     0.63018   0.81274   0.62007   0.00000  Uiso   1.00
H29    H     0.98157   0.67907   0.25324   0.00000  Uiso   1.00
H30    H     0.60516   0.70094   0.88992   0.00000  Uiso   1.00
H31    H     0.69865   0.54170   0.34872   0.00000  Uiso   1.00
H32    H     0.64586   0.57490   0.52491   0.00000  Uiso   1.00
H33    H     0.81252   0.51151   0.35095   0.00000  Uiso   1.00
H34    H     0.63402   0.52188   0.17866   0.00000  Uiso   1.00
H35    H     0.59301   0.63818   0.70708   0.00000  Uiso   1.00
H36    H     0.94441   0.50451   0.34024   0.00000  Uiso   1.00
H37    H     0.56799   0.52637   0.97692   0.00000  Uiso   1.00
O38    O     0.57767   0.75098   0.77766   0.00000  Uiso   1.00
O39    O     0.03869   0.57561   0.29637   0.00000  Uiso   1.00
O40    O     0.54484   0.60430   0.81970   0.00000  Uiso   1.00
N41    N     0.62866   0.76710   0.61636   0.00000  Uiso   1.00
N42    N     0.95720   0.64213   0.27341   0.00000  Uiso   1.00
N43    N     0.60530   0.66257   0.93372   0.00000  Uiso   1.00
N44    N     0.60866   0.67317   0.66318   0.00000  Uiso   1.00
N45    N     0.93720   0.54820   0.32023   0.00000  Uiso   1.00
N46    N     0.58530   0.56863   0.98053   0.00000  Uiso   1.00
C47    C     0.26789   0.30112   0.27039   0.00000  Uiso   1.00
C48    C     0.30130   0.30527   0.37717   0.00000  Uiso   1.00
C49    C     0.31824   0.25644   0.44088   0.00000  Uiso   1.00
C50    C     0.34844   0.26975   0.53568   0.00000  Uiso   1.00
C51    C     0.39834   0.26707   0.69696   0.00000  Uiso   1.00
C52    C     0.21074   0.33972   0.28267   0.00000  Uiso   1.00
C53    C     0.15155   0.31984   0.26691   0.00000  Uiso   1.00
C54    C     0.10553   0.36214   0.28214   0.00000  Uiso   1.00
C55    C     0.01486   0.41295   0.29663   0.00000  Uiso   1.00
C56    C     0.30774   0.33408   0.18906   0.00000  Uiso   1.00
C57    C     0.33008   0.30947   0.09458   0.00000  Uiso   1.00
C58    C     0.36571   0.34703   0.03098   0.00000  Uiso   1.00
C59    C     0.42563   0.38908   0.90013   0.00000  Uiso   1.00
C60    C     0.29141   0.41159   0.32544   0.00000  Uiso   1.00
C61    C     0.31407   0.36528   0.40707   0.00000  Uiso   1.00
C62    C     0.34426   0.37866   0.50179   0.00000  Uiso   1.00
C63    C     0.36124   0.32985   0.56563   0.00000  Uiso   1.00
C64    C     0.22352   0.39971   0.31257   0.00000  Uiso   1.00
C65    C     0.17757   0.44206   0.32782   0.00000  Uiso   1.00
C66    C     0.11833   0.42225   0.31210   0.00000  Uiso   1.00
C67    C     0.32051   0.39408   0.21896   0.00000  Uiso   1.00
C68    C     0.35611   0.43169   0.15549   0.00000  Uiso   1.00
C69    C     0.37851   0.40714   0.06094   0.00000  Uiso   1.00
H70    H     0.25794   0.25441   0.24711   0.00000  Uiso   1.00
H71    H     0.30834   0.21002   0.41772   0.00000  Uiso   1.00
H72    H     0.14168   0.27341   0.24376   0.00000  Uiso   1.00
H73    H     0.32019   0.26304   0.07147   0.00000  Uiso   1.00
H74    H     0.36982   0.18726   0.62007   0.00000  Uiso   1.00
H75    H     0.01843   0.32093   0.25324   0.00000  Uiso   1.00
H76    H     0.39484   0.29906   0.88992   0.00000  Uiso   1.00
H77    H     0.30135   0.45830   0.34872   0.00000  Uiso   1.00
H78    H     0.35414   0.42510   0.52491   0.00000  Uiso   1.00
H79    H     0.18748   0.48849   0.35095   0.00000  Uiso   1.00
H80    H     0.36598   0.47812   0.17866   0.00000  Uiso   1.00
H81    H     0.40699   0.36182   0.70708   0.00000  Uiso   1.00
H82    H     0.05559   0.49549   0.34024   0.00000  Uiso   1.00
H83    H     0.43201   0.47363   0.97692   0.00000  Uiso   1.00
O84    O     0.42233   0.24902   0.77766   0.00000  Uiso   1.00
O85    O     0.96131   0.42439   0.29637   0.00000  Uiso   1.00
O86    O     0.45516   0.39570   0.81970   0.00000  Uiso   1.00
N87    N     0.37134   0.23290   0.61636   0.00000  Uiso   1.00
N88    N     0.04280   0.35787   0.27341   0.00000  Uiso   1.00
N89    N     0.39470   0.33743   0.93372   0.00000  Uiso   1.00
N90    N     0.39134   0.32683   0.66318   0.00000  Uiso   1.00
N91    N     0.06280   0.45180   0.32023   0.00000  Uiso   1.00
N92    N     0.41470   0.43137   0.98053   0.00000  Uiso   1.00
C93    C     0.30112   0.73211   0.77039   0.00000  Uiso   1.00
C94    C     0.30527   0.69870   0.87717   0.00000  Uiso   1.00
C95    C     0.25644   0.68176   0.94088   0.00000  Uiso   1.00
C96    C     0.26975   0.65156   0.03568   0.00000  Uiso   1.00
C97    C     0.26707   0.60166   0.19696   0.00000  Uiso   1.00
C98    C     0.33972   0.78926   0.78267   0.00000  Uiso   1.00
C99    C     0.31984   0.84845   0.76691   0.00000  Uiso   1.00
C100   C     0.36214   0.89447   0.78214   0.00000  Uiso   1.00
C101   C     0.41295   0.98514   0.79663   0.00000  Uiso   1.00
C102   C     0.33408   0.69226   0.68906   0.00000  Uiso   1.00
C103   C     0.30947   0.66992   0.59458   0.00000  Uiso   1.00
C104   C     0.34703   0.63429   0.53098   0.00000  Uiso   1.00
C105   C     0.38908   0.57437   0.40013   0.00000  Uiso   1.00
C106   C     0.41159   0.70859   0.82544   0.00000  Uiso   1.00
C107   C     0.36528   0.68593   0.90707   0.00000  Uiso   1.00
C108   C     0.37866   0.65574   0.00179   0.00000  Uiso   1.00
C109   C     0.32985   0.63876   0.06563   0.00000  Uiso   1.00
C110   C     0.39971   0.77648   0.81257   0.00000  Uiso   1.00
C111   C     0.44206   0.82243   0.82782   0.00000  Uiso   1.00
C112   C     0.42225   0.88167   0.81210   0.00000  Uiso   1.00
C113   C     0.39408   0.67949   0.71896   0.00000  Uiso   1.00
C114   C     0.43169   0.64389   0.65549   0.00000  Uiso   1.00
C115   C     0.40714   0.62149   0.56094   0.00000  Uiso   1.00
H116   H     0.25441   0.74206   0.74711   0.00000  Uiso   1.00
H117   H     0.21002   0.69166   0.91772   0.00000  Uiso   1.00
H118   H     0.27341   0.85832   0.74376   0.00000  Uiso   1.00
H119   H     0.26304   0.67981   0.57147   0.00000  Uiso   1.00
H120   H     0.18726   0.63018   0.12007   0.00000  Uiso   1.00
H121   H     0.32093   0.98157   0.75324   0.00000  Uiso   1.00
H122   H     0.29906   0.60516   0.38992   0.00000  Uiso   1.00
H123   H     0.45830   0.69865   0.84872   0.00000  Uiso   1.00
H124   H     0.42510   0.64586   0.02491   0.00000  Uiso   1.00
H125   H     0.48849   0.81252   0.85095   0.00000  Uiso   1.00
H126   H     0.47812   0.63402   0.67866   0.00000  Uiso   1.00
H127   H     0.36182   0.59301   0.20708   0.00000  Uiso   1.00
H128   H     0.49549   0.94441   0.84024   0.00000  Uiso   1.00
H129   H     0.47363   0.56799   0.47692   0.00000  Uiso   1.00
O130   O     0.24902   0.57767   0.27766   0.00000  Uiso   1.00
O131   O     0.42439   0.03869   0.79637   0.00000  Uiso   1.00
O132   O     0.39570   0.54484   0.31970   0.00000  Uiso   1.00
N133   N     0.23290   0.62866   0.11636   0.00000  Uiso   1.00
N134   N     0.35787   0.95720   0.77341   0.00000  Uiso   1.00
N135   N     0.33743   0.60530   0.43372   0.00000  Uiso   1.00
N136   N     0.32683   0.60866   0.16318   0.00000  Uiso   1.00
N137   N     0.45180   0.93720   0.82023   0.00000  Uiso   1.00
N138   N     0.43137   0.58530   0.48053   0.00000  Uiso   1.00
C139   C     0.69888   0.26789   0.77039   0.00000  Uiso   1.00
C140   C     0.69473   0.30130   0.87717   0.00000  Uiso   1.00
C141   C     0.74356   0.31824   0.94088   0.00000  Uiso   1.00
C142   C     0.73025   0.34844   0.03568   0.00000  Uiso   1.00
C143   C     0.73293   0.39834   0.19696   0.00000  Uiso   1.00
C144   C     0.66028   0.21074   0.78267   0.00000  Uiso   1.00
C145   C     0.68016   0.15155   0.76691   0.00000  Uiso   1.00
C146   C     0.63786   0.10553   0.78214   0.00000  Uiso   1.00
C147   C     0.58705   0.01486   0.79663   0.00000  Uiso   1.00
C148   C     0.66592   0.30774   0.68906   0.00000  Uiso   1.00
C149   C     0.69053   0.33008   0.59458   0.00000  Uiso   1.00
C150   C     0.65297   0.36571   0.53098   0.00000  Uiso   1.00
C151   C     0.61092   0.42563   0.40013   0.00000  Uiso   1.00
C152   C     0.58841   0.29141   0.82544   0.00000  Uiso   1.00
C153   C     0.63472   0.31407   0.90707   0.00000  Uiso   1.00
C154   C     0.62134   0.34426   0.00179   0.00000  Uiso   1.00
C155   C     0.67015   0.36124   0.06563   0.00000  Uiso   1.00
C156   C     0.60029   0.22352   0.81257   0.00000  Uiso   1.00
C157   C     0.55794   0.17757   0.82782   0.00000  Uiso   1.00
C158   C     0.57775   0.11833   0.81210   0.00000  Uiso   1.00
C159   C     0.60592   0.32051   0.71896   0.00000  Uiso   1.00
C160   C     0.56831   0.35611   0.65549   0.00000  Uiso   1.00
C161   C     0.59286   0.37851   0.56094   0.00000  Uiso   1.00
H162   H     0.74559   0.25794   0.74711   0.00000  Uiso   1.00
H163   H     0.78998   0.30834   0.91772   0.00000  Uiso   1.00
H164   H     0.72659   0.14168   0.74376   0.00000  Uiso   1.00
H165   H     0.73696   0.32019   0.57147   0.00000  Uiso   1.00
H166   H     0.81274   0.36982   0.12007   0.00000  Uiso   1.00
H167   H     0.67907   0.01843   0.75324   0.00000  Uiso   1.00
H168   H     0.70094   0.39484   0.38992   0.00000  Uiso   1.00
H169   H     0.54170   0.30135   0.84872   0.00000  Uiso   1.00
H170   H     0.57490   0.35414   0.02491   0.00000  Uiso   1.00
H171   H     0.51151   0.18748   0.85095   0.00000  Uiso   1.00
H172   H     0.52188   0.36598   0.67866   0.00000  Uiso   1.00
H173   H     0.63818   0.40699   0.20708   0.00000  Uiso   1.00
H174   H     0.50451   0.05559   0.84024   0.00000  Uiso   1.00
H175   H     0.52637   0.43201   0.47692   0.00000  Uiso   1.00
O176   O     0.75098   0.42233   0.27766   0.00000  Uiso   1.00
O177   O     0.57561   0.96131   0.79637   0.00000  Uiso   1.00
O178   O     0.60430   0.45516   0.31970   0.00000  Uiso   1.00
N179   N     0.76710   0.37134   0.11636   0.00000  Uiso   1.00
N180   N     0.64213   0.04280   0.77341   0.00000  Uiso   1.00
N181   N     0.66257   0.39470   0.43372   0.00000  Uiso   1.00
N182   N     0.67317   0.39134   0.16318   0.00000  Uiso   1.00
N183   N     0.54820   0.06280   0.82023   0.00000  Uiso   1.00
N184   N     0.56863   0.41470   0.48053   0.00000  Uiso   1.00
C185   C     0.23211   0.80112   0.27039   0.00000  Uiso   1.00
C186   C     0.19870   0.80527   0.37717   0.00000  Uiso   1.00
C187   C     0.18176   0.75644   0.44088   0.00000  Uiso   1.00
C188   C     0.15156   0.76975   0.53568   0.00000  Uiso   1.00
C189   C     0.10166   0.76707   0.69696   0.00000  Uiso   1.00
C190   C     0.28926   0.83972   0.28267   0.00000  Uiso   1.00
C191   C     0.34845   0.81984   0.26691   0.00000  Uiso   1.00
C192   C     0.39447   0.86214   0.28214   0.00000  Uiso   1.00
C193   C     0.48514   0.91295   0.29663   0.00000  Uiso   1.00
C194   C     0.19226   0.83408   0.18906   0.00000  Uiso   1.00
C195   C     0.16992   0.80947   0.09458   0.00000  Uiso   1.00
C196   C     0.13429   0.84703   0.03098   0.00000  Uiso   1.00
C197   C     0.07437   0.88908   0.90013   0.00000  Uiso   1.00
C198   C     0.20859   0.91159   0.32544   0.00000  Uiso   1.00
C199   C     0.18593   0.86528   0.40707   0.00000  Uiso   1.00
C200   C     0.15574   0.87866   0.50179   0.00000  Uiso   1.00
C201   C     0.13876   0.82985   0.56563   0.00000  Uiso   1.00
C202   C     0.27648   0.89971   0.31257   0.00000  Uiso   1.00
C203   C     0.32243   0.94206   0.32782   0.00000  Uiso   1.00
C204   C     0.38167   0.92225   0.31210   0.00000  Uiso   1.00
C205   C     0.17949   0.89408   0.21896   0.00000  Uiso   1.00
C206   C     0.14389   0.93169   0.15549   0.00000  Uiso   1.00
C207   C     0.12149   0.90714   0.06094   0.00000  Uiso   1.00
H208   H     0.24206   0.75441   0.24711   0.00000  Uiso   1.00
H209   H     0.19166   0.71002   0.41772   0.00000  Uiso   1.00
H210   H     0.35832   0.77341   0.24376   0.00000  Uiso   1.00
H211   H     0.17981   0.76304   0.07147   0.00000  Uiso   1.00
H212   H     0.13018   0.68726   0.62007   0.00000  Uiso   1.00
H213   H     0.48157   0.82093   0.25324   0.00000  Uiso   1.00
H214   H     0.10516   0.79906   0.88992   0.00000  Uiso   1.00
H215   H     0.19865   0.95830   0.34872   0.00000  Uiso   1.00
H216   H     0.14586   0.92510   0.52491   0.00000  Uiso   1.00
H217   H     0.31252   0.98849   0.35095   0.00000  Uiso   1.00
H218   H     0.13402   0.97812   0.17866   0.00000  Uiso   1.00
H219   H     0.09301   0.86182   0.70708   0.00000  Uiso   1.00
H220   H     0.44441   0.99549   0.34024   0.00000  Uiso   1.00
H221   H     0.06799   0.97363   0.97692   0.00000  Uiso   1.00
O222   O     0.07767   0.74902   0.77766   0.00000  Uiso   1.00
O223   O     0.53869   0.92439   0.29637   0.00000  Uiso   1.00
O224   O     0.04484   0.89570   0.81970   0.00000  Uiso   1.00
N225   N     0.12866   0.73290   0.61636   0.00000  Uiso   1.00
N226   N     0.45720   0.85787   0.27341   0.00000  Uiso   1.00
N227   N     0.10530   0.83743   0.93372   0.00000  Uiso   1.00
N228   N     0.10866   0.82683   0.66318   0.00000  Uiso   1.00
N229   N     0.43720   0.95180   0.32023   0.00000  Uiso   1.00
N230   N     0.08530   0.93137   0.98053   0.00000  Uiso   1.00
C231   C     0.76789   0.19888   0.27039   0.00000  Uiso   1.00
C232   C     0.80130   0.19473   0.37717   0.00000  Uiso   1.00
C233   C     0.81824   0.24356   0.44088   0.00000  Uiso   1.00
C234   C     0.84844   0.23025   0.53568   0.00000  Uiso   1.00
C235   C     0.89834   0.23293   0.69696   0.00000  Uiso   1.00
C236   C     0.71074   0.16028   0.28267   0.00000  Uiso   1.00
C237   C     0.65155   0.18016   0.26691   0.00000  Uiso   1.00
C238   C     0.60553   0.13786   0.28214   0.00000  Uiso   1.00
C239   C     0.51486   0.08705   0.29663   0.00000  Uiso   1.00
C240   C     0.80774   0.16592   0.18906   0.00000  Uiso   1.00
C241   C     0.83008   0.19053   0.09458   0.00000  Uiso   1.00
C242   C     0.86571   0.15297   0.03098   0.00000  Uiso   1.00
C243   C     0.92563   0.11092   0.90013   0.00000  Uiso   1.00
C244   C     0.79141   0.08841   0.32544   0.00000  Uiso   1.00
C245   C     0.81407   0.13472   0.40707   0.00000  Uiso   1.00
C246   C     0.84426   0.12134   0.50179   0.00000  Uiso   1.00
C247   C     0.86124   0.17015   0.56563   0.00000  Uiso   1.00
C248   C     0.72352   0.10029   0.31257   0.00000  Uiso   1.00
C249   C     0.67757   0.05794   0.32782   0.00000  Uiso   1.00
C250   C     0.61833   0.07775   0.31210   0.00000  Uiso   1.00
C251   C     0.82051   0.10592   0.21896   0.00000  Uiso   1.00
C252   C     0.85611   0.06831   0.15549   0.00000  Uiso   1.00
C253   C     0.87851   0.09286   0.06094   0.00000  Uiso   1.00
H254   H     0.75794   0.24559   0.24711   0.00000  Uiso   1.00
H255   H     0.80834   0.28998   0.41772   0.00000  Uiso   1.00
H256   H     0.64168   0.22659   0.24376   0.00000  Uiso   1.00
H257   H     0.82019   0.23696   0.07147   0.00000  Uiso   1.00
H258   H     0.86982   0.31274   0.62007   0.00000  Uiso   1.00
H259   H     0.51843   0.17907   0.25324   0.00000  Uiso   1.00
H260   H     0.89484   0.20094   0.88992   0.00000  Uiso   1.00
H261   H     0.80135   0.04170   0.34872   0.00000  Uiso   1.00
H262   H     0.85414   0.07490   0.52491   0.00000  Uiso   1.00
H263   H     0.68748   0.01151   0.35095   0.00000  Uiso   1.00
H264   H     0.86598   0.02188   0.17866   0.00000  Uiso   1.00
H265   H     0.90699   0.13818   0.70708   0.00000  Uiso   1.00
H266   H     0.55559   0.00451   0.34024   0.00000  Uiso   1.00
H267   H     0.93201   0.02637   0.97692   0.00000  Uiso   1.00
O268   O     0.92233   0.25098   0.77766   0.00000  Uiso   1.00
O269   O     0.46131   0.07561   0.29637   0.00000  Uiso   1.00
O270   O     0.95516   0.10430   0.81970   0.00000  Uiso   1.00
N271   N     0.87134   0.26710   0.61636   0.00000  Uiso   1.00
N272   N     0.54280   0.14213   0.27341   0.00000  Uiso   1.00
N273   N     0.89470   0.16257   0.93372   0.00000  Uiso   1.00
N274   N     0.89134   0.17317   0.66318   0.00000  Uiso   1.00
N275   N     0.56280   0.04820   0.32023   0.00000  Uiso   1.00
N276   N     0.91470   0.06863   0.98053   0.00000  Uiso   1.00
C277   C     0.80112   0.76789   0.77039   0.00000  Uiso   1.00
C278   C     0.80527   0.80130   0.87717   0.00000  Uiso   1.00
C279   C     0.75644   0.81824   0.94088   0.00000  Uiso   1.00
C280   C     0.76975   0.84844   0.03568   0.00000  Uiso   1.00
C281   C     0.76707   0.89834   0.19696   0.00000  Uiso   1.00
C282   C     0.83972   0.71074   0.78267   0.00000  Uiso   1.00
C283   C     0.81984   0.65155   0.76691   0.00000  Uiso   1.00
C284   C     0.86214   0.60553   0.78214   0.00000  Uiso   1.00
C285   C     0.91295   0.51486   0.79663   0.00000  Uiso   1.00
C286   C     0.83408   0.80774   0.68906   0.00000  Uiso   1.00
C287   C     0.80947   0.83008   0.59458   0.00000  Uiso   1.00
C288   C     0.84703   0.86571   0.53098   0.00000  Uiso   1.00
C289   C     0.88908   0.92563   0.40013   0.00000  Uiso   1.00
C290   C     0.91159   0.79141   0.82544   0.00000  Uiso   1.00
C291   C     0.86528   0.81407   0.90707   0.00000  Uiso   1.00
C292   C     0.87866   0.84426   0.00179   0.00000  Uiso   1.00
C293   C     0.82985   0.86124   0.06563   0.00000  Uiso   1.00
C294   C     0.89971   0.72352   0.81257   0.00000  Uiso   1.00
C295   C     0.94206   0.67757   0.82782   0.00000  Uiso   1.00
C296   C     0.92225   0.61833   0.81210   0.00000  Uiso   1.00
C297   C     0.89408   0.82051   0.71896   0.00000  Uiso   1.00
C298   C     0.93169   0.85611   0.65549   0.00000  Uiso   1.00
C299   C     0.90714   0.87851   0.56094   0.00000  Uiso   1.00
H300   H     0.75441   0.75794   0.74711   0.00000  Uiso   1.00
H301   H     0.71002   0.80834   0.91772   0.00000  Uiso   1.00
H302   H     0.77341   0.64168   0.74376   0.00000  Uiso   1.00
H303   H     0.76304   0.82019   0.57147   0.00000  Uiso   1.00
H304   H     0.68726   0.86982   0.12007   0.00000  Uiso   1.00
H305   H     0.82093   0.51843   0.75324   0.00000  Uiso   1.00
H306   H     0.79906   0.89484   0.38992   0.00000  Uiso   1.00
H307   H     0.95830   0.80135   0.84872   0.00000  Uiso   1.00
H308   H     0.92510   0.85414   0.02491   0.00000  Uiso   1.00
H309   H     0.98849   0.68748   0.85095   0.00000  Uiso   1.00
H310   H     0.97812   0.86598   0.67866   0.00000  Uiso   1.00
H311   H     0.86182   0.90699   0.20708   0.00000  Uiso   1.00
H312   H     0.99549   0.55559   0.84024   0.00000  Uiso   1.00
H313   H     0.97363   0.93201   0.47692   0.00000  Uiso   1.00
O314   O     0.74902   0.92233   0.27766   0.00000  Uiso   1.00
O315   O     0.92439   0.46131   0.79637   0.00000  Uiso   1.00
O316   O     0.89570   0.95516   0.31970   0.00000  Uiso   1.00
N317   N     0.73290   0.87134   0.11636   0.00000  Uiso   1.00
N318   N     0.85787   0.54280   0.77341   0.00000  Uiso   1.00
N319   N     0.83743   0.89470   0.43372   0.00000  Uiso   1.00
N320   N     0.82683   0.89134   0.16318   0.00000  Uiso   1.00
N321   N     0.95180   0.56280   0.82023   0.00000  Uiso   1.00
N322   N     0.93137   0.91470   0.48053   0.00000  Uiso   1.00
C323   C     0.19888   0.23211   0.77039   0.00000  Uiso   1.00
C324   C     0.19473   0.19870   0.87717   0.00000  Uiso   1.00
C325   C     0.24356   0.18176   0.94088   0.00000  Uiso   1.00
C326   C     0.23025   0.15156   0.03568   0.00000  Uiso   1.00
C327   C     0.23293   0.10166   0.19696   0.00000  Uiso   1.00
C328   C     0.16028   0.28926   0.78267   0.00000  Uiso   1.00
C329   C     0.18016   0.34845   0.76691   0.00000  Uiso   1.00
C330   C     0.13786   0.39447   0.78214   0.00000  Uiso   1.00
C331   C     0.08705   0.48514   0.79663   0.00000  Uiso   1.00
C332   C     0.16592   0.19226   0.68906   0.00000  Uiso   1.00
C333   C     0.19053   0.16992   0.59458   0.00000  Uiso   1.00
C334   C     0.15297   0.13429   0.53098   0.00000  Uiso   1.00
C335   C     0.11092   0.07437   0.40013   0.00000  Uiso   1.00
C336   C     0.08841   0.20859   0.82544   0.00000  Uiso   1.00
C337   C     0.13472   0.18593   0.90707   0.00000  Uiso   1.00
C338   C     0.12134   0.15574   0.00179   0.00000  Uiso   1.00
C339   C     0.17015   0.13876   0.06563   0.00000  Uiso   1.00
C340   C     0.10029   0.27648   0.81257   0.00000  Uiso   1.00
C341   C     0.05794   0.32243   0.82782   0.00000  Uiso   1.00
C342   C     0.07775   0.38167   0.81210   0.00000  Uiso   1.00
C343   C     0.10592   0.17949   0.71896   0.00000  Uiso   1.00
C344   C     0.06831   0.14389   0.65549   0.00000  Uiso   1.00
C345   C     0.09286   0.12149   0.56094   0.00000  Uiso   1.00
H346   H     0.24559   0.24206   0.74711   0.00000  Uiso   1.00
H347   H     0.28998   0.19166   0.91772   0.00000  Uiso   1.00
H348   H     0.22659   0.35832   0.74376   0.00000  Uiso   1.00
H349   H     0.23696   0.17981   0.57147   0.00000  Uiso   1.00
H350   H     0.31274   0.13018   0.12007   0.00000  Uiso   1.00
H351   H     0.17907   0.48157   0.75324   0.00000  Uiso   1.00
H352   H     0.20094   0.10516   0.38992   0.00000  Uiso   1.00
H353   H     0.04170   0.19865   0.84872   0.00000  Uiso   1.00
H354   H     0.07490   0.14586   0.02491   0.00000  Uiso   1.00
H355   H     0.01151   0.31252   0.85095   0.00000  Uiso   1.00
H356   H     0.02188   0.13402   0.67866   0.00000  Uiso   1.00
H357   H     0.13818   0.09301   0.20708   0.00000  Uiso   1.00
H358   H     0.00451   0.44441   0.84024   0.00000  Uiso   1.00
H359   H     0.02637   0.06799   0.47692   0.00000  Uiso   1.00
O360   O     0.25098   0.07767   0.27766   0.00000  Uiso   1.00
O361   O     0.07561   0.53869   0.79637   0.00000  Uiso   1.00
O362   O     0.10430   0.04484   0.31970   0.00000  Uiso   1.00
N363   N     0.26710   0.12866   0.11636   0.00000  Uiso   1.00
N364   N     0.14213   0.45720   0.77341   0.00000  Uiso   1.00
N365   N     0.16257   0.10530   0.43372   0.00000  Uiso   1.00
N366   N     0.17317   0.10866   0.16318   0.00000  Uiso   1.00
N367   N     0.04820   0.43720   0.82023   0.00000  Uiso   1.00
N368   N     0.06863   0.08530   0.48053   0.00000  Uiso   1.00
