data_job_06564
_audit_creation_date              2018-12-19
_audit_creation_method            'Materials Studio'
_symmetry_space_group_name_H-M    'P1'
_symmetry_Int_Tables_number       1
_symmetry_cell_setting            triclinic
loop_
_symmetry_equiv_pos_as_xyz
  x,y,z
_cell_length_a                    19.0114
_cell_length_b                    21.0802
_cell_length_c                    22.6294
_cell_angle_alpha                 101.0040
_cell_angle_beta                  72.3959
_cell_angle_gamma                 68.2199
loop_
_atom_site_label
_atom_site_type_symbol
_atom_site_fract_x
_atom_site_fract_y
_atom_site_fract_z
_atom_site_U_iso_or_equiv
_atom_site_adp_type
_atom_site_occupancy
C1     C     0.33736   0.76766   0.68172   0.00000  Uiso   1.00
C2     C     0.24410   0.81747   0.71177   0.00000  Uiso   1.00
C3     C     0.20032   0.87714   0.76966   0.00000  Uiso   1.00
C4     C     0.11530   0.91573   0.78884   0.00000  Uiso   1.00
C5     C     0.97652   0.99616   0.84120   0.00000  Uiso   1.00
C6     C     0.34753   0.69097   0.67444   0.00000  Uiso   1.00
C7     C     0.39072   0.64428   0.70095   0.00000  Uiso   1.00
C8     C     0.39278   0.57637   0.68870   0.00000  Uiso   1.00
C9     C     0.41462   0.46038   0.68307   0.00000  Uiso   1.00
C10    C     0.37035   0.76878   0.61176   0.00000  Uiso   1.00
C11    C     0.43276   0.78750   0.58555   0.00000  Uiso   1.00
C12    C     0.45405   0.78509   0.52052   0.00000  Uiso   1.00
C13    C     0.51134   0.78991   0.41757   0.00000  Uiso   1.00
C14    C     0.26423   0.73007   0.61284   0.00000  Uiso   1.00
C15    C     0.20438   0.79705   0.67435   0.00000  Uiso   1.00
C16    C     0.11940   0.83556   0.69344   0.00000  Uiso   1.00
C17    C     0.07551   0.89529   0.75136   0.00000  Uiso   1.00
C18    C     0.30781   0.67055   0.63703   0.00000  Uiso   1.00
C19    C     0.30981   0.60270   0.62473   0.00000  Uiso   1.00
C20    C     0.35298   0.55592   0.65121   0.00000  Uiso   1.00
C21    C     0.33063   0.74837   0.57434   0.00000  Uiso   1.00
C22    C     0.35184   0.74592   0.50934   0.00000  Uiso   1.00
C23    C     0.41426   0.76464   0.48304   0.00000  Uiso   1.00
H24    H     0.36829   0.78355   0.71085   0.00000  Uiso   1.00
H25    H     0.23108   0.89292   0.79860   0.00000  Uiso   1.00
H26    H     0.42146   0.66009   0.72989   0.00000  Uiso   1.00
H27    H     0.46348   0.80329   0.61452   0.00000  Uiso   1.00
H28    H     0.06143   0.00516   0.87941   0.00000  Uiso   1.00
H29    H     0.46288   0.51422   0.73451   0.00000  Uiso   1.00
H30    H     0.55150   0.81618   0.49122   0.00000  Uiso   1.00
H31    H     0.23331   0.71418   0.58370   0.00000  Uiso   1.00
H32    H     0.08868   0.81975   0.66448   0.00000  Uiso   1.00
H33    H     0.27906   0.58692   0.59577   0.00000  Uiso   1.00
H34    H     0.32109   0.73012   0.48040   0.00000  Uiso   1.00
H35    H     0.94586   0.94578   0.77055   0.00000  Uiso   1.00
H36    H     0.34731   0.45483   0.62565   0.00000  Uiso   1.00
H37    H     0.43593   0.75679   0.38236   0.00000  Uiso   1.00
O38    O     0.91094   0.04616   0.88042   0.00000  Uiso   1.00
O39    O     0.43763   0.40205   0.69031   0.00000  Uiso   1.00
O40    O     0.55390   0.79822   0.37112   0.00000  Uiso   1.00
N41    N     0.05408   0.97671   0.84269   0.00000  Uiso   1.00
N42    N     0.42940   0.51771   0.70723   0.00000  Uiso   1.00
N43    N     0.51227   0.80000   0.47977   0.00000  Uiso   1.00
N44    N     0.99189   0.94475   0.78412   0.00000  Uiso   1.00
N45    N     0.36721   0.48575   0.64865   0.00000  Uiso   1.00
N46    N     0.45008   0.76804   0.42119   0.00000  Uiso   1.00
C47    C     0.85930   0.44910   0.26203   0.00000  Uiso   1.00
C48    C     0.77065   0.47830   0.26682   0.00000  Uiso   1.00
C49    C     0.72515   0.43970   0.26860   0.00000  Uiso   1.00
C50    C     0.64507   0.47613   0.27304   0.00000  Uiso   1.00
C51    C     0.51249   0.51045   0.28006   0.00000  Uiso   1.00
C52    C     0.90912   0.45975   0.20127   0.00000  Uiso   1.00
C53    C     0.98004   0.40554   0.14794   0.00000  Uiso   1.00
C54    C     0.01654   0.42635   0.09721   0.00000  Uiso   1.00
C55    C     0.09897   0.43186   0.00249   0.00000  Uiso   1.00
C56    C     0.85614   0.50061   0.32123   0.00000  Uiso   1.00
C57    C     0.88255   0.48077   0.36875   0.00000  Uiso   1.00
C58    C     0.87446   0.53598   0.41901   0.00000  Uiso   1.00
C59    C     0.87465   0.60495   0.51054   0.00000  Uiso   1.00
C60    C     0.79801   0.58243   0.26677   0.00000  Uiso   1.00
C61    C     0.73736   0.55072   0.26939   0.00000  Uiso   1.00
C62    C     0.65733   0.58722   0.27384   0.00000  Uiso   1.00
C63    C     0.61172   0.54868   0.27562   0.00000  Uiso   1.00
C64    C     0.87583   0.53216   0.20384   0.00000  Uiso   1.00
C65    C     0.91223   0.55305   0.15318   0.00000  Uiso   1.00
C66    C     0.98319   0.49889   0.09979   0.00000  Uiso   1.00
C67    C     0.82285   0.57303   0.32381   0.00000  Uiso   1.00
C68    C     0.81473   0.62828   0.37400   0.00000  Uiso   1.00
C69    C     0.84111   0.60853   0.42159   0.00000  Uiso   1.00
H70    H     0.88523   0.39272   0.26002   0.00000  Uiso   1.00
H71    H     0.75094   0.38366   0.26660   0.00000  Uiso   1.00
H72    H     0.00580   0.34951   0.14597   0.00000  Uiso   1.00
H73    H     0.90831   0.42473   0.36675   0.00000  Uiso   1.00
H74    H     0.58738   0.40554   0.27500   0.00000  Uiso   1.00
H75    H     0.12478   0.33353   0.02065   0.00000  Uiso   1.00
H76    H     0.91922   0.49214   0.48621   0.00000  Uiso   1.00
H77    H     0.77209   0.63881   0.26877   0.00000  Uiso   1.00
H78    H     0.63159   0.64326   0.27583   0.00000  Uiso   1.00
H79    H     0.88645   0.60910   0.15519   0.00000  Uiso   1.00
H80    H     0.78896   0.68432   0.37597   0.00000  Uiso   1.00
H81    H     0.49051   0.61624   0.28249   0.00000  Uiso   1.00
H82    H     0.02792   0.54423   0.02814   0.00000  Uiso   1.00
H83    H     0.82235   0.70284   0.49370   0.00000  Uiso   1.00
O84    O     0.44857   0.50937   0.28321   0.00000  Uiso   1.00
O85    O     0.15363   0.41489   0.94952   0.00000  Uiso   1.00
O86    O     0.88393   0.62299   0.56032   0.00000  Uiso   1.00
N87    N     0.58386   0.45453   0.27581   0.00000  Uiso   1.00
N88    N     0.08629   0.38720   0.03800   0.00000  Uiso   1.00
N89    N     0.89413   0.53548   0.47325   0.00000  Uiso   1.00
N90    N     0.53173   0.56790   0.27984   0.00000  Uiso   1.00
N91    N     0.03417   0.50057   0.04203   0.00000  Uiso   1.00
N92    N     0.84200   0.64886   0.47728   0.00000  Uiso   1.00
C93    C     0.93253   0.97312   0.32757   0.00000  Uiso   1.00
C94    C     0.85811   0.98362   0.31064   0.00000  Uiso   1.00
C95    C     0.85454   0.98693   0.25089   0.00000  Uiso   1.00
C96    C     0.78082   0.99681   0.24517   0.00000  Uiso   1.00
C97    C     0.67554   0.01219   0.21096   0.00000  Uiso   1.00
C98    C     0.90114   0.03753   0.38940   0.00000  Uiso   1.00
C99    C     0.93376   0.08615   0.39586   0.00000  Uiso   1.00
C100   C     0.89627   0.14141   0.45644   0.00000  Uiso   1.00
C101   C     0.85784   0.24045   0.54450   0.00000  Uiso   1.00
C102   C     0.95296   0.90622   0.34854   0.00000  Uiso   1.00
C103   C     0.02917   0.84445   0.32067   0.00000  Uiso   1.00
C104   C     0.03531   0.78917   0.34687   0.00000  Uiso   1.00
C105   C     0.07734   0.68434   0.37151   0.00000  Uiso   1.00
C106   C     0.80795   0.98480   0.42368   0.00000  Uiso   1.00
C107   C     0.79044   0.98996   0.36285   0.00000  Uiso   1.00
C108   C     0.71670   0.99984   0.35722   0.00000  Uiso   1.00
C109   C     0.71303   0.00316   0.29747   0.00000  Uiso   1.00
C110   C     0.83347   0.04387   0.44160   0.00000  Uiso   1.00
C111   C     0.79593   0.09907   0.50219   0.00000  Uiso   1.00
C112   C     0.82848   0.14777   0.50874   0.00000  Uiso   1.00
C113   C     0.88529   0.91256   0.40075   0.00000  Uiso   1.00
C114   C     0.89133   0.85737   0.42700   0.00000  Uiso   1.00
C115   C     0.96752   0.79553   0.39917   0.00000  Uiso   1.00
H116   H     0.98521   0.96819   0.28693   0.00000  Uiso   1.00
H117   H     0.90692   0.98202   0.21050   0.00000  Uiso   1.00
H118   H     0.98613   0.08123   0.35545   0.00000  Uiso   1.00
H119   H     0.08151   0.83957   0.28027   0.00000  Uiso   1.00
H120   H     0.79026   0.00018   0.14880   0.00000  Uiso   1.00
H121   H     0.95731   0.20935   0.45443   0.00000  Uiso   1.00
H122   H     0.15845   0.69976   0.29591   0.00000  Uiso   1.00
H123   H     0.75526   0.98973   0.46433   0.00000  Uiso   1.00
H124   H     0.66435   0.00475   0.39763   0.00000  Uiso   1.00
H125   H     0.74357   0.10396   0.54258   0.00000  Uiso   1.00
H126   H     0.83895   0.86230   0.46740   0.00000  Uiso   1.00
H127   H     0.59338   0.01864   0.30068   0.00000  Uiso   1.00
H128   H     0.76044   0.22780   0.60631   0.00000  Uiso   1.00
H129   H     0.96157   0.71821   0.44779   0.00000  Uiso   1.00
O130   O     0.63616   0.01892   0.17767   0.00000  Uiso   1.00
O131   O     0.85533   0.29333   0.57865   0.00000  Uiso   1.00
O132   O     0.11922   0.62476   0.37067   0.00000  Uiso   1.00
N133   N     0.75641   0.00245   0.19369   0.00000  Uiso   1.00
N134   N     0.91258   0.19802   0.47944   0.00000  Uiso   1.00
N135   N     0.10064   0.72160   0.33124   0.00000  Uiso   1.00
N136   N     0.65047   0.01238   0.27541   0.00000  Uiso   1.00
N137   N     0.80664   0.20794   0.56116   0.00000  Uiso   1.00
N138   N     0.99470   0.73153   0.41297   0.00000  Uiso   1.00
C139   C     0.38692   0.03917   0.52878   0.00000  Uiso   1.00
C140   C     0.31163   0.03017   0.56591   0.00000  Uiso   1.00
C141   C     0.27032   0.00098   0.53738   0.00000  Uiso   1.00
C142   C     0.20283   0.99744   0.57983   0.00000  Uiso   1.00
C143   C     0.08979   0.97965   0.62706   0.00000  Uiso   1.00
C144   C     0.45450   0.99898   0.55012   0.00000  Uiso   1.00
C145   C     0.53332   0.94357   0.50831   0.00000  Uiso   1.00
C146   C     0.58610   0.91379   0.53748   0.00000  Uiso   1.00
C147   C     0.69489   0.84762   0.56018   0.00000  Uiso   1.00
C148   C     0.36283   0.11963   0.55675   0.00000  Uiso   1.00
C149   C     0.36458   0.16567   0.52052   0.00000  Uiso   1.00
C150   C     0.34019   0.23745   0.55527   0.00000  Uiso   1.00
C151   C     0.30664   0.35861   0.58827   0.00000  Uiso   1.00
C152   C     0.34053   0.08480   0.65490   0.00000  Uiso   1.00
C153   C     0.28644   0.05495   0.63441   0.00000  Uiso   1.00
C154   C     0.21899   0.05145   0.67691   0.00000  Uiso   1.00
C155   C     0.17758   0.02226   0.64846   0.00000  Uiso   1.00
C156   C     0.42931   0.02376   0.61861   0.00000  Uiso   1.00
C157   C     0.48199   0.99405   0.64784   0.00000  Uiso   1.00
C158   C     0.56085   0.93861   0.60610   0.00000  Uiso   1.00
C159   C     0.33763   0.14441   0.62525   0.00000  Uiso   1.00
C160   C     0.31324   0.21614   0.66005   0.00000  Uiso   1.00
C161   C     0.31495   0.26228   0.62389   0.00000  Uiso   1.00
H162   H     0.40654   0.01988   0.47545   0.00000  Uiso   1.00
H163   H     0.28984   0.98180   0.48437   0.00000  Uiso   1.00
H164   H     0.55280   0.92441   0.45531   0.00000  Uiso   1.00
H165   H     0.38408   0.14647   0.46752   0.00000  Uiso   1.00
H166   H     0.14937   0.95049   0.52446   0.00000  Uiso   1.00
H167   H     0.70384   0.82950   0.46318   0.00000  Uiso   1.00
H168   H     0.34806   0.29775   0.48892   0.00000  Uiso   1.00
H169   H     0.32091   0.10409   0.70823   0.00000  Uiso   1.00
H170   H     0.19951   0.07063   0.72992   0.00000  Uiso   1.00
H171   H     0.46247   0.01324   0.70085   0.00000  Uiso   1.00
H172   H     0.29375   0.23530   0.71306   0.00000  Uiso   1.00
H173   H     0.07605   0.02258   0.72376   0.00000  Uiso   1.00
H174   H     0.63052   0.90160   0.66247   0.00000  Uiso   1.00
H175   H     0.27474   0.36984   0.68822   0.00000  Uiso   1.00
O176   O     0.03441   0.96299   0.63418   0.00000  Uiso   1.00
O177   O     0.76185   0.80427   0.55377   0.00000  Uiso   1.00
O178   O     0.29508   0.41859   0.58755   0.00000  Uiso   1.00
N179   N     0.14876   0.97206   0.56839   0.00000  Uiso   1.00
N180   N     0.66715   0.85894   0.51109   0.00000  Uiso   1.00
N181   N     0.33456   0.29670   0.53516   0.00000  Uiso   1.00
N182   N     0.10931   0.01086   0.67563   0.00000  Uiso   1.00
N183   N     0.62770   0.89773   0.61833   0.00000  Uiso   1.00
N184   N     0.29510   0.33550   0.64240   0.00000  Uiso   1.00
C185   C     0.47124   0.28061   0.02070   0.00000  Uiso   1.00
C186   C     0.41828   0.24101   0.03200   0.00000  Uiso   1.00
C187   C     0.43554   0.18093   0.05225   0.00000  Uiso   1.00
C188   C     0.37936   0.15263   0.05976   0.00000  Uiso   1.00
C189   C     0.30787   0.08650   0.07920   0.00000  Uiso   1.00
C190   C     0.41406   0.35984   0.06468   0.00000  Uiso   1.00
C191   C     0.42779   0.39966   0.11240   0.00000  Uiso   1.00
C192   C     0.36806   0.47139   0.14742   0.00000  Uiso   1.00
C193   C     0.29005   0.58974   0.21758   0.00000  Uiso   1.00
C194   C     0.49197   0.27975   0.94989   0.00000  Uiso   1.00
C195   C     0.57121   0.25225   0.90109   0.00000  Uiso   1.00
C196   C     0.57707   0.25657   0.83946   0.00000  Uiso   1.00
C197   C     0.62004   0.25058   0.73138   0.00000  Uiso   1.00
C198   C     0.34076   0.33718   0.99802   0.00000  Uiso   1.00
C199   C     0.34740   0.27175   0.01968   0.00000  Uiso   1.00
C200   C     0.29118   0.24352   0.02716   0.00000  Uiso   1.00
C201   C     0.30836   0.18341   0.04741   0.00000  Uiso   1.00
C202   C     0.34319   0.39057   0.05237   0.00000  Uiso   1.00
C203   C     0.28342   0.46225   0.08731   0.00000  Uiso   1.00
C204   C     0.29705   0.50217   0.13508   0.00000  Uiso   1.00
C205   C     0.42110   0.31048   0.93757   0.00000  Uiso   1.00
C206   C     0.42684   0.31484   0.87600   0.00000  Uiso   1.00
C207   C     0.50607   0.28735   0.82712   0.00000  Uiso   1.00
H208   H     0.52642   0.25669   0.03029   0.00000  Uiso   1.00
H209   H     0.49039   0.15717   0.06178   0.00000  Uiso   1.00
H210   H     0.48264   0.37586   0.12192   0.00000  Uiso   1.00
H211   H     0.62604   0.22848   0.91064   0.00000  Uiso   1.00
H212   H     0.41918   0.06040   0.09128   0.00000  Uiso   1.00
H213   H     0.40285   0.52154   0.21808   0.00000  Uiso   1.00
H214   H     0.70523   0.21075   0.77255   0.00000  Uiso   1.00
H215   H     0.28558   0.36111   0.98843   0.00000  Uiso   1.00
H216   H     0.23634   0.26732   0.01762   0.00000  Uiso   1.00
H217   H     0.22859   0.48602   0.07776   0.00000  Uiso   1.00
H218   H     0.37198   0.33863   0.86648   0.00000  Uiso   1.00
H219   H     0.21298   0.14981   0.05544   0.00000  Uiso   1.00
H220   H     0.19665   0.61095   0.18224   0.00000  Uiso   1.00
H221   H     0.49903   0.30015   0.73671   0.00000  Uiso   1.00
O222   O     0.28802   0.04154   0.09334   0.00000  Uiso   1.00
O223   O     0.26661   0.64654   0.25968   0.00000  Uiso   1.00
O224   O     0.66332   0.23877   0.67516   0.00000  Uiso   1.00
N225   N     0.37742   0.09431   0.07883   0.00000  Uiso   1.00
N226   N     0.36215   0.52544   0.19738   0.00000  Uiso   1.00
N227   N     0.64484   0.23489   0.78086   0.00000  Uiso   1.00
N228   N     0.26646   0.14241   0.05954   0.00000  Uiso   1.00
N229   N     0.25119   0.57355   0.17810   0.00000  Uiso   1.00
N230   N     0.53389   0.28300   0.76157   0.00000  Uiso   1.00
C231   C     0.64762   0.77854   0.00501   0.00000  Uiso   1.00
C232   C     0.57227   0.78718   0.98998   0.00000  Uiso   1.00
C233   C     0.49232   0.84352   0.02591   0.00000  Uiso   1.00
C234   C     0.43200   0.84160   0.00415   0.00000  Uiso   1.00
C235   C     0.31212   0.86360   0.98927   0.00000  Uiso   1.00
C236   C     0.71265   0.77348   0.94254   0.00000  Uiso   1.00
C237   C     0.75075   0.81830   0.93859   0.00000  Uiso   1.00
C238   C     0.80861   0.80484   0.87690   0.00000  Uiso   1.00
C239   C     0.90672   0.80553   0.78838   0.00000  Uiso   1.00
C240   C     0.68194   0.70397   0.01223   0.00000  Uiso   1.00
C241   C     0.69424   0.69033   0.06686   0.00000  Uiso   1.00
C242   C     0.72626   0.61834   0.06383   0.00000  Uiso   1.00
C243   C     0.77669   0.51110   0.08351   0.00000  Uiso   1.00
C244   C     0.68265   0.67494   0.90248   0.00000  Uiso   1.00
C245   C     0.59130   0.73090   0.93429   0.00000  Uiso   1.00
C246   C     0.53108   0.72890   0.91248   0.00000  Uiso   1.00
C247   C     0.45106   0.78523   0.94836   0.00000  Uiso   1.00
C248   C     0.73168   0.71721   0.88686   0.00000  Uiso   1.00
C249   C     0.78950   0.70368   0.82516   0.00000  Uiso   1.00
C250   C     0.82767   0.74847   0.82111   0.00000  Uiso   1.00
C251   C     0.70097   0.64769   0.95654   0.00000  Uiso   1.00
C252   C     0.73299   0.57571   0.95343   0.00000  Uiso   1.00
C253   C     0.74533   0.56196   0.00804   0.00000  Uiso   1.00
H254   H     0.63281   0.82235   0.04836   0.00000  Uiso   1.00
H255   H     0.47763   0.88707   0.06899   0.00000  Uiso   1.00
H256   H     0.73602   0.86184   0.98169   0.00000  Uiso   1.00
H257   H     0.67951   0.73389   0.10994   0.00000  Uiso   1.00
H258   H     0.31398   0.93401   0.06730   0.00000  Uiso   1.00
H259   H     0.85882   0.88081   0.88322   0.00000  Uiso   1.00
H260   H     0.73967   0.61100   0.15366   0.00000  Uiso   1.00
H261   H     0.69746   0.63112   0.85913   0.00000  Uiso   1.00
H262   H     0.54582   0.68534   0.86938   0.00000  Uiso   1.00
H263   H     0.80422   0.66012   0.78208   0.00000  Uiso   1.00
H264   H     0.74771   0.53217   0.91033   0.00000  Uiso   1.00
H265   H     0.36933   0.77029   0.90529   0.00000  Uiso   1.00
H266   H     0.91418   0.71708   0.72121   0.00000  Uiso   1.00
H267   H     0.79502   0.44728   0.99165   0.00000  Uiso   1.00
O268   O     0.24074   0.89128   0.99644   0.00000  Uiso   1.00
O269   O     0.95557   0.82147   0.75494   0.00000  Uiso   1.00
O270   O     0.79924   0.46750   0.10975   0.00000  Uiso   1.00
N271   N     0.34781   0.88803   0.02777   0.00000  Uiso   1.00
N272   N     0.85720   0.83830   0.85567   0.00000  Uiso   1.00
N273   N     0.74582   0.58605   0.10850   0.00000  Uiso   1.00
N274   N     0.37759   0.79993   0.94059   0.00000  Uiso   1.00
N275   N     0.88699   0.75020   0.76849   0.00000  Uiso   1.00
N276   N     0.77561   0.49795   0.02132   0.00000  Uiso   1.00
C277   C     0.55296   0.26292   0.37196   0.00000  Uiso   1.00
C278   C     0.63973   0.24357   0.32351   0.00000  Uiso   1.00
C279   C     0.67937   0.19683   0.25854   0.00000  Uiso   1.00
C280   C     0.75866   0.18627   0.22229   0.00000  Uiso   1.00
C281   C     0.88755   0.15093   0.14282   0.00000  Uiso   1.00
C282   C     0.50422   0.34557   0.39590   0.00000  Uiso   1.00
C283   C     0.42992   0.38458   0.39181   0.00000  Uiso   1.00
C284   C     0.39513   0.45988   0.41650   0.00000  Uiso   1.00
C285   C     0.31362   0.58289   0.44946   0.00000  Uiso   1.00
C286   C     0.56311   0.24373   0.43152   0.00000  Uiso   1.00
C287   C     0.53832   0.19713   0.45740   0.00000  Uiso   1.00
C288   C     0.55310   0.18670   0.51210   0.00000  Uiso   1.00
C289   C     0.56303   0.15160   0.60037   0.00000  Uiso   1.00
C290   C     0.62326   0.32727   0.42311   0.00000  Uiso   1.00
C291   C     0.67791   0.27853   0.35129   0.00000  Uiso   1.00
C292   C     0.75715   0.26803   0.31513   0.00000  Uiso   1.00
C293   C     0.79691   0.22128   0.25012   0.00000  Uiso   1.00
C294   C     0.54240   0.38052   0.42368   0.00000  Uiso   1.00
C295   C     0.50770   0.45578   0.44839   0.00000  Uiso   1.00
C296   C     0.43338   0.49489   0.44433   0.00000  Uiso   1.00
C297   C     0.60130   0.27868   0.45931   0.00000  Uiso   1.00
C298   C     0.61611   0.26833   0.51398   0.00000  Uiso   1.00
C299   C     0.59135   0.22172   0.53993   0.00000  Uiso   1.00
H300   H     0.52323   0.23572   0.35034   0.00000  Uiso   1.00
H301   H     0.64980   0.16980   0.23706   0.00000  Uiso   1.00
H302   H     0.40038   0.35752   0.37031   0.00000  Uiso   1.00
H303   H     0.50877   0.17010   0.43589   0.00000  Uiso   1.00
H304   H     0.80695   0.11215   0.12372   0.00000  Uiso   1.00
H305   H     0.28103   0.50797   0.40470   0.00000  Uiso   1.00
H306   H     0.50959   0.11275   0.54298   0.00000  Uiso   1.00
H307   H     0.65299   0.35449   0.44474   0.00000  Uiso   1.00
H308   H     0.78669   0.29508   0.33664   0.00000  Uiso   1.00
H309   H     0.53727   0.48280   0.46989   0.00000  Uiso   1.00
H310   H     0.64566   0.29538   0.53546   0.00000  Uiso   1.00
H311   H     0.91805   0.21384   0.20454   0.00000  Uiso   1.00
H312   H     0.39213   0.60966   0.48552   0.00000  Uiso   1.00
H313   H     0.62069   0.21444   0.62381   0.00000  Uiso   1.00
O314   O     0.94810   0.12180   0.09131   0.00000  Uiso   1.00
O315   O     0.25811   0.64109   0.45996   0.00000  Uiso   1.00
O316   O     0.55797   0.12257   0.64138   0.00000  Uiso   1.00
N317   N     0.81476   0.14423   0.15758   0.00000  Uiso   1.00
N318   N     0.32306   0.51429   0.42027   0.00000  Uiso   1.00
N319   N     0.53672   0.14481   0.54956   0.00000  Uiso   1.00
N320   N     0.87454   0.19894   0.20107   0.00000  Uiso   1.00
N321   N     0.38285   0.56901   0.46376   0.00000  Uiso   1.00
N322   N     0.59651   0.19953   0.59305   0.00000  Uiso   1.00
C323   C     0.88819   0.78186   0.04036   0.00000  Uiso   1.00
C324   C     0.94202   0.82023   0.02535   0.00000  Uiso   1.00
C325   C     0.92084   0.88307   0.00928   0.00000  Uiso   1.00
C326   C     0.97860   0.90965   0.99730   0.00000  Uiso   1.00
C327   C     0.05057   0.97458   0.97342   0.00000  Uiso   1.00
C328   C     0.87812   0.77719   0.10862   0.00000  Uiso   1.00
C329   C     0.80322   0.80383   0.16255   0.00000  Uiso   1.00
C330   C     0.80720   0.79416   0.22066   0.00000  Uiso   1.00
C331   C     0.77997   0.79222   0.32604   0.00000  Uiso   1.00
C332   C     0.94054   0.70394   0.99213   0.00000  Uiso   1.00
C333   C     0.91811   0.66898   0.94813   0.00000  Uiso   1.00
C334   C     0.97464   0.59764   0.90818   0.00000  Uiso   1.00
C335   C     0.04432   0.48197   0.83270   0.00000  Uiso   1.00
C336   C     0.02843   0.71732   0.04767   0.00000  Uiso   1.00
C337   C     0.01819   0.78517   0.02933   0.00000  Uiso   1.00
C338   C     0.07600   0.81166   0.01737   0.00000  Uiso   1.00
C339   C     0.05491   0.87453   0.00128   0.00000  Uiso   1.00
C340   C     0.95429   0.74213   0.11259   0.00000  Uiso   1.00
C341   C     0.95838   0.73242   0.17064   0.00000  Uiso   1.00
C342   C     0.88351   0.75904   0.22464   0.00000  Uiso   1.00
C343   C     0.01671   0.66888   0.99610   0.00000  Uiso   1.00
C344   C     0.07327   0.59758   0.95622   0.00000  Uiso   1.00
C345   C     0.05094   0.56252   0.91217   0.00000  Uiso   1.00
H346   H     0.82889   0.80916   0.03727   0.00000  Uiso   1.00
H347   H     0.86188   0.91019   0.00621   0.00000  Uiso   1.00
H348   H     0.74429   0.83095   0.15946   0.00000  Uiso   1.00
H349   H     0.85917   0.69613   0.94507   0.00000  Uiso   1.00
H350   H     0.93204   0.00676   0.97356   0.00000  Uiso   1.00
H351   H     0.68408   0.83966   0.29667   0.00000  Uiso   1.00
H352   H     0.92632   0.55536   0.84460   0.00000  Uiso   1.00
H353   H     0.08773   0.69002   0.05077   0.00000  Uiso   1.00
H354   H     0.13494   0.78452   0.02045   0.00000  Uiso   1.00
H355   H     0.01734   0.70528   0.17369   0.00000  Uiso   1.00
H356   H     0.13221   0.57046   0.95931   0.00000  Uiso   1.00
H357   H     0.15366   0.90476   0.98511   0.00000  Uiso   1.00
H358   H     0.90570   0.73766   0.30823   0.00000  Uiso   1.00
H359   H     0.14794   0.45336   0.85615   0.00000  Uiso   1.00
O360   O     0.06922   0.02009   0.95917   0.00000  Uiso   1.00
O361   O     0.74391   0.80084   0.38307   0.00000  Uiso   1.00
O362   O     0.06172   0.42786   0.78997   0.00000  Uiso   1.00
N363   N     0.97773   0.96978   0.98042   0.00000  Uiso   1.00
N364   N     0.74590   0.81356   0.28252   0.00000  Uiso   1.00
N365   N     0.97237   0.54776   0.85988   0.00000  Uiso   1.00
N366   N     0.09698   0.91489   0.98664   0.00000  Uiso   1.00
N367   N     0.86515   0.75867   0.28874   0.00000  Uiso   1.00
N368   N     0.09162   0.49287   0.86610   0.00000  Uiso   1.00
C369   C     0.80956   0.22329   0.89246   0.00000  Uiso   1.00
C370   C     0.88796   0.22498   0.89539   0.00000  Uiso   1.00
C371   C     0.92793   0.19567   0.93298   0.00000  Uiso   1.00
C372   C     0.99881   0.20284   0.92884   0.00000  Uiso   1.00
C373   C     0.11604   0.20006   0.93949   0.00000  Uiso   1.00
C374   C     0.83151   0.18706   0.81987   0.00000  Uiso   1.00
C375   C     0.82399   0.12587   0.79398   0.00000  Uiso   1.00
C376   C     0.84734   0.10113   0.72628   0.00000  Uiso   1.00
C377   C     0.87686   0.03952   0.61971   0.00000  Uiso   1.00
C378   C     0.74678   0.30227   0.91127   0.00000  Uiso   1.00
C379   C     0.66801   0.33796   0.96222   0.00000  Uiso   1.00
C380   C     0.62001   0.41021   0.97146   0.00000  Uiso   1.00
C381   C     0.51798   0.52749   0.00680   0.00000  Uiso   1.00
C382   C     0.86437   0.28814   0.81828   0.00000  Uiso   1.00
C383   C     0.91773   0.26020   0.85509   0.00000  Uiso   1.00
C384   C     0.98856   0.26742   0.85090   0.00000  Uiso   1.00
C385   C     0.02863   0.23813   0.88848   0.00000  Uiso   1.00
C386   C     0.86127   0.22228   0.77958   0.00000  Uiso   1.00
C387   C     0.88463   0.19763   0.71191   0.00000  Uiso   1.00
C388   C     0.87716   0.13642   0.68592   0.00000  Uiso   1.00
C389   C     0.77654   0.33750   0.87098   0.00000  Uiso   1.00
C390   C     0.72865   0.40971   0.88015   0.00000  Uiso   1.00
C391   C     0.64983   0.44550   0.93110   0.00000  Uiso   1.00
H392   H     0.78639   0.19586   0.92382   0.00000  Uiso   1.00
H393   H     0.90488   0.16840   0.96415   0.00000  Uiso   1.00
H394   H     0.80095   0.09863   0.82517   0.00000  Uiso   1.00
H395   H     0.64500   0.31068   0.99339   0.00000  Uiso   1.00
H396   H     0.04939   0.15347   0.99106   0.00000  Uiso   1.00
H397   H     0.83023   0.00636   0.69804   0.00000  Uiso   1.00
H398   H     0.50137   0.45351   0.05275   0.00000  Uiso   1.00
H399   H     0.88754   0.31557   0.78691   0.00000  Uiso   1.00
H400   H     0.01159   0.29468   0.81972   0.00000  Uiso   1.00
H401   H     0.90766   0.22490   0.68075   0.00000  Uiso   1.00
H402   H     0.75171   0.43695   0.84896   0.00000  Uiso   1.00
H403   H     0.13600   0.25596   0.87384   0.00000  Uiso   1.00
H404   H     0.91683   0.10885   0.58081   0.00000  Uiso   1.00
H405   H     0.58798   0.55600   0.93552   0.00000  Uiso   1.00
O406   O     0.17249   0.18880   0.95649   0.00000  Uiso   1.00
O407   O     0.88493   0.99580   0.57205   0.00000  Uiso   1.00
O408   O     0.45348   0.58245   0.03743   0.00000  Uiso   1.00
N409   N     0.05274   0.18047   0.95898   0.00000  Uiso   1.00
N410   N     0.84785   0.04293   0.68502   0.00000  Uiso   1.00
N411   N     0.54038   0.46097   0.01663   0.00000  Uiso   1.00
N412   N     0.09935   0.23562   0.89591   0.00000  Uiso   1.00
N413   N     0.89445   0.09807   0.62194   0.00000  Uiso   1.00
N414   N     0.58699   0.51611   0.95355   0.00000  Uiso   1.00
C415   C     0.54518   0.96609   0.89448   0.00000  Uiso   1.00
C416   C     0.60485   0.98618   0.91629   0.00000  Uiso   1.00
C417   C     0.60465   0.99709   0.97880   0.00000  Uiso   1.00
C418   C     0.66432   0.01514   0.98889   0.00000  Uiso   1.00
C419   C     0.74816   0.04533   0.03046   0.00000  Uiso   1.00
C420   C     0.50428   0.02464   0.86829   0.00000  Uiso   1.00
C421   C     0.41951   0.06788   0.89044   0.00000  Uiso   1.00
C422   C     0.39451   0.11830   0.86011   0.00000  Uiso   1.00
C423   C     0.32221   0.20816   0.82713   0.00000  Uiso   1.00
C424   C     0.59928   0.89613   0.83496   0.00000  Uiso   1.00
C425   C     0.59438   0.83131   0.82907   0.00000  Uiso   1.00
C426   C     0.64936   0.77354   0.77067   0.00000  Uiso   1.00
C427   C     0.72457   0.66386   0.68594   0.00000  Uiso   1.00
C428   C     0.65153   0.97876   0.80122   0.00000  Uiso   1.00
C429   C     0.66261   0.99307   0.86563   0.00000  Uiso   1.00
C430   C     0.72231   0.01110   0.87562   0.00000  Uiso   1.00
C431   C     0.72219   0.02203   0.93814   0.00000  Uiso   1.00
C432   C     0.56204   0.03153   0.81764   0.00000  Uiso   1.00
C433   C     0.53716   0.08189   0.78726   0.00000  Uiso   1.00
C434   C     0.45238   0.12519   0.80936   0.00000  Uiso   1.00
C435   C     0.65705   0.90301   0.78430   0.00000  Uiso   1.00
C436   C     0.71204   0.84533   0.72589   0.00000  Uiso   1.00
C437   C     0.70723   0.78043   0.71992   0.00000  Uiso   1.00
H438   H     0.50021   0.96074   0.93392   0.00000  Uiso   1.00
H439   H     0.55993   0.99177   0.01800   0.00000  Uiso   1.00
H440   H     0.37482   0.06254   0.92964   0.00000  Uiso   1.00
H441   H     0.54967   0.82601   0.86828   0.00000  Uiso   1.00
H442   H     0.65160   0.02923   0.08888   0.00000  Uiso   1.00
H443   H     0.26128   0.17843   0.90256   0.00000  Uiso   1.00
H444   H     0.62999   0.67967   0.77317   0.00000  Uiso   1.00
H445   H     0.69650   0.98411   0.76178   0.00000  Uiso   1.00
H446   H     0.76700   0.01642   0.83641   0.00000  Uiso   1.00
H447   H     0.58188   0.08720   0.74806   0.00000  Uiso   1.00
H448   H     0.75673   0.85067   0.68670   0.00000  Uiso   1.00
H449   H     0.81966   0.04925   0.94150   0.00000  Uiso   1.00
H450   H     0.42934   0.19845   0.75518   0.00000  Uiso   1.00
H451   H     0.79805   0.69968   0.62580   0.00000  Uiso   1.00
O452   O     0.77845   0.06010   0.06739   0.00000  Uiso   1.00
O453   O     0.26637   0.25583   0.82294   0.00000  Uiso   1.00
O454   O     0.75010   0.60146   0.65320   0.00000  Uiso   1.00
N455   N     0.68149   0.02949   0.04394   0.00000  Uiso   1.00
N456   N     0.31657   0.16900   0.86975   0.00000  Uiso   1.00
N457   N     0.66126   0.70270   0.74879   0.00000  Uiso   1.00
N458   N     0.77192   0.04026   0.96464   0.00000  Uiso   1.00
N459   N     0.40700   0.17977   0.79045   0.00000  Uiso   1.00
N460   N     0.75169   0.71347   0.66948   0.00000  Uiso   1.00
C461   C     0.19555   0.91777   0.32042   0.00000  Uiso   1.00
C462   C     0.26995   0.92665   0.32506   0.00000  Uiso   1.00
C463   C     0.27433   0.99174   0.33932   0.00000  Uiso   1.00
C464   C     0.34788   0.98841   0.34126   0.00000  Uiso   1.00
C465   C     0.45327   0.01224   0.35024   0.00000  Uiso   1.00
C466   C     0.22767   0.86305   0.25198   0.00000  Uiso   1.00
C467   C     0.19649   0.87467   0.20480   0.00000  Uiso   1.00
C468   C     0.23444   0.81780   0.14524   0.00000  Uiso   1.00
C469   C     0.27415   0.74289   0.04077   0.00000  Uiso   1.00
C470   C     0.17321   0.88022   0.36922   0.00000  Uiso   1.00
C471   C     0.09623   0.90628   0.42060   0.00000  Uiso   1.00
C472   C     0.08833   0.86385   0.45973   0.00000  Uiso   1.00
C473   C     0.04348   0.81560   0.53730   0.00000  Uiso   1.00
C474   C     0.31839   0.79610   0.29852   0.00000  Uiso   1.00
C475   C     0.33667   0.86056   0.31316   0.00000  Uiso   1.00
C476   C     0.41024   0.85713   0.31509   0.00000  Uiso   1.00
C477   C     0.41472   0.92221   0.32935   0.00000  Uiso   1.00
C478   C     0.29439   0.79697   0.24008   0.00000  Uiso   1.00
C479   C     0.33240   0.74006   0.18057   0.00000  Uiso   1.00
C480   C     0.30129   0.75160   0.13332   0.00000  Uiso   1.00
C481   C     0.23994   0.81414   0.35732   0.00000  Uiso   1.00
C482   C     0.23215   0.77166   0.39638   0.00000  Uiso   1.00
C483   C     0.15517   0.79765   0.44781   0.00000  Uiso   1.00
H484   H     0.14361   0.96922   0.32968   0.00000  Uiso   1.00
H485   H     0.22268   0.04287   0.34851   0.00000  Uiso   1.00
H486   H     0.14485   0.92582   0.21402   0.00000  Uiso   1.00
H487   H     0.04461   0.95742   0.42979   0.00000  Uiso   1.00
H488   H     0.33978   0.09539   0.36413   0.00000  Uiso   1.00
H489   H     0.17566   0.84857   0.08056   0.00000  Uiso   1.00
H490   H     0.96429   0.91520   0.53555   0.00000  Uiso   1.00
H491   H     0.37034   0.74464   0.28926   0.00000  Uiso   1.00
H492   H     0.46186   0.80598   0.30588   0.00000  Uiso   1.00
H493   H     0.38403   0.68893   0.17139   0.00000  Uiso   1.00
H494   H     0.28379   0.72052   0.38716   0.00000  Uiso   1.00
H495   H     0.53391   0.90311   0.32952   0.00000  Uiso   1.00
H496   H     0.36978   0.65629   0.04595   0.00000  Uiso   1.00
H497   H     0.15841   0.72293   0.50094   0.00000  Uiso   1.00
O498   O     0.49297   0.04364   0.35846   0.00000  Uiso   1.00
O499   O     0.27763   0.71983   0.98644   0.00000  Uiso   1.00
O500   O     0.00032   0.80725   0.58337   0.00000  Uiso   1.00
N501   N     0.37291   0.04172   0.35372   0.00000  Uiso   1.00
N502   N     0.21947   0.81096   0.08859   0.00000  Uiso   1.00
N503   N     0.02185   0.87325   0.51396   0.00000  Uiso   1.00
N504   N     0.47737   0.93826   0.33509   0.00000  Uiso   1.00
N505   N     0.32392   0.70750   0.06997   0.00000  Uiso   1.00
N506   N     0.12630   0.76979   0.49533   0.00000  Uiso   1.00
C507   C     0.13224   0.27790   0.33338   0.00000  Uiso   1.00
C508   C     0.22179   0.21804   0.30053   0.00000  Uiso   1.00
C509   C     0.24956   0.14859   0.25815   0.00000  Uiso   1.00
C510   C     0.33385   0.10177   0.23327   0.00000  Uiso   1.00
C511   C     0.46460   0.00547   0.17972   0.00000  Uiso   1.00
C512   C     0.10984   0.30057   0.40737   0.00000  Uiso   1.00
C513   C     0.04348   0.30052   0.45481   0.00000  Uiso   1.00
C514   C     0.03354   0.32319   0.51987   0.00000  Uiso   1.00
C515   C     0.99045   0.35507   0.63219   0.00000  Uiso   1.00
C516   C     0.13384   0.34274   0.31362   0.00000  Uiso   1.00
C517   C     0.08764   0.37818   0.28224   0.00000  Uiso   1.00
C518   C     0.09788   0.43636   0.26839   0.00000  Uiso   1.00
C519   C     0.09206   0.53373   0.23514   0.00000  Uiso   1.00
C520   C     0.23256   0.31824   0.36457   0.00000  Uiso   1.00
C521   C     0.27627   0.23995   0.31748   0.00000  Uiso   1.00
C522   C     0.36055   0.19322   0.29266   0.00000  Uiso   1.00
C523   C     0.38844   0.12372   0.25024   0.00000  Uiso   1.00
C524   C     0.16433   0.32248   0.42431   0.00000  Uiso   1.00
C525   C     0.15447   0.34515   0.48932   0.00000  Uiso   1.00
C526   C     0.08812   0.34514   0.53684   0.00000  Uiso   1.00
C527   C     0.18833   0.36466   0.33056   0.00000  Uiso   1.00
C528   C     0.19864   0.42280   0.31675   0.00000  Uiso   1.00
C529   C     0.15247   0.45832   0.28537   0.00000  Uiso   1.00
H530   H     0.08982   0.26085   0.32019   0.00000  Uiso   1.00
H531   H     0.20737   0.13165   0.24505   0.00000  Uiso   1.00
H532   H     0.00132   0.28357   0.44168   0.00000  Uiso   1.00
H533   H     0.04548   0.36121   0.26914   0.00000  Uiso   1.00
H534   H     0.36172   0.99807   0.16924   0.00000  Uiso   1.00
H535   H     0.92724   0.31842   0.58384   0.00000  Uiso   1.00
H536   H     0.02035   0.48214   0.22001   0.00000  Uiso   1.00
H537   H     0.27498   0.33530   0.37776   0.00000  Uiso   1.00
H538   H     0.40270   0.21019   0.30578   0.00000  Uiso   1.00
H539   H     0.19665   0.36211   0.50241   0.00000  Uiso   1.00
H540   H     0.24081   0.43975   0.32987   0.00000  Uiso   1.00
H541   H     0.52026   0.06182   0.21853   0.00000  Uiso   1.00
H542   H     0.08578   0.38217   0.63314   0.00000  Uiso   1.00
H543   H     0.17889   0.54588   0.26931   0.00000  Uiso   1.00
O544   O     0.52166   0.94629   0.14551   0.00000  Uiso   1.00
O545   O     0.95163   0.36659   0.68946   0.00000  Uiso   1.00
O546   O     0.07380   0.58138   0.21212   0.00000  Uiso   1.00
N547   N     0.38151   0.03025   0.19071   0.00000  Uiso   1.00
N548   N     0.97531   0.32974   0.57834   0.00000  Uiso   1.00
N549   N     0.06234   0.48282   0.23820   0.00000  Uiso   1.00
N550   N     0.46682   0.06455   0.21723   0.00000  Uiso   1.00
N551   N     0.06061   0.36405   0.60486   0.00000  Uiso   1.00
N552   N     0.14765   0.51712   0.26473   0.00000  Uiso   1.00
