data_job_03310
_audit_creation_date              2018-12-19
_audit_creation_method            'Materials Studio'
_symmetry_space_group_name_H-M    'P1'
_symmetry_Int_Tables_number       1
_symmetry_cell_setting            triclinic
loop_
_symmetry_equiv_pos_as_xyz
  x,y,z
_cell_length_a                    19.7879
_cell_length_b                    15.3195
_cell_length_c                    26.8554
_cell_angle_alpha                 90.0000
_cell_angle_beta                  90.0000
_cell_angle_gamma                 90.0000
loop_
_atom_site_label
_atom_site_type_symbol
_atom_site_fract_x
_atom_site_fract_y
_atom_site_fract_z
_atom_site_U_iso_or_equiv
_atom_site_adp_type
_atom_site_occupancy
C1     C     0.99933   0.77394   0.83979   0.00000  Uiso   1.00
C2     C     0.07472   0.78907   0.84778   0.00000  Uiso   1.00
C3     C     0.12657   0.74691   0.82263   0.00000  Uiso   1.00
C4     C     0.19220   0.76992   0.83534   0.00000  Uiso   1.00
C5     C     0.30726   0.78381   0.84220   0.00000  Uiso   1.00
C6     C     0.97063   0.74923   0.89057   0.00000  Uiso   1.00
C7     C     0.93495   0.67358   0.90139   0.00000  Uiso   1.00
C8     C     0.91296   0.66307   0.95012   0.00000  Uiso   1.00
C9     C     0.86636   0.61514   0.02340   0.00000  Uiso   1.00
C10    C     0.96933   0.86290   0.82713   0.00000  Uiso   1.00
C11    C     0.93254   0.88282   0.78463   0.00000  Uiso   1.00
C12    C     0.90944   0.96801   0.77995   0.00000  Uiso   1.00
C13    C     0.86083   0.09657   0.75474   0.00000  Uiso   1.00
C14    C     0.02369   0.88979   0.90707   0.00000  Uiso   1.00
C15    C     0.08795   0.85200   0.88432   0.00000  Uiso   1.00
C16    C     0.15353   0.87509   0.89707   0.00000  Uiso   1.00
C17    C     0.20546   0.83297   0.87195   0.00000  Uiso   1.00
C18    C     0.98386   0.81216   0.92711   0.00000  Uiso   1.00
C19    C     0.96191   0.80176   0.97583   0.00000  Uiso   1.00
C20    C     0.92621   0.72611   0.98673   0.00000  Uiso   1.00
C21    C     0.98257   0.92583   0.86368   0.00000  Uiso   1.00
C22    C     0.95951   0.01100   0.85907   0.00000  Uiso   1.00
C23    C     0.92270   0.03105   0.81656   0.00000  Uiso   1.00
H24    H     0.98902   0.72495   0.81133   0.00000  Uiso   1.00
H25    H     0.11631   0.69821   0.79435   0.00000  Uiso   1.00
H26    H     0.92471   0.62490   0.87310   0.00000  Uiso   1.00
H27    H     0.92231   0.83411   0.75635   0.00000  Uiso   1.00
H28    H     0.26326   0.69629   0.79165   0.00000  Uiso   1.00
H29    H     0.85926   0.54173   0.95769   0.00000  Uiso   1.00
H30    H     0.85419   0.98289   0.71151   0.00000  Uiso   1.00
H31    H     0.03400   0.93879   0.93553   0.00000  Uiso   1.00
H32    H     0.16375   0.92378   0.92536   0.00000  Uiso   1.00
H33    H     0.97216   0.85047   0.00411   0.00000  Uiso   1.00
H34    H     0.96976   0.05968   0.88736   0.00000  Uiso   1.00
H35    H     0.30177   0.87937   0.89798   0.00000  Uiso   1.00
H36    H     0.89776   0.72481   0.06402   0.00000  Uiso   1.00
H37    H     0.89270   0.16597   0.81784   0.00000  Uiso   1.00
O38    O     0.36706   0.77408   0.83590   0.00000  Uiso   1.00
O39    O     0.83701   0.57131   0.05373   0.00000  Uiso   1.00
O40    O     0.83037   0.15010   0.73074   0.00000  Uiso   1.00
N41    N     0.25452   0.74145   0.81806   0.00000  Uiso   1.00
N42    N     0.87681   0.59694   0.97330   0.00000  Uiso   1.00
N43    N     0.87205   0.00938   0.74315   0.00000  Uiso   1.00
N44    N     0.27524   0.83997   0.87528   0.00000  Uiso   1.00
N45    N     0.89753   0.69545   0.03052   0.00000  Uiso   1.00
N46    N     0.89277   0.10789   0.80036   0.00000  Uiso   1.00
C47    C     0.49933   0.27394   0.83979   0.00000  Uiso   1.00
C48    C     0.57472   0.28907   0.84778   0.00000  Uiso   1.00
C49    C     0.62657   0.24691   0.82263   0.00000  Uiso   1.00
C50    C     0.69220   0.26992   0.83534   0.00000  Uiso   1.00
C51    C     0.80726   0.28381   0.84220   0.00000  Uiso   1.00
C52    C     0.47063   0.24923   0.89057   0.00000  Uiso   1.00
C53    C     0.43495   0.17358   0.90139   0.00000  Uiso   1.00
C54    C     0.41296   0.16307   0.95012   0.00000  Uiso   1.00
C55    C     0.36636   0.11514   0.02340   0.00000  Uiso   1.00
C56    C     0.46933   0.36290   0.82713   0.00000  Uiso   1.00
C57    C     0.43254   0.38282   0.78463   0.00000  Uiso   1.00
C58    C     0.40944   0.46801   0.77995   0.00000  Uiso   1.00
C59    C     0.36083   0.59657   0.75474   0.00000  Uiso   1.00
C60    C     0.52369   0.38979   0.90707   0.00000  Uiso   1.00
C61    C     0.58795   0.35200   0.88432   0.00000  Uiso   1.00
C62    C     0.65353   0.37509   0.89707   0.00000  Uiso   1.00
C63    C     0.70546   0.33297   0.87195   0.00000  Uiso   1.00
C64    C     0.48386   0.31216   0.92711   0.00000  Uiso   1.00
C65    C     0.46191   0.30176   0.97583   0.00000  Uiso   1.00
C66    C     0.42621   0.22611   0.98673   0.00000  Uiso   1.00
C67    C     0.48257   0.42583   0.86368   0.00000  Uiso   1.00
C68    C     0.45951   0.51100   0.85907   0.00000  Uiso   1.00
C69    C     0.42270   0.53105   0.81656   0.00000  Uiso   1.00
H70    H     0.48902   0.22495   0.81133   0.00000  Uiso   1.00
H71    H     0.61631   0.19821   0.79435   0.00000  Uiso   1.00
H72    H     0.42471   0.12490   0.87310   0.00000  Uiso   1.00
H73    H     0.42231   0.33411   0.75635   0.00000  Uiso   1.00
H74    H     0.76326   0.19629   0.79165   0.00000  Uiso   1.00
H75    H     0.35926   0.04173   0.95769   0.00000  Uiso   1.00
H76    H     0.35419   0.48289   0.71151   0.00000  Uiso   1.00
H77    H     0.53400   0.43879   0.93553   0.00000  Uiso   1.00
H78    H     0.66375   0.42378   0.92536   0.00000  Uiso   1.00
H79    H     0.47216   0.35047   0.00411   0.00000  Uiso   1.00
H80    H     0.46976   0.55968   0.88736   0.00000  Uiso   1.00
H81    H     0.80177   0.37937   0.89798   0.00000  Uiso   1.00
H82    H     0.39776   0.22481   0.06402   0.00000  Uiso   1.00
H83    H     0.39270   0.66597   0.81784   0.00000  Uiso   1.00
O84    O     0.86706   0.27408   0.83590   0.00000  Uiso   1.00
O85    O     0.33701   0.07131   0.05373   0.00000  Uiso   1.00
O86    O     0.33037   0.65010   0.73074   0.00000  Uiso   1.00
N87    N     0.75452   0.24145   0.81806   0.00000  Uiso   1.00
N88    N     0.37681   0.09694   0.97330   0.00000  Uiso   1.00
N89    N     0.37205   0.50938   0.74315   0.00000  Uiso   1.00
N90    N     0.77524   0.33997   0.87528   0.00000  Uiso   1.00
N91    N     0.39753   0.19545   0.03052   0.00000  Uiso   1.00
N92    N     0.39277   0.60789   0.80036   0.00000  Uiso   1.00
C93    C     0.00067   0.22606   0.33979   0.00000  Uiso   1.00
C94    C     0.92528   0.21093   0.34778   0.00000  Uiso   1.00
C95    C     0.87343   0.25309   0.32263   0.00000  Uiso   1.00
C96    C     0.80780   0.23008   0.33534   0.00000  Uiso   1.00
C97    C     0.69274   0.21619   0.34220   0.00000  Uiso   1.00
C98    C     0.02937   0.25077   0.39057   0.00000  Uiso   1.00
C99    C     0.06505   0.32642   0.40139   0.00000  Uiso   1.00
C100   C     0.08704   0.33693   0.45012   0.00000  Uiso   1.00
C101   C     0.13364   0.38486   0.52340   0.00000  Uiso   1.00
C102   C     0.03067   0.13710   0.32713   0.00000  Uiso   1.00
C103   C     0.06746   0.11718   0.28463   0.00000  Uiso   1.00
C104   C     0.09056   0.03199   0.27995   0.00000  Uiso   1.00
C105   C     0.13917   0.90343   0.25474   0.00000  Uiso   1.00
C106   C     0.97631   0.11021   0.40707   0.00000  Uiso   1.00
C107   C     0.91205   0.14800   0.38432   0.00000  Uiso   1.00
C108   C     0.84647   0.12491   0.39707   0.00000  Uiso   1.00
C109   C     0.79454   0.16703   0.37195   0.00000  Uiso   1.00
C110   C     0.01614   0.18784   0.42711   0.00000  Uiso   1.00
C111   C     0.03809   0.19824   0.47583   0.00000  Uiso   1.00
C112   C     0.07379   0.27389   0.48673   0.00000  Uiso   1.00
C113   C     0.01743   0.07417   0.36368   0.00000  Uiso   1.00
C114   C     0.04049   0.98900   0.35907   0.00000  Uiso   1.00
C115   C     0.07730   0.96895   0.31656   0.00000  Uiso   1.00
H116   H     0.01098   0.27505   0.31133   0.00000  Uiso   1.00
H117   H     0.88369   0.30179   0.29435   0.00000  Uiso   1.00
H118   H     0.07529   0.37510   0.37310   0.00000  Uiso   1.00
H119   H     0.07769   0.16589   0.25635   0.00000  Uiso   1.00
H120   H     0.73674   0.30371   0.29165   0.00000  Uiso   1.00
H121   H     0.14074   0.45827   0.45769   0.00000  Uiso   1.00
H122   H     0.14581   0.01711   0.21151   0.00000  Uiso   1.00
H123   H     0.96600   0.06121   0.43553   0.00000  Uiso   1.00
H124   H     0.83625   0.07622   0.42536   0.00000  Uiso   1.00
H125   H     0.02784   0.14953   0.50411   0.00000  Uiso   1.00
H126   H     0.03024   0.94032   0.38736   0.00000  Uiso   1.00
H127   H     0.69823   0.12063   0.39798   0.00000  Uiso   1.00
H128   H     0.10224   0.27519   0.56402   0.00000  Uiso   1.00
H129   H     0.10730   0.83403   0.31784   0.00000  Uiso   1.00
O130   O     0.63294   0.22592   0.33590   0.00000  Uiso   1.00
O131   O     0.16299   0.42869   0.55373   0.00000  Uiso   1.00
O132   O     0.16963   0.84990   0.23074   0.00000  Uiso   1.00
N133   N     0.74548   0.25855   0.31806   0.00000  Uiso   1.00
N134   N     0.12319   0.40306   0.47330   0.00000  Uiso   1.00
N135   N     0.12795   0.99062   0.24315   0.00000  Uiso   1.00
N136   N     0.72476   0.16003   0.37528   0.00000  Uiso   1.00
N137   N     0.10247   0.30455   0.53052   0.00000  Uiso   1.00
N138   N     0.10723   0.89211   0.30036   0.00000  Uiso   1.00
C139   C     0.50067   0.72606   0.33979   0.00000  Uiso   1.00
C140   C     0.42528   0.71093   0.34778   0.00000  Uiso   1.00
C141   C     0.37343   0.75309   0.32263   0.00000  Uiso   1.00
C142   C     0.30780   0.73008   0.33534   0.00000  Uiso   1.00
C143   C     0.19274   0.71619   0.34220   0.00000  Uiso   1.00
C144   C     0.52937   0.75077   0.39057   0.00000  Uiso   1.00
C145   C     0.56505   0.82642   0.40139   0.00000  Uiso   1.00
C146   C     0.58704   0.83693   0.45012   0.00000  Uiso   1.00
C147   C     0.63364   0.88486   0.52340   0.00000  Uiso   1.00
C148   C     0.53067   0.63710   0.32713   0.00000  Uiso   1.00
C149   C     0.56746   0.61718   0.28463   0.00000  Uiso   1.00
C150   C     0.59056   0.53199   0.27995   0.00000  Uiso   1.00
C151   C     0.63917   0.40343   0.25474   0.00000  Uiso   1.00
C152   C     0.47631   0.61021   0.40707   0.00000  Uiso   1.00
C153   C     0.41205   0.64800   0.38432   0.00000  Uiso   1.00
C154   C     0.34647   0.62491   0.39707   0.00000  Uiso   1.00
C155   C     0.29454   0.66703   0.37195   0.00000  Uiso   1.00
C156   C     0.51614   0.68784   0.42711   0.00000  Uiso   1.00
C157   C     0.53809   0.69824   0.47583   0.00000  Uiso   1.00
C158   C     0.57379   0.77389   0.48673   0.00000  Uiso   1.00
C159   C     0.51743   0.57417   0.36368   0.00000  Uiso   1.00
C160   C     0.54049   0.48900   0.35907   0.00000  Uiso   1.00
C161   C     0.57730   0.46895   0.31656   0.00000  Uiso   1.00
H162   H     0.51098   0.77505   0.31133   0.00000  Uiso   1.00
H163   H     0.38369   0.80179   0.29435   0.00000  Uiso   1.00
H164   H     0.57529   0.87510   0.37310   0.00000  Uiso   1.00
H165   H     0.57769   0.66589   0.25635   0.00000  Uiso   1.00
H166   H     0.23674   0.80371   0.29165   0.00000  Uiso   1.00
H167   H     0.64074   0.95827   0.45769   0.00000  Uiso   1.00
H168   H     0.64581   0.51711   0.21151   0.00000  Uiso   1.00
H169   H     0.46600   0.56121   0.43553   0.00000  Uiso   1.00
H170   H     0.33625   0.57622   0.42536   0.00000  Uiso   1.00
H171   H     0.52784   0.64953   0.50411   0.00000  Uiso   1.00
H172   H     0.53024   0.44032   0.38736   0.00000  Uiso   1.00
H173   H     0.19823   0.62063   0.39798   0.00000  Uiso   1.00
H174   H     0.60224   0.77519   0.56402   0.00000  Uiso   1.00
H175   H     0.60730   0.33403   0.31784   0.00000  Uiso   1.00
O176   O     0.13294   0.72592   0.33590   0.00000  Uiso   1.00
O177   O     0.66299   0.92869   0.55373   0.00000  Uiso   1.00
O178   O     0.66963   0.34990   0.23074   0.00000  Uiso   1.00
N179   N     0.24548   0.75855   0.31806   0.00000  Uiso   1.00
N180   N     0.62319   0.90306   0.47330   0.00000  Uiso   1.00
N181   N     0.62795   0.49062   0.24315   0.00000  Uiso   1.00
N182   N     0.22476   0.66003   0.37528   0.00000  Uiso   1.00
N183   N     0.60247   0.80455   0.53052   0.00000  Uiso   1.00
N184   N     0.60723   0.39211   0.30036   0.00000  Uiso   1.00
C185   C     0.00067   0.77394   0.66021   0.00000  Uiso   1.00
C186   C     0.92528   0.78907   0.65222   0.00000  Uiso   1.00
C187   C     0.87343   0.74691   0.67737   0.00000  Uiso   1.00
C188   C     0.80780   0.76992   0.66466   0.00000  Uiso   1.00
C189   C     0.69274   0.78381   0.65780   0.00000  Uiso   1.00
C190   C     0.02937   0.74923   0.60943   0.00000  Uiso   1.00
C191   C     0.06505   0.67358   0.59861   0.00000  Uiso   1.00
C192   C     0.08704   0.66307   0.54988   0.00000  Uiso   1.00
C193   C     0.13364   0.61514   0.47660   0.00000  Uiso   1.00
C194   C     0.03067   0.86290   0.67287   0.00000  Uiso   1.00
C195   C     0.06746   0.88282   0.71537   0.00000  Uiso   1.00
C196   C     0.09056   0.96801   0.72005   0.00000  Uiso   1.00
C197   C     0.13917   0.09657   0.74526   0.00000  Uiso   1.00
C198   C     0.97631   0.88979   0.59293   0.00000  Uiso   1.00
C199   C     0.91205   0.85200   0.61568   0.00000  Uiso   1.00
C200   C     0.84647   0.87509   0.60293   0.00000  Uiso   1.00
C201   C     0.79454   0.83297   0.62805   0.00000  Uiso   1.00
C202   C     0.01614   0.81216   0.57289   0.00000  Uiso   1.00
C203   C     0.03809   0.80176   0.52417   0.00000  Uiso   1.00
C204   C     0.07379   0.72611   0.51327   0.00000  Uiso   1.00
C205   C     0.01743   0.92583   0.63632   0.00000  Uiso   1.00
C206   C     0.04049   0.01100   0.64093   0.00000  Uiso   1.00
C207   C     0.07730   0.03105   0.68344   0.00000  Uiso   1.00
H208   H     0.01098   0.72495   0.68867   0.00000  Uiso   1.00
H209   H     0.88369   0.69821   0.70565   0.00000  Uiso   1.00
H210   H     0.07529   0.62490   0.62690   0.00000  Uiso   1.00
H211   H     0.07769   0.83411   0.74365   0.00000  Uiso   1.00
H212   H     0.73674   0.69629   0.70835   0.00000  Uiso   1.00
H213   H     0.14074   0.54173   0.54231   0.00000  Uiso   1.00
H214   H     0.14581   0.98289   0.78849   0.00000  Uiso   1.00
H215   H     0.96600   0.93879   0.56447   0.00000  Uiso   1.00
H216   H     0.83625   0.92378   0.57464   0.00000  Uiso   1.00
H217   H     0.02784   0.85047   0.49589   0.00000  Uiso   1.00
H218   H     0.03024   0.05968   0.61264   0.00000  Uiso   1.00
H219   H     0.69823   0.87937   0.60202   0.00000  Uiso   1.00
H220   H     0.10224   0.72481   0.43598   0.00000  Uiso   1.00
H221   H     0.10730   0.16597   0.68216   0.00000  Uiso   1.00
O222   O     0.63294   0.77408   0.66410   0.00000  Uiso   1.00
O223   O     0.16299   0.57131   0.44627   0.00000  Uiso   1.00
O224   O     0.16963   0.15010   0.76926   0.00000  Uiso   1.00
N225   N     0.74548   0.74145   0.68194   0.00000  Uiso   1.00
N226   N     0.12319   0.59694   0.52670   0.00000  Uiso   1.00
N227   N     0.12795   0.00938   0.75685   0.00000  Uiso   1.00
N228   N     0.72476   0.83997   0.62472   0.00000  Uiso   1.00
N229   N     0.10247   0.69545   0.46948   0.00000  Uiso   1.00
N230   N     0.10723   0.10789   0.69964   0.00000  Uiso   1.00
C231   C     0.50067   0.27394   0.66021   0.00000  Uiso   1.00
C232   C     0.42528   0.28907   0.65222   0.00000  Uiso   1.00
C233   C     0.37343   0.24691   0.67737   0.00000  Uiso   1.00
C234   C     0.30780   0.26992   0.66466   0.00000  Uiso   1.00
C235   C     0.19274   0.28381   0.65780   0.00000  Uiso   1.00
C236   C     0.52937   0.24923   0.60943   0.00000  Uiso   1.00
C237   C     0.56505   0.17358   0.59861   0.00000  Uiso   1.00
C238   C     0.58704   0.16307   0.54988   0.00000  Uiso   1.00
C239   C     0.63364   0.11514   0.47660   0.00000  Uiso   1.00
C240   C     0.53067   0.36290   0.67287   0.00000  Uiso   1.00
C241   C     0.56746   0.38282   0.71537   0.00000  Uiso   1.00
C242   C     0.59056   0.46801   0.72005   0.00000  Uiso   1.00
C243   C     0.63917   0.59657   0.74526   0.00000  Uiso   1.00
C244   C     0.47631   0.38979   0.59293   0.00000  Uiso   1.00
C245   C     0.41205   0.35200   0.61568   0.00000  Uiso   1.00
C246   C     0.34647   0.37509   0.60293   0.00000  Uiso   1.00
C247   C     0.29454   0.33297   0.62805   0.00000  Uiso   1.00
C248   C     0.51614   0.31216   0.57289   0.00000  Uiso   1.00
C249   C     0.53809   0.30176   0.52417   0.00000  Uiso   1.00
C250   C     0.57379   0.22611   0.51327   0.00000  Uiso   1.00
C251   C     0.51743   0.42583   0.63632   0.00000  Uiso   1.00
C252   C     0.54049   0.51100   0.64093   0.00000  Uiso   1.00
C253   C     0.57730   0.53105   0.68344   0.00000  Uiso   1.00
H254   H     0.51098   0.22495   0.68867   0.00000  Uiso   1.00
H255   H     0.38369   0.19821   0.70565   0.00000  Uiso   1.00
H256   H     0.57529   0.12490   0.62690   0.00000  Uiso   1.00
H257   H     0.57769   0.33411   0.74365   0.00000  Uiso   1.00
H258   H     0.23674   0.19629   0.70835   0.00000  Uiso   1.00
H259   H     0.64074   0.04173   0.54231   0.00000  Uiso   1.00
H260   H     0.64581   0.48289   0.78849   0.00000  Uiso   1.00
H261   H     0.46600   0.43879   0.56447   0.00000  Uiso   1.00
H262   H     0.33625   0.42378   0.57464   0.00000  Uiso   1.00
H263   H     0.52784   0.35047   0.49589   0.00000  Uiso   1.00
H264   H     0.53024   0.55968   0.61264   0.00000  Uiso   1.00
H265   H     0.19823   0.37937   0.60202   0.00000  Uiso   1.00
H266   H     0.60224   0.22481   0.43598   0.00000  Uiso   1.00
H267   H     0.60730   0.66597   0.68216   0.00000  Uiso   1.00
O268   O     0.13294   0.27408   0.66410   0.00000  Uiso   1.00
O269   O     0.66299   0.07131   0.44627   0.00000  Uiso   1.00
O270   O     0.66963   0.65010   0.76926   0.00000  Uiso   1.00
N271   N     0.24548   0.24145   0.68194   0.00000  Uiso   1.00
N272   N     0.62319   0.09694   0.52670   0.00000  Uiso   1.00
N273   N     0.62795   0.50938   0.75685   0.00000  Uiso   1.00
N274   N     0.22476   0.33997   0.62472   0.00000  Uiso   1.00
N275   N     0.60247   0.19545   0.46948   0.00000  Uiso   1.00
N276   N     0.60723   0.60789   0.69964   0.00000  Uiso   1.00
C277   C     0.99933   0.22606   0.16021   0.00000  Uiso   1.00
C278   C     0.07472   0.21093   0.15222   0.00000  Uiso   1.00
C279   C     0.12657   0.25309   0.17737   0.00000  Uiso   1.00
C280   C     0.19220   0.23008   0.16466   0.00000  Uiso   1.00
C281   C     0.30726   0.21619   0.15780   0.00000  Uiso   1.00
C282   C     0.97063   0.25077   0.10943   0.00000  Uiso   1.00
C283   C     0.93495   0.32642   0.09861   0.00000  Uiso   1.00
C284   C     0.91296   0.33693   0.04988   0.00000  Uiso   1.00
C285   C     0.86636   0.38486   0.97660   0.00000  Uiso   1.00
C286   C     0.96933   0.13710   0.17287   0.00000  Uiso   1.00
C287   C     0.93254   0.11718   0.21537   0.00000  Uiso   1.00
C288   C     0.90944   0.03199   0.22005   0.00000  Uiso   1.00
C289   C     0.86083   0.90343   0.24526   0.00000  Uiso   1.00
C290   C     0.02369   0.11021   0.09293   0.00000  Uiso   1.00
C291   C     0.08795   0.14800   0.11568   0.00000  Uiso   1.00
C292   C     0.15353   0.12491   0.10293   0.00000  Uiso   1.00
C293   C     0.20546   0.16703   0.12805   0.00000  Uiso   1.00
C294   C     0.98386   0.18784   0.07289   0.00000  Uiso   1.00
C295   C     0.96191   0.19824   0.02417   0.00000  Uiso   1.00
C296   C     0.92621   0.27389   0.01327   0.00000  Uiso   1.00
C297   C     0.98257   0.07417   0.13632   0.00000  Uiso   1.00
C298   C     0.95951   0.98900   0.14093   0.00000  Uiso   1.00
C299   C     0.92270   0.96895   0.18344   0.00000  Uiso   1.00
H300   H     0.98902   0.27505   0.18867   0.00000  Uiso   1.00
H301   H     0.11631   0.30179   0.20565   0.00000  Uiso   1.00
H302   H     0.92471   0.37510   0.12690   0.00000  Uiso   1.00
H303   H     0.92231   0.16589   0.24365   0.00000  Uiso   1.00
H304   H     0.26326   0.30371   0.20835   0.00000  Uiso   1.00
H305   H     0.85926   0.45827   0.04231   0.00000  Uiso   1.00
H306   H     0.85419   0.01711   0.28849   0.00000  Uiso   1.00
H307   H     0.03400   0.06121   0.06447   0.00000  Uiso   1.00
H308   H     0.16375   0.07622   0.07464   0.00000  Uiso   1.00
H309   H     0.97216   0.14953   0.99589   0.00000  Uiso   1.00
H310   H     0.96976   0.94032   0.11264   0.00000  Uiso   1.00
H311   H     0.30177   0.12063   0.10202   0.00000  Uiso   1.00
H312   H     0.89776   0.27519   0.93598   0.00000  Uiso   1.00
H313   H     0.89270   0.83403   0.18216   0.00000  Uiso   1.00
O314   O     0.36706   0.22592   0.16410   0.00000  Uiso   1.00
O315   O     0.83701   0.42869   0.94627   0.00000  Uiso   1.00
O316   O     0.83037   0.84990   0.26926   0.00000  Uiso   1.00
N317   N     0.25452   0.25855   0.18194   0.00000  Uiso   1.00
N318   N     0.87681   0.40306   0.02670   0.00000  Uiso   1.00
N319   N     0.87205   0.99062   0.25685   0.00000  Uiso   1.00
N320   N     0.27524   0.16003   0.12472   0.00000  Uiso   1.00
N321   N     0.89753   0.30455   0.96948   0.00000  Uiso   1.00
N322   N     0.89277   0.89211   0.19964   0.00000  Uiso   1.00
C323   C     0.49933   0.72606   0.16021   0.00000  Uiso   1.00
C324   C     0.57472   0.71093   0.15222   0.00000  Uiso   1.00
C325   C     0.62657   0.75309   0.17737   0.00000  Uiso   1.00
C326   C     0.69220   0.73008   0.16466   0.00000  Uiso   1.00
C327   C     0.80726   0.71619   0.15780   0.00000  Uiso   1.00
C328   C     0.47063   0.75077   0.10943   0.00000  Uiso   1.00
C329   C     0.43495   0.82642   0.09861   0.00000  Uiso   1.00
C330   C     0.41296   0.83693   0.04988   0.00000  Uiso   1.00
C331   C     0.36636   0.88486   0.97660   0.00000  Uiso   1.00
C332   C     0.46933   0.63710   0.17287   0.00000  Uiso   1.00
C333   C     0.43254   0.61718   0.21537   0.00000  Uiso   1.00
C334   C     0.40944   0.53199   0.22005   0.00000  Uiso   1.00
C335   C     0.36083   0.40343   0.24526   0.00000  Uiso   1.00
C336   C     0.52369   0.61021   0.09293   0.00000  Uiso   1.00
C337   C     0.58795   0.64800   0.11568   0.00000  Uiso   1.00
C338   C     0.65353   0.62491   0.10293   0.00000  Uiso   1.00
C339   C     0.70546   0.66703   0.12805   0.00000  Uiso   1.00
C340   C     0.48386   0.68784   0.07289   0.00000  Uiso   1.00
C341   C     0.46191   0.69824   0.02417   0.00000  Uiso   1.00
C342   C     0.42621   0.77389   0.01327   0.00000  Uiso   1.00
C343   C     0.48257   0.57417   0.13632   0.00000  Uiso   1.00
C344   C     0.45951   0.48900   0.14093   0.00000  Uiso   1.00
C345   C     0.42270   0.46895   0.18344   0.00000  Uiso   1.00
H346   H     0.48902   0.77505   0.18867   0.00000  Uiso   1.00
H347   H     0.61631   0.80179   0.20565   0.00000  Uiso   1.00
H348   H     0.42471   0.87510   0.12690   0.00000  Uiso   1.00
H349   H     0.42231   0.66589   0.24365   0.00000  Uiso   1.00
H350   H     0.76326   0.80371   0.20835   0.00000  Uiso   1.00
H351   H     0.35926   0.95827   0.04231   0.00000  Uiso   1.00
H352   H     0.35419   0.51711   0.28849   0.00000  Uiso   1.00
H353   H     0.53400   0.56121   0.06447   0.00000  Uiso   1.00
H354   H     0.66375   0.57622   0.07464   0.00000  Uiso   1.00
H355   H     0.47216   0.64953   0.99589   0.00000  Uiso   1.00
H356   H     0.46976   0.44032   0.11264   0.00000  Uiso   1.00
H357   H     0.80177   0.62063   0.10202   0.00000  Uiso   1.00
H358   H     0.39776   0.77519   0.93598   0.00000  Uiso   1.00
H359   H     0.39270   0.33403   0.18216   0.00000  Uiso   1.00
O360   O     0.86706   0.72592   0.16410   0.00000  Uiso   1.00
O361   O     0.33701   0.92869   0.94627   0.00000  Uiso   1.00
O362   O     0.33037   0.34990   0.26926   0.00000  Uiso   1.00
N363   N     0.75452   0.75855   0.18194   0.00000  Uiso   1.00
N364   N     0.37681   0.90306   0.02670   0.00000  Uiso   1.00
N365   N     0.37205   0.49062   0.25685   0.00000  Uiso   1.00
N366   N     0.77524   0.66003   0.12472   0.00000  Uiso   1.00
N367   N     0.39753   0.80455   0.96948   0.00000  Uiso   1.00
N368   N     0.39277   0.39211   0.19964   0.00000  Uiso   1.00
