data_job_03293
_audit_creation_date              2018-12-19
_audit_creation_method            'Materials Studio'
_symmetry_space_group_name_H-M    'P1'
_symmetry_Int_Tables_number       1
_symmetry_cell_setting            triclinic
loop_
_symmetry_equiv_pos_as_xyz
  x,y,z
_cell_length_a                    12.2676
_cell_length_b                    20.6313
_cell_length_c                    11.6046
_cell_angle_alpha                 90.0000
_cell_angle_beta                  79.2194
_cell_angle_gamma                 90.0000
loop_
_atom_site_label
_atom_site_type_symbol
_atom_site_fract_x
_atom_site_fract_y
_atom_site_fract_z
_atom_site_U_iso_or_equiv
_atom_site_adp_type
_atom_site_occupancy
C1     C     0.92687   0.65818   0.41376   0.00000  Uiso   1.00
C2     C     0.83721   0.71027   0.43608   0.00000  Uiso   1.00
C3     C     0.74554   0.71419   0.38216   0.00000  Uiso   1.00
C4     C     0.67312   0.76553   0.41456   0.00000  Uiso   1.00
C5     C     0.53108   0.83947   0.43650   0.00000  Uiso   1.00
C6     C     0.03660   0.69407   0.37745   0.00000  Uiso   1.00
C7     C     0.11259   0.68435   0.27423   0.00000  Uiso   1.00
C8     C     0.20802   0.72204   0.25729   0.00000  Uiso   1.00
C9     C     0.37558   0.77079   0.18824   0.00000  Uiso   1.00
C10    C     0.93038   0.62792   0.53289   0.00000  Uiso   1.00
C11    C     0.91709   0.56258   0.56036   0.00000  Uiso   1.00
C12    C     0.92311   0.54457   0.67429   0.00000  Uiso   1.00
C13    C     0.92575   0.49061   0.84659   0.00000  Uiso   1.00
C14    C     0.96125   0.74239   0.56721   0.00000  Uiso   1.00
C15    C     0.85589   0.75601   0.51943   0.00000  Uiso   1.00
C16    C     0.78358   0.80735   0.55193   0.00000  Uiso   1.00
C17    C     0.69182   0.81134   0.49806   0.00000  Uiso   1.00
C18    C     0.05528   0.73980   0.46079   0.00000  Uiso   1.00
C19    C     0.15062   0.77751   0.44400   0.00000  Uiso   1.00
C20    C     0.22673   0.76786   0.34079   0.00000  Uiso   1.00
C21    C     0.94905   0.67365   0.61624   0.00000  Uiso   1.00
C22    C     0.95511   0.65574   0.73014   0.00000  Uiso   1.00
C23    C     0.94182   0.59039   0.75779   0.00000  Uiso   1.00
H24    H     0.91234   0.62258   0.34886   0.00000  Uiso   1.00
H25    H     0.73113   0.67879   0.31765   0.00000  Uiso   1.00
H26    H     0.09812   0.64895   0.20975   0.00000  Uiso   1.00
H27    H     0.90264   0.52720   0.49584   0.00000  Uiso   1.00
H28    H     0.53847   0.76129   0.31977   0.00000  Uiso   1.00
H29    H     0.31231   0.69836   0.09228   0.00000  Uiso   1.00
H30    H     0.90011   0.44162   0.69555   0.00000  Uiso   1.00
H31    H     0.97579   0.77800   0.63210   0.00000  Uiso   1.00
H32    H     0.79805   0.84274   0.61643   0.00000  Uiso   1.00
H33    H     0.16504   0.81290   0.50852   0.00000  Uiso   1.00
H34    H     0.96956   0.69115   0.79461   0.00000  Uiso   1.00
H35    H     0.59279   0.89436   0.56226   0.00000  Uiso   1.00
H36    H     0.36663   0.83143   0.33477   0.00000  Uiso   1.00
H37    H     0.95443   0.57469   0.93805   0.00000  Uiso   1.00
O38    O     0.44758   0.86762   0.42557   0.00000  Uiso   1.00
O39    O     0.46283   0.78505   0.12712   0.00000  Uiso   1.00
O40    O     0.92203   0.44821   0.91860   0.00000  Uiso   1.00
N41    N     0.57563   0.78372   0.37901   0.00000  Uiso   1.00
N42    N     0.29912   0.72489   0.16631   0.00000  Uiso   1.00
N43    N     0.91378   0.48485   0.73031   0.00000  Uiso   1.00
N44    N     0.60486   0.85532   0.50949   0.00000  Uiso   1.00
N45    N     0.32835   0.79649   0.29679   0.00000  Uiso   1.00
N46    N     0.94300   0.55646   0.86080   0.00000  Uiso   1.00
C47    C     0.07313   0.15818   0.08624   0.00000  Uiso   1.00
C48    C     0.16279   0.21027   0.06392   0.00000  Uiso   1.00
C49    C     0.25446   0.21419   0.11784   0.00000  Uiso   1.00
C50    C     0.32688   0.26553   0.08544   0.00000  Uiso   1.00
C51    C     0.46892   0.33947   0.06350   0.00000  Uiso   1.00
C52    C     0.96340   0.19407   0.12255   0.00000  Uiso   1.00
C53    C     0.88741   0.18435   0.22577   0.00000  Uiso   1.00
C54    C     0.79198   0.22204   0.24271   0.00000  Uiso   1.00
C55    C     0.62442   0.27079   0.31176   0.00000  Uiso   1.00
C56    C     0.06962   0.12792   0.96711   0.00000  Uiso   1.00
C57    C     0.08291   0.06258   0.93964   0.00000  Uiso   1.00
C58    C     0.07689   0.04457   0.82571   0.00000  Uiso   1.00
C59    C     0.07425   0.99061   0.65341   0.00000  Uiso   1.00
C60    C     0.03875   0.24239   0.93279   0.00000  Uiso   1.00
C61    C     0.14411   0.25601   0.98057   0.00000  Uiso   1.00
C62    C     0.21642   0.30735   0.94807   0.00000  Uiso   1.00
C63    C     0.30818   0.31134   0.00194   0.00000  Uiso   1.00
C64    C     0.94472   0.23980   0.03921   0.00000  Uiso   1.00
C65    C     0.84938   0.27751   0.05600   0.00000  Uiso   1.00
C66    C     0.77327   0.26786   0.15921   0.00000  Uiso   1.00
C67    C     0.05095   0.17365   0.88376   0.00000  Uiso   1.00
C68    C     0.04489   0.15574   0.76986   0.00000  Uiso   1.00
C69    C     0.05818   0.09039   0.74221   0.00000  Uiso   1.00
H70    H     0.08766   0.12258   0.15114   0.00000  Uiso   1.00
H71    H     0.26887   0.17879   0.18235   0.00000  Uiso   1.00
H72    H     0.90188   0.14895   0.29025   0.00000  Uiso   1.00
H73    H     0.09736   0.02720   0.00416   0.00000  Uiso   1.00
H74    H     0.46153   0.26129   0.18023   0.00000  Uiso   1.00
H75    H     0.68769   0.19836   0.40772   0.00000  Uiso   1.00
H76    H     0.09989   0.94162   0.80445   0.00000  Uiso   1.00
H77    H     0.02421   0.27800   0.86790   0.00000  Uiso   1.00
H78    H     0.20195   0.34274   0.88357   0.00000  Uiso   1.00
H79    H     0.83496   0.31290   0.99148   0.00000  Uiso   1.00
H80    H     0.03044   0.19115   0.70539   0.00000  Uiso   1.00
H81    H     0.40721   0.39436   0.93774   0.00000  Uiso   1.00
H82    H     0.63337   0.33143   0.16523   0.00000  Uiso   1.00
H83    H     0.04557   0.07469   0.56195   0.00000  Uiso   1.00
O84    O     0.55242   0.36762   0.07443   0.00000  Uiso   1.00
O85    O     0.53717   0.28505   0.37288   0.00000  Uiso   1.00
O86    O     0.07797   0.94821   0.58140   0.00000  Uiso   1.00
N87    N     0.42437   0.28372   0.12099   0.00000  Uiso   1.00
N88    N     0.70088   0.22489   0.33369   0.00000  Uiso   1.00
N89    N     0.08622   0.98485   0.76969   0.00000  Uiso   1.00
N90    N     0.39514   0.35532   0.99051   0.00000  Uiso   1.00
N91    N     0.67165   0.29649   0.20321   0.00000  Uiso   1.00
N92    N     0.05700   0.05646   0.63920   0.00000  Uiso   1.00
C93    C     0.07313   0.34182   0.58624   0.00000  Uiso   1.00
C94    C     0.16279   0.28973   0.56392   0.00000  Uiso   1.00
C95    C     0.25446   0.28581   0.61784   0.00000  Uiso   1.00
C96    C     0.32688   0.23447   0.58544   0.00000  Uiso   1.00
C97    C     0.46892   0.16053   0.56350   0.00000  Uiso   1.00
C98    C     0.96340   0.30593   0.62255   0.00000  Uiso   1.00
C99    C     0.88741   0.31565   0.72577   0.00000  Uiso   1.00
C100   C     0.79198   0.27796   0.74271   0.00000  Uiso   1.00
C101   C     0.62442   0.22921   0.81176   0.00000  Uiso   1.00
C102   C     0.06962   0.37208   0.46711   0.00000  Uiso   1.00
C103   C     0.08291   0.43742   0.43964   0.00000  Uiso   1.00
C104   C     0.07689   0.45543   0.32571   0.00000  Uiso   1.00
C105   C     0.07425   0.50939   0.15341   0.00000  Uiso   1.00
C106   C     0.03875   0.25761   0.43279   0.00000  Uiso   1.00
C107   C     0.14411   0.24399   0.48057   0.00000  Uiso   1.00
C108   C     0.21642   0.19265   0.44807   0.00000  Uiso   1.00
C109   C     0.30818   0.18866   0.50194   0.00000  Uiso   1.00
C110   C     0.94472   0.26020   0.53921   0.00000  Uiso   1.00
C111   C     0.84938   0.22249   0.55600   0.00000  Uiso   1.00
C112   C     0.77327   0.23214   0.65921   0.00000  Uiso   1.00
C113   C     0.05095   0.32635   0.38376   0.00000  Uiso   1.00
C114   C     0.04489   0.34426   0.26986   0.00000  Uiso   1.00
C115   C     0.05818   0.40961   0.24221   0.00000  Uiso   1.00
H116   H     0.08766   0.37742   0.65114   0.00000  Uiso   1.00
H117   H     0.26887   0.32121   0.68235   0.00000  Uiso   1.00
H118   H     0.90188   0.35105   0.79025   0.00000  Uiso   1.00
H119   H     0.09736   0.47280   0.50416   0.00000  Uiso   1.00
H120   H     0.46153   0.23871   0.68023   0.00000  Uiso   1.00
H121   H     0.68769   0.30164   0.90772   0.00000  Uiso   1.00
H122   H     0.09989   0.55838   0.30445   0.00000  Uiso   1.00
H123   H     0.02421   0.22200   0.36790   0.00000  Uiso   1.00
H124   H     0.20195   0.15726   0.38357   0.00000  Uiso   1.00
H125   H     0.83496   0.18710   0.49148   0.00000  Uiso   1.00
H126   H     0.03044   0.30885   0.20539   0.00000  Uiso   1.00
H127   H     0.40721   0.10564   0.43774   0.00000  Uiso   1.00
H128   H     0.63337   0.16857   0.66523   0.00000  Uiso   1.00
H129   H     0.04557   0.42531   0.06195   0.00000  Uiso   1.00
O130   O     0.55242   0.13238   0.57443   0.00000  Uiso   1.00
O131   O     0.53717   0.21495   0.87288   0.00000  Uiso   1.00
O132   O     0.07797   0.55179   0.08140   0.00000  Uiso   1.00
N133   N     0.42437   0.21628   0.62099   0.00000  Uiso   1.00
N134   N     0.70088   0.27511   0.83369   0.00000  Uiso   1.00
N135   N     0.08622   0.51515   0.26969   0.00000  Uiso   1.00
N136   N     0.39514   0.14468   0.49051   0.00000  Uiso   1.00
N137   N     0.67165   0.20351   0.70321   0.00000  Uiso   1.00
N138   N     0.05700   0.44354   0.13920   0.00000  Uiso   1.00
C139   C     0.92687   0.84182   0.91376   0.00000  Uiso   1.00
C140   C     0.83721   0.78973   0.93608   0.00000  Uiso   1.00
C141   C     0.74554   0.78581   0.88216   0.00000  Uiso   1.00
C142   C     0.67312   0.73447   0.91456   0.00000  Uiso   1.00
C143   C     0.53108   0.66053   0.93650   0.00000  Uiso   1.00
C144   C     0.03660   0.80593   0.87745   0.00000  Uiso   1.00
C145   C     0.11259   0.81565   0.77423   0.00000  Uiso   1.00
C146   C     0.20802   0.77796   0.75729   0.00000  Uiso   1.00
C147   C     0.37558   0.72921   0.68824   0.00000  Uiso   1.00
C148   C     0.93038   0.87208   0.03289   0.00000  Uiso   1.00
C149   C     0.91709   0.93742   0.06036   0.00000  Uiso   1.00
C150   C     0.92311   0.95543   0.17429   0.00000  Uiso   1.00
C151   C     0.92575   0.00939   0.34659   0.00000  Uiso   1.00
C152   C     0.96125   0.75761   0.06721   0.00000  Uiso   1.00
C153   C     0.85589   0.74399   0.01943   0.00000  Uiso   1.00
C154   C     0.78358   0.69265   0.05193   0.00000  Uiso   1.00
C155   C     0.69182   0.68866   0.99806   0.00000  Uiso   1.00
C156   C     0.05528   0.76020   0.96079   0.00000  Uiso   1.00
C157   C     0.15062   0.72249   0.94400   0.00000  Uiso   1.00
C158   C     0.22673   0.73214   0.84079   0.00000  Uiso   1.00
C159   C     0.94905   0.82635   0.11624   0.00000  Uiso   1.00
C160   C     0.95511   0.84426   0.23014   0.00000  Uiso   1.00
C161   C     0.94182   0.90961   0.25779   0.00000  Uiso   1.00
H162   H     0.91234   0.87742   0.84886   0.00000  Uiso   1.00
H163   H     0.73113   0.82121   0.81765   0.00000  Uiso   1.00
H164   H     0.09812   0.85105   0.70975   0.00000  Uiso   1.00
H165   H     0.90264   0.97280   0.99584   0.00000  Uiso   1.00
H166   H     0.53847   0.73871   0.81977   0.00000  Uiso   1.00
H167   H     0.31231   0.80164   0.59228   0.00000  Uiso   1.00
H168   H     0.90011   0.05838   0.19555   0.00000  Uiso   1.00
H169   H     0.97579   0.72200   0.13210   0.00000  Uiso   1.00
H170   H     0.79805   0.65726   0.11643   0.00000  Uiso   1.00
H171   H     0.16504   0.68710   0.00852   0.00000  Uiso   1.00
H172   H     0.96956   0.80885   0.29461   0.00000  Uiso   1.00
H173   H     0.59279   0.60564   0.06226   0.00000  Uiso   1.00
H174   H     0.36663   0.66857   0.83477   0.00000  Uiso   1.00
H175   H     0.95443   0.92531   0.43805   0.00000  Uiso   1.00
O176   O     0.44758   0.63238   0.92557   0.00000  Uiso   1.00
O177   O     0.46283   0.71495   0.62712   0.00000  Uiso   1.00
O178   O     0.92203   0.05179   0.41860   0.00000  Uiso   1.00
N179   N     0.57563   0.71628   0.87901   0.00000  Uiso   1.00
N180   N     0.29912   0.77511   0.66631   0.00000  Uiso   1.00
N181   N     0.91378   0.01515   0.23031   0.00000  Uiso   1.00
N182   N     0.60486   0.64468   0.00949   0.00000  Uiso   1.00
N183   N     0.32835   0.70351   0.79679   0.00000  Uiso   1.00
N184   N     0.94300   0.94354   0.36080   0.00000  Uiso   1.00
