data_job_04484
_audit_creation_date              2018-12-19
_audit_creation_method            'Materials Studio'
_symmetry_space_group_name_H-M    'P1'
_symmetry_Int_Tables_number       1
_symmetry_cell_setting            triclinic
loop_
_symmetry_equiv_pos_as_xyz
  x,y,z
_cell_length_a                    35.0750
_cell_length_b                    10.7393
_cell_length_c                    22.6284
_cell_angle_alpha                 90.0000
_cell_angle_beta                  149.7017
_cell_angle_gamma                 90.0000
loop_
_atom_site_label
_atom_site_type_symbol
_atom_site_fract_x
_atom_site_fract_y
_atom_site_fract_z
_atom_site_U_iso_or_equiv
_atom_site_adp_type
_atom_site_occupancy
C1     C     0.17718   0.17656   0.10799   0.00000  Uiso   1.00
C2     C     0.22611   0.27136   0.14103   0.00000  Uiso   1.00
C3     C     0.30013   0.30209   0.25417   0.00000  Uiso   1.00
C4     C     0.33516   0.39109   0.26598   0.00000  Uiso   1.00
C5     C     0.41686   0.52979   0.33217   0.00000  Uiso   1.00
C6     C     0.10622   0.24634   0.03216   0.00000  Uiso   1.00
C7     C     0.07943   0.25602   0.05376   0.00000  Uiso   1.00
C8     C     0.01353   0.32394   0.97391   0.00000  Uiso   1.00
C9     C     0.90907   0.42371   0.87103   0.00000  Uiso   1.00
C10    C     0.15164   0.08287   0.02728   0.00000  Uiso   1.00
C11    C     0.16301   0.95509   0.04476   0.00000  Uiso   1.00
C12    C     0.13533   0.88538   0.96079   0.00000  Uiso   1.00
C13    C     0.10139   0.73134   0.85035   0.00000  Uiso   1.00
C14    C     0.10778   0.27997   0.92777   0.00000  Uiso   1.00
C15    C     0.18841   0.32752   0.04314   0.00000  Uiso   1.00
C16    C     0.22334   0.41650   0.05478   0.00000  Uiso   1.00
C17    C     0.29739   0.44736   0.16792   0.00000  Uiso   1.00
C18    C     0.06853   0.30250   0.93427   0.00000  Uiso   1.00
C19    C     0.00264   0.37042   0.85436   0.00000  Uiso   1.00
C20    C     0.97576   0.38021   0.87584   0.00000  Uiso   1.00
C21    C     0.11394   0.13903   0.92939   0.00000  Uiso   1.00
C22    C     0.08623   0.06950   0.84537   0.00000  Uiso   1.00
C23    C     0.09756   0.94165   0.86273   0.00000  Uiso   1.00
H24    H     0.20652   0.13284   0.18420   0.00000  Uiso   1.00
H25    H     0.32928   0.25861   0.32990   0.00000  Uiso   1.00
H26    H     0.10861   0.21253   0.12951   0.00000  Uiso   1.00
H27    H     0.19218   0.91166   0.12052   0.00000  Uiso   1.00
H28    H     0.44874   0.42286   0.44828   0.00000  Uiso   1.00
H29    H     0.98344   0.32566   0.02572   0.00000  Uiso   1.00
H30    H     0.15967   0.69121   0.00677   0.00000  Uiso   1.00
H31    H     0.07843   0.32369   0.85155   0.00000  Uiso   1.00
H32    H     0.19416   0.45994   0.97901   0.00000  Uiso   1.00
H33    H     0.97349   0.41387   0.77862   0.00000  Uiso   1.00
H34    H     0.05706   0.11300   0.76963   0.00000  Uiso   1.00
H35    H     0.33907   0.58627   0.16348   0.00000  Uiso   1.00
H36    H     0.87376   0.48907   0.74092   0.00000  Uiso   1.00
H37    H     0.05000   0.85463   0.72197   0.00000  Uiso   1.00
O38    O     0.47234   0.59078   0.39572   0.00000  Uiso   1.00
O39    O     0.86187   0.46324   0.84134   0.00000  Uiso   1.00
O40    O     0.09309   0.63086   0.81648   0.00000  Uiso   1.00
N41    N     0.40705   0.44260   0.36376   0.00000  Uiso   1.00
N42    N     0.97203   0.35175   0.96870   0.00000  Uiso   1.00
N43    N     0.13677   0.75858   0.95097   0.00000  Uiso   1.00
N44    N     0.34804   0.53053   0.21051   0.00000  Uiso   1.00
N45    N     0.91301   0.43968   0.81545   0.00000  Uiso   1.00
N46    N     0.07776   0.84651   0.79772   0.00000  Uiso   1.00
C47    C     0.67718   0.67656   0.10799   0.00000  Uiso   1.00
C48    C     0.72611   0.77136   0.14103   0.00000  Uiso   1.00
C49    C     0.80013   0.80209   0.25417   0.00000  Uiso   1.00
C50    C     0.83516   0.89109   0.26598   0.00000  Uiso   1.00
C51    C     0.91686   0.02979   0.33217   0.00000  Uiso   1.00
C52    C     0.60622   0.74634   0.03216   0.00000  Uiso   1.00
C53    C     0.57943   0.75602   0.05376   0.00000  Uiso   1.00
C54    C     0.51353   0.82394   0.97391   0.00000  Uiso   1.00
C55    C     0.40907   0.92371   0.87103   0.00000  Uiso   1.00
C56    C     0.65164   0.58287   0.02728   0.00000  Uiso   1.00
C57    C     0.66301   0.45509   0.04476   0.00000  Uiso   1.00
C58    C     0.63533   0.38538   0.96079   0.00000  Uiso   1.00
C59    C     0.60139   0.23134   0.85035   0.00000  Uiso   1.00
C60    C     0.60778   0.77997   0.92777   0.00000  Uiso   1.00
C61    C     0.68841   0.82752   0.04314   0.00000  Uiso   1.00
C62    C     0.72334   0.91650   0.05478   0.00000  Uiso   1.00
C63    C     0.79739   0.94736   0.16792   0.00000  Uiso   1.00
C64    C     0.56853   0.80250   0.93427   0.00000  Uiso   1.00
C65    C     0.50264   0.87042   0.85436   0.00000  Uiso   1.00
C66    C     0.47576   0.88021   0.87584   0.00000  Uiso   1.00
C67    C     0.61394   0.63903   0.92939   0.00000  Uiso   1.00
C68    C     0.58623   0.56950   0.84537   0.00000  Uiso   1.00
C69    C     0.59756   0.44165   0.86273   0.00000  Uiso   1.00
H70    H     0.70652   0.63284   0.18420   0.00000  Uiso   1.00
H71    H     0.82928   0.75861   0.32990   0.00000  Uiso   1.00
H72    H     0.60861   0.71253   0.12951   0.00000  Uiso   1.00
H73    H     0.69218   0.41166   0.12052   0.00000  Uiso   1.00
H74    H     0.94874   0.92286   0.44828   0.00000  Uiso   1.00
H75    H     0.48344   0.82566   0.02572   0.00000  Uiso   1.00
H76    H     0.65967   0.19121   0.00677   0.00000  Uiso   1.00
H77    H     0.57843   0.82369   0.85155   0.00000  Uiso   1.00
H78    H     0.69416   0.95994   0.97901   0.00000  Uiso   1.00
H79    H     0.47349   0.91387   0.77862   0.00000  Uiso   1.00
H80    H     0.55706   0.61300   0.76963   0.00000  Uiso   1.00
H81    H     0.83907   0.08627   0.16348   0.00000  Uiso   1.00
H82    H     0.37376   0.98907   0.74092   0.00000  Uiso   1.00
H83    H     0.55000   0.35463   0.72197   0.00000  Uiso   1.00
O84    O     0.97234   0.09078   0.39572   0.00000  Uiso   1.00
O85    O     0.36187   0.96324   0.84134   0.00000  Uiso   1.00
O86    O     0.59309   0.13086   0.81648   0.00000  Uiso   1.00
N87    N     0.90705   0.94260   0.36376   0.00000  Uiso   1.00
N88    N     0.47203   0.85175   0.96870   0.00000  Uiso   1.00
N89    N     0.63677   0.25858   0.95097   0.00000  Uiso   1.00
N90    N     0.84804   0.03053   0.21051   0.00000  Uiso   1.00
N91    N     0.41301   0.93968   0.81545   0.00000  Uiso   1.00
N92    N     0.57776   0.34651   0.79772   0.00000  Uiso   1.00
C93    C     0.82282   0.17656   0.39201   0.00000  Uiso   1.00
C94    C     0.77389   0.27136   0.35897   0.00000  Uiso   1.00
C95    C     0.69987   0.30209   0.24583   0.00000  Uiso   1.00
C96    C     0.66484   0.39109   0.23402   0.00000  Uiso   1.00
C97    C     0.58314   0.52979   0.16783   0.00000  Uiso   1.00
C98    C     0.89378   0.24634   0.46784   0.00000  Uiso   1.00
C99    C     0.92057   0.25602   0.44624   0.00000  Uiso   1.00
C100   C     0.98647   0.32394   0.52609   0.00000  Uiso   1.00
C101   C     0.09093   0.42371   0.62897   0.00000  Uiso   1.00
C102   C     0.84836   0.08287   0.47272   0.00000  Uiso   1.00
C103   C     0.83699   0.95509   0.45524   0.00000  Uiso   1.00
C104   C     0.86467   0.88538   0.53921   0.00000  Uiso   1.00
C105   C     0.89861   0.73134   0.64965   0.00000  Uiso   1.00
C106   C     0.89222   0.27997   0.57223   0.00000  Uiso   1.00
C107   C     0.81159   0.32752   0.45686   0.00000  Uiso   1.00
C108   C     0.77666   0.41650   0.44522   0.00000  Uiso   1.00
C109   C     0.70261   0.44736   0.33208   0.00000  Uiso   1.00
C110   C     0.93147   0.30250   0.56573   0.00000  Uiso   1.00
C111   C     0.99736   0.37042   0.64564   0.00000  Uiso   1.00
C112   C     0.02424   0.38021   0.62416   0.00000  Uiso   1.00
C113   C     0.88606   0.13903   0.57061   0.00000  Uiso   1.00
C114   C     0.91377   0.06950   0.65463   0.00000  Uiso   1.00
C115   C     0.90244   0.94165   0.63727   0.00000  Uiso   1.00
H116   H     0.79348   0.13284   0.31580   0.00000  Uiso   1.00
H117   H     0.67072   0.25861   0.17010   0.00000  Uiso   1.00
H118   H     0.89139   0.21253   0.37049   0.00000  Uiso   1.00
H119   H     0.80782   0.91166   0.37948   0.00000  Uiso   1.00
H120   H     0.55126   0.42286   0.05172   0.00000  Uiso   1.00
H121   H     0.01656   0.32566   0.47428   0.00000  Uiso   1.00
H122   H     0.84033   0.69121   0.49323   0.00000  Uiso   1.00
H123   H     0.92157   0.32369   0.64845   0.00000  Uiso   1.00
H124   H     0.80584   0.45994   0.52099   0.00000  Uiso   1.00
H125   H     0.02651   0.41387   0.72138   0.00000  Uiso   1.00
H126   H     0.94294   0.11300   0.73037   0.00000  Uiso   1.00
H127   H     0.66093   0.58627   0.33652   0.00000  Uiso   1.00
H128   H     0.12624   0.48907   0.75908   0.00000  Uiso   1.00
H129   H     0.95000   0.85463   0.77803   0.00000  Uiso   1.00
O130   O     0.52766   0.59078   0.10428   0.00000  Uiso   1.00
O131   O     0.13813   0.46324   0.65866   0.00000  Uiso   1.00
O132   O     0.90691   0.63086   0.68352   0.00000  Uiso   1.00
N133   N     0.59295   0.44260   0.13624   0.00000  Uiso   1.00
N134   N     0.02797   0.35175   0.53130   0.00000  Uiso   1.00
N135   N     0.86323   0.75858   0.54903   0.00000  Uiso   1.00
N136   N     0.65196   0.53053   0.28949   0.00000  Uiso   1.00
N137   N     0.08699   0.43968   0.68455   0.00000  Uiso   1.00
N138   N     0.92224   0.84651   0.70228   0.00000  Uiso   1.00
C139   C     0.32282   0.67656   0.39201   0.00000  Uiso   1.00
C140   C     0.27389   0.77136   0.35897   0.00000  Uiso   1.00
C141   C     0.19987   0.80209   0.24583   0.00000  Uiso   1.00
C142   C     0.16484   0.89109   0.23402   0.00000  Uiso   1.00
C143   C     0.08314   0.02979   0.16783   0.00000  Uiso   1.00
C144   C     0.39378   0.74634   0.46784   0.00000  Uiso   1.00
C145   C     0.42057   0.75602   0.44624   0.00000  Uiso   1.00
C146   C     0.48647   0.82394   0.52609   0.00000  Uiso   1.00
C147   C     0.59093   0.92371   0.62897   0.00000  Uiso   1.00
C148   C     0.34836   0.58287   0.47272   0.00000  Uiso   1.00
C149   C     0.33699   0.45509   0.45524   0.00000  Uiso   1.00
C150   C     0.36467   0.38538   0.53921   0.00000  Uiso   1.00
C151   C     0.39861   0.23134   0.64965   0.00000  Uiso   1.00
C152   C     0.39222   0.77997   0.57223   0.00000  Uiso   1.00
C153   C     0.31159   0.82752   0.45686   0.00000  Uiso   1.00
C154   C     0.27666   0.91650   0.44522   0.00000  Uiso   1.00
C155   C     0.20261   0.94736   0.33208   0.00000  Uiso   1.00
C156   C     0.43147   0.80250   0.56573   0.00000  Uiso   1.00
C157   C     0.49736   0.87042   0.64564   0.00000  Uiso   1.00
C158   C     0.52424   0.88021   0.62416   0.00000  Uiso   1.00
C159   C     0.38606   0.63903   0.57061   0.00000  Uiso   1.00
C160   C     0.41377   0.56950   0.65463   0.00000  Uiso   1.00
C161   C     0.40244   0.44165   0.63727   0.00000  Uiso   1.00
H162   H     0.29348   0.63284   0.31580   0.00000  Uiso   1.00
H163   H     0.17072   0.75861   0.17010   0.00000  Uiso   1.00
H164   H     0.39139   0.71253   0.37049   0.00000  Uiso   1.00
H165   H     0.30782   0.41166   0.37948   0.00000  Uiso   1.00
H166   H     0.05126   0.92286   0.05172   0.00000  Uiso   1.00
H167   H     0.51656   0.82566   0.47428   0.00000  Uiso   1.00
H168   H     0.34033   0.19121   0.49323   0.00000  Uiso   1.00
H169   H     0.42157   0.82369   0.64845   0.00000  Uiso   1.00
H170   H     0.30584   0.95994   0.52099   0.00000  Uiso   1.00
H171   H     0.52651   0.91387   0.72138   0.00000  Uiso   1.00
H172   H     0.44294   0.61300   0.73037   0.00000  Uiso   1.00
H173   H     0.16093   0.08627   0.33652   0.00000  Uiso   1.00
H174   H     0.62624   0.98907   0.75908   0.00000  Uiso   1.00
H175   H     0.45000   0.35463   0.77803   0.00000  Uiso   1.00
O176   O     0.02766   0.09078   0.10428   0.00000  Uiso   1.00
O177   O     0.63813   0.96324   0.65866   0.00000  Uiso   1.00
O178   O     0.40691   0.13086   0.68352   0.00000  Uiso   1.00
N179   N     0.09295   0.94260   0.13624   0.00000  Uiso   1.00
N180   N     0.52797   0.85175   0.53130   0.00000  Uiso   1.00
N181   N     0.36323   0.25858   0.54903   0.00000  Uiso   1.00
N182   N     0.15196   0.03053   0.28949   0.00000  Uiso   1.00
N183   N     0.58699   0.93968   0.68455   0.00000  Uiso   1.00
N184   N     0.42224   0.34651   0.70228   0.00000  Uiso   1.00
C185   C     0.82282   0.82344   0.89201   0.00000  Uiso   1.00
C186   C     0.77389   0.72864   0.85897   0.00000  Uiso   1.00
C187   C     0.69987   0.69791   0.74583   0.00000  Uiso   1.00
C188   C     0.66484   0.60891   0.73402   0.00000  Uiso   1.00
C189   C     0.58314   0.47021   0.66783   0.00000  Uiso   1.00
C190   C     0.89378   0.75366   0.96784   0.00000  Uiso   1.00
C191   C     0.92057   0.74398   0.94624   0.00000  Uiso   1.00
C192   C     0.98647   0.67606   0.02609   0.00000  Uiso   1.00
C193   C     0.09093   0.57629   0.12897   0.00000  Uiso   1.00
C194   C     0.84836   0.91713   0.97272   0.00000  Uiso   1.00
C195   C     0.83699   0.04491   0.95524   0.00000  Uiso   1.00
C196   C     0.86467   0.11462   0.03921   0.00000  Uiso   1.00
C197   C     0.89861   0.26866   0.14965   0.00000  Uiso   1.00
C198   C     0.89222   0.72003   0.07223   0.00000  Uiso   1.00
C199   C     0.81159   0.67248   0.95686   0.00000  Uiso   1.00
C200   C     0.77666   0.58350   0.94522   0.00000  Uiso   1.00
C201   C     0.70261   0.55264   0.83208   0.00000  Uiso   1.00
C202   C     0.93147   0.69750   0.06573   0.00000  Uiso   1.00
C203   C     0.99736   0.62958   0.14564   0.00000  Uiso   1.00
C204   C     0.02424   0.61979   0.12416   0.00000  Uiso   1.00
C205   C     0.88606   0.86097   0.07061   0.00000  Uiso   1.00
C206   C     0.91377   0.93050   0.15463   0.00000  Uiso   1.00
C207   C     0.90244   0.05835   0.13727   0.00000  Uiso   1.00
H208   H     0.79348   0.86716   0.81580   0.00000  Uiso   1.00
H209   H     0.67072   0.74139   0.67010   0.00000  Uiso   1.00
H210   H     0.89139   0.78747   0.87049   0.00000  Uiso   1.00
H211   H     0.80782   0.08834   0.87948   0.00000  Uiso   1.00
H212   H     0.55126   0.57714   0.55172   0.00000  Uiso   1.00
H213   H     0.01656   0.67434   0.97428   0.00000  Uiso   1.00
H214   H     0.84033   0.30879   0.99323   0.00000  Uiso   1.00
H215   H     0.92157   0.67631   0.14845   0.00000  Uiso   1.00
H216   H     0.80584   0.54006   0.02099   0.00000  Uiso   1.00
H217   H     0.02651   0.58613   0.22138   0.00000  Uiso   1.00
H218   H     0.94294   0.88700   0.23037   0.00000  Uiso   1.00
H219   H     0.66093   0.41373   0.83652   0.00000  Uiso   1.00
H220   H     0.12624   0.51093   0.25908   0.00000  Uiso   1.00
H221   H     0.95000   0.14537   0.27803   0.00000  Uiso   1.00
O222   O     0.52766   0.40922   0.60428   0.00000  Uiso   1.00
O223   O     0.13813   0.53676   0.15866   0.00000  Uiso   1.00
O224   O     0.90691   0.36914   0.18352   0.00000  Uiso   1.00
N225   N     0.59295   0.55740   0.63624   0.00000  Uiso   1.00
N226   N     0.02797   0.64825   0.03130   0.00000  Uiso   1.00
N227   N     0.86323   0.24142   0.04903   0.00000  Uiso   1.00
N228   N     0.65196   0.46947   0.78949   0.00000  Uiso   1.00
N229   N     0.08699   0.56032   0.18455   0.00000  Uiso   1.00
N230   N     0.92224   0.15349   0.20228   0.00000  Uiso   1.00
C231   C     0.32282   0.32344   0.89201   0.00000  Uiso   1.00
C232   C     0.27389   0.22864   0.85897   0.00000  Uiso   1.00
C233   C     0.19987   0.19791   0.74583   0.00000  Uiso   1.00
C234   C     0.16484   0.10891   0.73402   0.00000  Uiso   1.00
C235   C     0.08314   0.97021   0.66783   0.00000  Uiso   1.00
C236   C     0.39378   0.25366   0.96784   0.00000  Uiso   1.00
C237   C     0.42057   0.24398   0.94624   0.00000  Uiso   1.00
C238   C     0.48647   0.17606   0.02609   0.00000  Uiso   1.00
C239   C     0.59093   0.07629   0.12897   0.00000  Uiso   1.00
C240   C     0.34836   0.41713   0.97272   0.00000  Uiso   1.00
C241   C     0.33699   0.54491   0.95524   0.00000  Uiso   1.00
C242   C     0.36467   0.61462   0.03921   0.00000  Uiso   1.00
C243   C     0.39861   0.76866   0.14965   0.00000  Uiso   1.00
C244   C     0.39222   0.22003   0.07223   0.00000  Uiso   1.00
C245   C     0.31159   0.17248   0.95686   0.00000  Uiso   1.00
C246   C     0.27666   0.08350   0.94522   0.00000  Uiso   1.00
C247   C     0.20261   0.05264   0.83208   0.00000  Uiso   1.00
C248   C     0.43147   0.19750   0.06573   0.00000  Uiso   1.00
C249   C     0.49736   0.12958   0.14564   0.00000  Uiso   1.00
C250   C     0.52424   0.11979   0.12416   0.00000  Uiso   1.00
C251   C     0.38606   0.36097   0.07061   0.00000  Uiso   1.00
C252   C     0.41377   0.43050   0.15463   0.00000  Uiso   1.00
C253   C     0.40244   0.55835   0.13727   0.00000  Uiso   1.00
H254   H     0.29348   0.36716   0.81580   0.00000  Uiso   1.00
H255   H     0.17072   0.24139   0.67010   0.00000  Uiso   1.00
H256   H     0.39139   0.28747   0.87049   0.00000  Uiso   1.00
H257   H     0.30782   0.58834   0.87948   0.00000  Uiso   1.00
H258   H     0.05126   0.07714   0.55172   0.00000  Uiso   1.00
H259   H     0.51656   0.17434   0.97428   0.00000  Uiso   1.00
H260   H     0.34033   0.80879   0.99323   0.00000  Uiso   1.00
H261   H     0.42157   0.17631   0.14845   0.00000  Uiso   1.00
H262   H     0.30584   0.04006   0.02099   0.00000  Uiso   1.00
H263   H     0.52651   0.08613   0.22138   0.00000  Uiso   1.00
H264   H     0.44294   0.38700   0.23037   0.00000  Uiso   1.00
H265   H     0.16093   0.91373   0.83652   0.00000  Uiso   1.00
H266   H     0.62624   0.01093   0.25908   0.00000  Uiso   1.00
H267   H     0.45000   0.64537   0.27803   0.00000  Uiso   1.00
O268   O     0.02766   0.90922   0.60428   0.00000  Uiso   1.00
O269   O     0.63813   0.03676   0.15866   0.00000  Uiso   1.00
O270   O     0.40691   0.86914   0.18352   0.00000  Uiso   1.00
N271   N     0.09295   0.05740   0.63624   0.00000  Uiso   1.00
N272   N     0.52797   0.14825   0.03130   0.00000  Uiso   1.00
N273   N     0.36323   0.74142   0.04903   0.00000  Uiso   1.00
N274   N     0.15196   0.96947   0.78949   0.00000  Uiso   1.00
N275   N     0.58699   0.06032   0.18455   0.00000  Uiso   1.00
N276   N     0.42224   0.65349   0.20228   0.00000  Uiso   1.00
C277   C     0.17718   0.82344   0.60799   0.00000  Uiso   1.00
C278   C     0.22611   0.72864   0.64103   0.00000  Uiso   1.00
C279   C     0.30013   0.69791   0.75417   0.00000  Uiso   1.00
C280   C     0.33516   0.60891   0.76598   0.00000  Uiso   1.00
C281   C     0.41686   0.47021   0.83217   0.00000  Uiso   1.00
C282   C     0.10622   0.75366   0.53216   0.00000  Uiso   1.00
C283   C     0.07943   0.74398   0.55376   0.00000  Uiso   1.00
C284   C     0.01353   0.67606   0.47391   0.00000  Uiso   1.00
C285   C     0.90907   0.57629   0.37103   0.00000  Uiso   1.00
C286   C     0.15164   0.91713   0.52728   0.00000  Uiso   1.00
C287   C     0.16301   0.04491   0.54476   0.00000  Uiso   1.00
C288   C     0.13533   0.11462   0.46079   0.00000  Uiso   1.00
C289   C     0.10139   0.26866   0.35035   0.00000  Uiso   1.00
C290   C     0.10778   0.72003   0.42777   0.00000  Uiso   1.00
C291   C     0.18841   0.67248   0.54314   0.00000  Uiso   1.00
C292   C     0.22334   0.58350   0.55478   0.00000  Uiso   1.00
C293   C     0.29739   0.55264   0.66792   0.00000  Uiso   1.00
C294   C     0.06853   0.69750   0.43427   0.00000  Uiso   1.00
C295   C     0.00264   0.62958   0.35436   0.00000  Uiso   1.00
C296   C     0.97576   0.61979   0.37584   0.00000  Uiso   1.00
C297   C     0.11394   0.86097   0.42939   0.00000  Uiso   1.00
C298   C     0.08623   0.93050   0.34537   0.00000  Uiso   1.00
C299   C     0.09756   0.05835   0.36273   0.00000  Uiso   1.00
H300   H     0.20652   0.86716   0.68420   0.00000  Uiso   1.00
H301   H     0.32928   0.74139   0.82990   0.00000  Uiso   1.00
H302   H     0.10861   0.78747   0.62951   0.00000  Uiso   1.00
H303   H     0.19218   0.08834   0.62052   0.00000  Uiso   1.00
H304   H     0.44874   0.57714   0.94828   0.00000  Uiso   1.00
H305   H     0.98344   0.67434   0.52572   0.00000  Uiso   1.00
H306   H     0.15967   0.30879   0.50677   0.00000  Uiso   1.00
H307   H     0.07843   0.67631   0.35155   0.00000  Uiso   1.00
H308   H     0.19416   0.54006   0.47901   0.00000  Uiso   1.00
H309   H     0.97349   0.58613   0.27862   0.00000  Uiso   1.00
H310   H     0.05706   0.88700   0.26963   0.00000  Uiso   1.00
H311   H     0.33907   0.41373   0.66348   0.00000  Uiso   1.00
H312   H     0.87376   0.51093   0.24092   0.00000  Uiso   1.00
H313   H     0.05000   0.14537   0.22197   0.00000  Uiso   1.00
O314   O     0.47234   0.40922   0.89572   0.00000  Uiso   1.00
O315   O     0.86187   0.53676   0.34134   0.00000  Uiso   1.00
O316   O     0.09309   0.36914   0.31648   0.00000  Uiso   1.00
N317   N     0.40705   0.55740   0.86376   0.00000  Uiso   1.00
N318   N     0.97203   0.64825   0.46870   0.00000  Uiso   1.00
N319   N     0.13677   0.24142   0.45097   0.00000  Uiso   1.00
N320   N     0.34804   0.46947   0.71051   0.00000  Uiso   1.00
N321   N     0.91301   0.56032   0.31545   0.00000  Uiso   1.00
N322   N     0.07776   0.15349   0.29772   0.00000  Uiso   1.00
C323   C     0.67718   0.32344   0.60799   0.00000  Uiso   1.00
C324   C     0.72611   0.22864   0.64103   0.00000  Uiso   1.00
C325   C     0.80013   0.19791   0.75417   0.00000  Uiso   1.00
C326   C     0.83516   0.10891   0.76598   0.00000  Uiso   1.00
C327   C     0.91686   0.97021   0.83217   0.00000  Uiso   1.00
C328   C     0.60622   0.25366   0.53216   0.00000  Uiso   1.00
C329   C     0.57943   0.24398   0.55376   0.00000  Uiso   1.00
C330   C     0.51353   0.17606   0.47391   0.00000  Uiso   1.00
C331   C     0.40907   0.07629   0.37103   0.00000  Uiso   1.00
C332   C     0.65164   0.41713   0.52728   0.00000  Uiso   1.00
C333   C     0.66301   0.54491   0.54476   0.00000  Uiso   1.00
C334   C     0.63533   0.61462   0.46079   0.00000  Uiso   1.00
C335   C     0.60139   0.76866   0.35035   0.00000  Uiso   1.00
C336   C     0.60778   0.22003   0.42777   0.00000  Uiso   1.00
C337   C     0.68841   0.17248   0.54314   0.00000  Uiso   1.00
C338   C     0.72334   0.08350   0.55478   0.00000  Uiso   1.00
C339   C     0.79739   0.05264   0.66792   0.00000  Uiso   1.00
C340   C     0.56853   0.19750   0.43427   0.00000  Uiso   1.00
C341   C     0.50264   0.12958   0.35436   0.00000  Uiso   1.00
C342   C     0.47576   0.11979   0.37584   0.00000  Uiso   1.00
C343   C     0.61394   0.36097   0.42939   0.00000  Uiso   1.00
C344   C     0.58623   0.43050   0.34537   0.00000  Uiso   1.00
C345   C     0.59756   0.55835   0.36273   0.00000  Uiso   1.00
H346   H     0.70652   0.36716   0.68420   0.00000  Uiso   1.00
H347   H     0.82928   0.24139   0.82990   0.00000  Uiso   1.00
H348   H     0.60861   0.28747   0.62951   0.00000  Uiso   1.00
H349   H     0.69218   0.58834   0.62052   0.00000  Uiso   1.00
H350   H     0.94874   0.07714   0.94828   0.00000  Uiso   1.00
H351   H     0.48344   0.17434   0.52572   0.00000  Uiso   1.00
H352   H     0.65967   0.80879   0.50677   0.00000  Uiso   1.00
H353   H     0.57843   0.17631   0.35155   0.00000  Uiso   1.00
H354   H     0.69416   0.04006   0.47901   0.00000  Uiso   1.00
H355   H     0.47349   0.08613   0.27862   0.00000  Uiso   1.00
H356   H     0.55706   0.38700   0.26963   0.00000  Uiso   1.00
H357   H     0.83907   0.91373   0.66348   0.00000  Uiso   1.00
H358   H     0.37376   0.01093   0.24092   0.00000  Uiso   1.00
H359   H     0.55000   0.64537   0.22197   0.00000  Uiso   1.00
O360   O     0.97234   0.90922   0.89572   0.00000  Uiso   1.00
O361   O     0.36187   0.03676   0.34134   0.00000  Uiso   1.00
O362   O     0.59309   0.86914   0.31648   0.00000  Uiso   1.00
N363   N     0.90705   0.05740   0.86376   0.00000  Uiso   1.00
N364   N     0.47203   0.14825   0.46870   0.00000  Uiso   1.00
N365   N     0.63677   0.74142   0.45097   0.00000  Uiso   1.00
N366   N     0.84804   0.96947   0.71051   0.00000  Uiso   1.00
N367   N     0.41301   0.06032   0.31545   0.00000  Uiso   1.00
N368   N     0.57776   0.65349   0.29772   0.00000  Uiso   1.00
