data_job_02912
_audit_creation_date              2018-12-19
_audit_creation_method            'Materials Studio'
_symmetry_space_group_name_H-M    'P1'
_symmetry_Int_Tables_number       1
_symmetry_cell_setting            triclinic
loop_
_symmetry_equiv_pos_as_xyz
  x,y,z
_cell_length_a                    26.2507
_cell_length_b                    23.7048
_cell_length_c                    10.4379
_cell_angle_alpha                 90.0000
_cell_angle_beta                  90.0000
_cell_angle_gamma                 90.0000
loop_
_atom_site_label
_atom_site_type_symbol
_atom_site_fract_x
_atom_site_fract_y
_atom_site_fract_z
_atom_site_U_iso_or_equiv
_atom_site_adp_type
_atom_site_occupancy
C1     C     0.08450   0.89456   0.84597   0.00000  Uiso   1.00
C2     C     0.07796   0.90463   0.98933   0.00000  Uiso   1.00
C3     C     0.03252   0.90085   0.05673   0.00000  Uiso   1.00
C4     C     0.03451   0.91164   0.18737   0.00000  Uiso   1.00
C5     C     0.01739   0.92517   0.40069   0.00000  Uiso   1.00
C6     C     0.10849   0.94817   0.79233   0.00000  Uiso   1.00
C7     C     0.08871   0.98099   0.69409   0.00000  Uiso   1.00
C8     C     0.11640   0.02843   0.65890   0.00000  Uiso   1.00
C9     C     0.14669   0.10954   0.56631   0.00000  Uiso   1.00
C10    C     0.12483   0.84861   0.83311   0.00000  Uiso   1.00
C11    C     0.11880   0.79772   0.76913   0.00000  Uiso   1.00
C12    C     0.16026   0.76134   0.76824   0.00000  Uiso   1.00
C13    C     0.21592   0.68787   0.73897   0.00000  Uiso   1.00
C14    C     0.16883   0.92044   0.95812   0.00000  Uiso   1.00
C15    C     0.12377   0.91869   0.05024   0.00000  Uiso   1.00
C16    C     0.12583   0.92949   0.18081   0.00000  Uiso   1.00
C17    C     0.08040   0.92572   0.24840   0.00000  Uiso   1.00
C18    C     0.15429   0.96223   0.85324   0.00000  Uiso   1.00
C19    C     0.18202   0.00963   0.81818   0.00000  Uiso   1.00
C20    C     0.16229   0.04252   0.71992   0.00000  Uiso   1.00
C21    C     0.17064   0.86267   0.89403   0.00000  Uiso   1.00
C22    C     0.21211   0.82636   0.89322   0.00000  Uiso   1.00
C23    C     0.20615   0.77543   0.82926   0.00000  Uiso   1.00
H24    H     0.04884   0.88361   0.79854   0.00000  Uiso   1.00
H25    H     0.99708   0.88997   0.00955   0.00000  Uiso   1.00
H26    H     0.05327   0.97010   0.64697   0.00000  Uiso   1.00
H27    H     0.08335   0.78686   0.72200   0.00000  Uiso   1.00
H28    H     0.95990   0.90324   0.27036   0.00000  Uiso   1.00
H29    H     0.07838   0.07218   0.50579   0.00000  Uiso   1.00
H30    H     0.14182   0.68579   0.66401   0.00000  Uiso   1.00
H31    H     0.20449   0.93139   0.00555   0.00000  Uiso   1.00
H32    H     0.16128   0.94037   0.22793   0.00000  Uiso   1.00
H33    H     0.21746   0.02050   0.86533   0.00000  Uiso   1.00
H34    H     0.24755   0.83726   0.94037   0.00000  Uiso   1.00
H35    H     0.09317   0.94415   0.44759   0.00000  Uiso   1.00
H36    H     0.21165   0.11309   0.68302   0.00000  Uiso   1.00
H37    H     0.27509   0.72669   0.84125   0.00000  Uiso   1.00
O38    O     0.99530   0.92876   0.50152   0.00000  Uiso   1.00
O39    O     0.15074   0.15039   0.49842   0.00000  Uiso   1.00
O40    O     0.23397   0.64345   0.70601   0.00000  Uiso   1.00
N41    N     0.99720   0.91162   0.28156   0.00000  Uiso   1.00
N42    N     0.10796   0.06958   0.56674   0.00000  Uiso   1.00
N43    N     0.16728   0.70834   0.71464   0.00000  Uiso   1.00
N44    N     0.06891   0.93363   0.37693   0.00000  Uiso   1.00
N45    N     0.17968   0.09159   0.66211   0.00000  Uiso   1.00
N46    N     0.23899   0.73035   0.81001   0.00000  Uiso   1.00
C47    C     0.41550   0.10544   0.34597   0.00000  Uiso   1.00
C48    C     0.42204   0.09537   0.48933   0.00000  Uiso   1.00
C49    C     0.46748   0.09915   0.55673   0.00000  Uiso   1.00
C50    C     0.46549   0.08836   0.68737   0.00000  Uiso   1.00
C51    C     0.48261   0.07483   0.90069   0.00000  Uiso   1.00
C52    C     0.39151   0.05183   0.29233   0.00000  Uiso   1.00
C53    C     0.41129   0.01901   0.19409   0.00000  Uiso   1.00
C54    C     0.38360   0.97157   0.15890   0.00000  Uiso   1.00
C55    C     0.35331   0.89046   0.06631   0.00000  Uiso   1.00
C56    C     0.37517   0.15139   0.33311   0.00000  Uiso   1.00
C57    C     0.38120   0.20228   0.26913   0.00000  Uiso   1.00
C58    C     0.33974   0.23866   0.26824   0.00000  Uiso   1.00
C59    C     0.28408   0.31213   0.23897   0.00000  Uiso   1.00
C60    C     0.33117   0.07956   0.45812   0.00000  Uiso   1.00
C61    C     0.37623   0.08131   0.55024   0.00000  Uiso   1.00
C62    C     0.37417   0.07051   0.68081   0.00000  Uiso   1.00
C63    C     0.41960   0.07428   0.74840   0.00000  Uiso   1.00
C64    C     0.34571   0.03777   0.35324   0.00000  Uiso   1.00
C65    C     0.31798   0.99037   0.31818   0.00000  Uiso   1.00
C66    C     0.33771   0.95748   0.21992   0.00000  Uiso   1.00
C67    C     0.32936   0.13733   0.39403   0.00000  Uiso   1.00
C68    C     0.28789   0.17364   0.39322   0.00000  Uiso   1.00
C69    C     0.29385   0.22457   0.32926   0.00000  Uiso   1.00
H70    H     0.45116   0.11639   0.29854   0.00000  Uiso   1.00
H71    H     0.50292   0.11003   0.50955   0.00000  Uiso   1.00
H72    H     0.44673   0.02990   0.14697   0.00000  Uiso   1.00
H73    H     0.41665   0.21314   0.22200   0.00000  Uiso   1.00
H74    H     0.54010   0.09676   0.77036   0.00000  Uiso   1.00
H75    H     0.42162   0.92782   0.00579   0.00000  Uiso   1.00
H76    H     0.35818   0.31421   0.16401   0.00000  Uiso   1.00
H77    H     0.29551   0.06861   0.50555   0.00000  Uiso   1.00
H78    H     0.33872   0.05963   0.72793   0.00000  Uiso   1.00
H79    H     0.28254   0.97950   0.36533   0.00000  Uiso   1.00
H80    H     0.25245   0.16274   0.44037   0.00000  Uiso   1.00
H81    H     0.40683   0.05585   0.94759   0.00000  Uiso   1.00
H82    H     0.28835   0.88691   0.18302   0.00000  Uiso   1.00
H83    H     0.22491   0.27331   0.34125   0.00000  Uiso   1.00
O84    O     0.50470   0.07124   0.00152   0.00000  Uiso   1.00
O85    O     0.34926   0.84961   0.99842   0.00000  Uiso   1.00
O86    O     0.26603   0.35655   0.20601   0.00000  Uiso   1.00
N87    N     0.50280   0.08838   0.78156   0.00000  Uiso   1.00
N88    N     0.39204   0.93042   0.06674   0.00000  Uiso   1.00
N89    N     0.33272   0.29166   0.21464   0.00000  Uiso   1.00
N90    N     0.43109   0.06637   0.87693   0.00000  Uiso   1.00
N91    N     0.32032   0.90841   0.16211   0.00000  Uiso   1.00
N92    N     0.26101   0.26965   0.31001   0.00000  Uiso   1.00
C93    C     0.91550   0.39456   0.65403   0.00000  Uiso   1.00
C94    C     0.92204   0.40463   0.51067   0.00000  Uiso   1.00
C95    C     0.96748   0.40085   0.44327   0.00000  Uiso   1.00
C96    C     0.96549   0.41164   0.31263   0.00000  Uiso   1.00
C97    C     0.98261   0.42517   0.09931   0.00000  Uiso   1.00
C98    C     0.89151   0.44817   0.70767   0.00000  Uiso   1.00
C99    C     0.91129   0.48099   0.80591   0.00000  Uiso   1.00
C100   C     0.88360   0.52843   0.84110   0.00000  Uiso   1.00
C101   C     0.85331   0.60954   0.93369   0.00000  Uiso   1.00
C102   C     0.87517   0.34861   0.66689   0.00000  Uiso   1.00
C103   C     0.88120   0.29772   0.73087   0.00000  Uiso   1.00
C104   C     0.83974   0.26134   0.73176   0.00000  Uiso   1.00
C105   C     0.78408   0.18787   0.76103   0.00000  Uiso   1.00
C106   C     0.83117   0.42044   0.54188   0.00000  Uiso   1.00
C107   C     0.87623   0.41869   0.44976   0.00000  Uiso   1.00
C108   C     0.87417   0.42949   0.31919   0.00000  Uiso   1.00
C109   C     0.91960   0.42572   0.25160   0.00000  Uiso   1.00
C110   C     0.84571   0.46223   0.64676   0.00000  Uiso   1.00
C111   C     0.81798   0.50963   0.68182   0.00000  Uiso   1.00
C112   C     0.83771   0.54252   0.78008   0.00000  Uiso   1.00
C113   C     0.82936   0.36267   0.60597   0.00000  Uiso   1.00
C114   C     0.78789   0.32636   0.60678   0.00000  Uiso   1.00
C115   C     0.79385   0.27543   0.67074   0.00000  Uiso   1.00
H116   H     0.95116   0.38361   0.70146   0.00000  Uiso   1.00
H117   H     0.00292   0.38997   0.49045   0.00000  Uiso   1.00
H118   H     0.94673   0.47010   0.85303   0.00000  Uiso   1.00
H119   H     0.91665   0.28686   0.77800   0.00000  Uiso   1.00
H120   H     0.04010   0.40324   0.22964   0.00000  Uiso   1.00
H121   H     0.92162   0.57218   0.99421   0.00000  Uiso   1.00
H122   H     0.85818   0.18579   0.83599   0.00000  Uiso   1.00
H123   H     0.79551   0.43139   0.49445   0.00000  Uiso   1.00
H124   H     0.83872   0.44037   0.27207   0.00000  Uiso   1.00
H125   H     0.78254   0.52050   0.63467   0.00000  Uiso   1.00
H126   H     0.75245   0.33726   0.55963   0.00000  Uiso   1.00
H127   H     0.90683   0.44415   0.05241   0.00000  Uiso   1.00
H128   H     0.78835   0.61309   0.81698   0.00000  Uiso   1.00
H129   H     0.72491   0.22669   0.65875   0.00000  Uiso   1.00
O130   O     0.00470   0.42876   0.99848   0.00000  Uiso   1.00
O131   O     0.84926   0.65039   0.00158   0.00000  Uiso   1.00
O132   O     0.76603   0.14345   0.79399   0.00000  Uiso   1.00
N133   N     0.00280   0.41162   0.21844   0.00000  Uiso   1.00
N134   N     0.89204   0.56958   0.93326   0.00000  Uiso   1.00
N135   N     0.83272   0.20834   0.78536   0.00000  Uiso   1.00
N136   N     0.93109   0.43363   0.12307   0.00000  Uiso   1.00
N137   N     0.82032   0.59159   0.83789   0.00000  Uiso   1.00
N138   N     0.76101   0.23035   0.68999   0.00000  Uiso   1.00
C139   C     0.58450   0.60544   0.15403   0.00000  Uiso   1.00
C140   C     0.57796   0.59537   0.01067   0.00000  Uiso   1.00
C141   C     0.53252   0.59915   0.94327   0.00000  Uiso   1.00
C142   C     0.53451   0.58836   0.81263   0.00000  Uiso   1.00
C143   C     0.51739   0.57483   0.59931   0.00000  Uiso   1.00
C144   C     0.60849   0.55183   0.20767   0.00000  Uiso   1.00
C145   C     0.58871   0.51901   0.30591   0.00000  Uiso   1.00
C146   C     0.61640   0.47157   0.34110   0.00000  Uiso   1.00
C147   C     0.64669   0.39046   0.43369   0.00000  Uiso   1.00
C148   C     0.62483   0.65139   0.16689   0.00000  Uiso   1.00
C149   C     0.61880   0.70228   0.23087   0.00000  Uiso   1.00
C150   C     0.66026   0.73866   0.23176   0.00000  Uiso   1.00
C151   C     0.71592   0.81213   0.26103   0.00000  Uiso   1.00
C152   C     0.66883   0.57956   0.04188   0.00000  Uiso   1.00
C153   C     0.62377   0.58131   0.94976   0.00000  Uiso   1.00
C154   C     0.62583   0.57051   0.81919   0.00000  Uiso   1.00
C155   C     0.58040   0.57428   0.75160   0.00000  Uiso   1.00
C156   C     0.65429   0.53777   0.14676   0.00000  Uiso   1.00
C157   C     0.68202   0.49037   0.18182   0.00000  Uiso   1.00
C158   C     0.66229   0.45748   0.28008   0.00000  Uiso   1.00
C159   C     0.67064   0.63733   0.10597   0.00000  Uiso   1.00
C160   C     0.71211   0.67364   0.10678   0.00000  Uiso   1.00
C161   C     0.70615   0.72457   0.17074   0.00000  Uiso   1.00
H162   H     0.54884   0.61639   0.20146   0.00000  Uiso   1.00
H163   H     0.49708   0.61003   0.99045   0.00000  Uiso   1.00
H164   H     0.55327   0.52990   0.35303   0.00000  Uiso   1.00
H165   H     0.58335   0.71314   0.27800   0.00000  Uiso   1.00
H166   H     0.45990   0.59676   0.72964   0.00000  Uiso   1.00
H167   H     0.57838   0.42782   0.49421   0.00000  Uiso   1.00
H168   H     0.64182   0.81421   0.33599   0.00000  Uiso   1.00
H169   H     0.70449   0.56861   0.99445   0.00000  Uiso   1.00
H170   H     0.66128   0.55963   0.77207   0.00000  Uiso   1.00
H171   H     0.71746   0.47950   0.13467   0.00000  Uiso   1.00
H172   H     0.74755   0.66274   0.05963   0.00000  Uiso   1.00
H173   H     0.59317   0.55585   0.55241   0.00000  Uiso   1.00
H174   H     0.71165   0.38691   0.31698   0.00000  Uiso   1.00
H175   H     0.77509   0.77331   0.15875   0.00000  Uiso   1.00
O176   O     0.49530   0.57124   0.49848   0.00000  Uiso   1.00
O177   O     0.65074   0.34961   0.50158   0.00000  Uiso   1.00
O178   O     0.73397   0.85655   0.29399   0.00000  Uiso   1.00
N179   N     0.49720   0.58838   0.71844   0.00000  Uiso   1.00
N180   N     0.60796   0.43042   0.43326   0.00000  Uiso   1.00
N181   N     0.66728   0.79166   0.28536   0.00000  Uiso   1.00
N182   N     0.56891   0.56637   0.62307   0.00000  Uiso   1.00
N183   N     0.67968   0.40841   0.33789   0.00000  Uiso   1.00
N184   N     0.73899   0.76965   0.18999   0.00000  Uiso   1.00
C185   C     0.91550   0.10544   0.15403   0.00000  Uiso   1.00
C186   C     0.92204   0.09537   0.01067   0.00000  Uiso   1.00
C187   C     0.96748   0.09915   0.94327   0.00000  Uiso   1.00
C188   C     0.96549   0.08836   0.81263   0.00000  Uiso   1.00
C189   C     0.98261   0.07483   0.59931   0.00000  Uiso   1.00
C190   C     0.89151   0.05183   0.20767   0.00000  Uiso   1.00
C191   C     0.91129   0.01901   0.30591   0.00000  Uiso   1.00
C192   C     0.88360   0.97157   0.34110   0.00000  Uiso   1.00
C193   C     0.85331   0.89046   0.43369   0.00000  Uiso   1.00
C194   C     0.87517   0.15139   0.16689   0.00000  Uiso   1.00
C195   C     0.88120   0.20228   0.23087   0.00000  Uiso   1.00
C196   C     0.83974   0.23866   0.23176   0.00000  Uiso   1.00
C197   C     0.78408   0.31213   0.26103   0.00000  Uiso   1.00
C198   C     0.83117   0.07956   0.04188   0.00000  Uiso   1.00
C199   C     0.87623   0.08131   0.94976   0.00000  Uiso   1.00
C200   C     0.87417   0.07051   0.81919   0.00000  Uiso   1.00
C201   C     0.91960   0.07428   0.75160   0.00000  Uiso   1.00
C202   C     0.84571   0.03777   0.14676   0.00000  Uiso   1.00
C203   C     0.81798   0.99037   0.18182   0.00000  Uiso   1.00
C204   C     0.83771   0.95748   0.28008   0.00000  Uiso   1.00
C205   C     0.82936   0.13733   0.10597   0.00000  Uiso   1.00
C206   C     0.78789   0.17364   0.10678   0.00000  Uiso   1.00
C207   C     0.79385   0.22457   0.17074   0.00000  Uiso   1.00
H208   H     0.95116   0.11639   0.20146   0.00000  Uiso   1.00
H209   H     0.00292   0.11003   0.99045   0.00000  Uiso   1.00
H210   H     0.94673   0.02990   0.35303   0.00000  Uiso   1.00
H211   H     0.91665   0.21314   0.27800   0.00000  Uiso   1.00
H212   H     0.04010   0.09676   0.72964   0.00000  Uiso   1.00
H213   H     0.92162   0.92782   0.49421   0.00000  Uiso   1.00
H214   H     0.85818   0.31421   0.33599   0.00000  Uiso   1.00
H215   H     0.79551   0.06861   0.99445   0.00000  Uiso   1.00
H216   H     0.83872   0.05963   0.77207   0.00000  Uiso   1.00
H217   H     0.78254   0.97950   0.13467   0.00000  Uiso   1.00
H218   H     0.75245   0.16274   0.05963   0.00000  Uiso   1.00
H219   H     0.90683   0.05585   0.55241   0.00000  Uiso   1.00
H220   H     0.78835   0.88691   0.31698   0.00000  Uiso   1.00
H221   H     0.72491   0.27331   0.15875   0.00000  Uiso   1.00
O222   O     0.00470   0.07124   0.49848   0.00000  Uiso   1.00
O223   O     0.84926   0.84961   0.50158   0.00000  Uiso   1.00
O224   O     0.76603   0.35655   0.29399   0.00000  Uiso   1.00
N225   N     0.00280   0.08838   0.71844   0.00000  Uiso   1.00
N226   N     0.89204   0.93042   0.43326   0.00000  Uiso   1.00
N227   N     0.83272   0.29166   0.28536   0.00000  Uiso   1.00
N228   N     0.93109   0.06637   0.62307   0.00000  Uiso   1.00
N229   N     0.82032   0.90841   0.33789   0.00000  Uiso   1.00
N230   N     0.76101   0.26965   0.18999   0.00000  Uiso   1.00
C231   C     0.58450   0.89456   0.65403   0.00000  Uiso   1.00
C232   C     0.57796   0.90463   0.51067   0.00000  Uiso   1.00
C233   C     0.53252   0.90085   0.44327   0.00000  Uiso   1.00
C234   C     0.53451   0.91164   0.31263   0.00000  Uiso   1.00
C235   C     0.51739   0.92517   0.09931   0.00000  Uiso   1.00
C236   C     0.60849   0.94817   0.70767   0.00000  Uiso   1.00
C237   C     0.58871   0.98099   0.80591   0.00000  Uiso   1.00
C238   C     0.61640   0.02843   0.84110   0.00000  Uiso   1.00
C239   C     0.64669   0.10954   0.93369   0.00000  Uiso   1.00
C240   C     0.62483   0.84861   0.66689   0.00000  Uiso   1.00
C241   C     0.61880   0.79772   0.73087   0.00000  Uiso   1.00
C242   C     0.66026   0.76134   0.73176   0.00000  Uiso   1.00
C243   C     0.71592   0.68787   0.76103   0.00000  Uiso   1.00
C244   C     0.66883   0.92044   0.54188   0.00000  Uiso   1.00
C245   C     0.62377   0.91869   0.44976   0.00000  Uiso   1.00
C246   C     0.62583   0.92949   0.31919   0.00000  Uiso   1.00
C247   C     0.58040   0.92572   0.25160   0.00000  Uiso   1.00
C248   C     0.65429   0.96223   0.64676   0.00000  Uiso   1.00
C249   C     0.68202   0.00963   0.68182   0.00000  Uiso   1.00
C250   C     0.66229   0.04252   0.78008   0.00000  Uiso   1.00
C251   C     0.67064   0.86267   0.60597   0.00000  Uiso   1.00
C252   C     0.71211   0.82636   0.60678   0.00000  Uiso   1.00
C253   C     0.70615   0.77543   0.67074   0.00000  Uiso   1.00
H254   H     0.54884   0.88361   0.70146   0.00000  Uiso   1.00
H255   H     0.49708   0.88997   0.49045   0.00000  Uiso   1.00
H256   H     0.55327   0.97010   0.85303   0.00000  Uiso   1.00
H257   H     0.58335   0.78686   0.77800   0.00000  Uiso   1.00
H258   H     0.45990   0.90324   0.22964   0.00000  Uiso   1.00
H259   H     0.57838   0.07218   0.99421   0.00000  Uiso   1.00
H260   H     0.64182   0.68579   0.83599   0.00000  Uiso   1.00
H261   H     0.70449   0.93139   0.49445   0.00000  Uiso   1.00
H262   H     0.66128   0.94037   0.27207   0.00000  Uiso   1.00
H263   H     0.71746   0.02050   0.63467   0.00000  Uiso   1.00
H264   H     0.74755   0.83726   0.55963   0.00000  Uiso   1.00
H265   H     0.59317   0.94415   0.05241   0.00000  Uiso   1.00
H266   H     0.71165   0.11309   0.81698   0.00000  Uiso   1.00
H267   H     0.77509   0.72669   0.65875   0.00000  Uiso   1.00
O268   O     0.49530   0.92876   0.99848   0.00000  Uiso   1.00
O269   O     0.65074   0.15039   0.00158   0.00000  Uiso   1.00
O270   O     0.73397   0.64345   0.79399   0.00000  Uiso   1.00
N271   N     0.49720   0.91162   0.21844   0.00000  Uiso   1.00
N272   N     0.60796   0.06958   0.93326   0.00000  Uiso   1.00
N273   N     0.66728   0.70834   0.78536   0.00000  Uiso   1.00
N274   N     0.56891   0.93363   0.12307   0.00000  Uiso   1.00
N275   N     0.67968   0.09159   0.83789   0.00000  Uiso   1.00
N276   N     0.73899   0.73035   0.68999   0.00000  Uiso   1.00
C277   C     0.08450   0.60544   0.34597   0.00000  Uiso   1.00
C278   C     0.07796   0.59537   0.48933   0.00000  Uiso   1.00
C279   C     0.03252   0.59915   0.55673   0.00000  Uiso   1.00
C280   C     0.03451   0.58836   0.68737   0.00000  Uiso   1.00
C281   C     0.01739   0.57483   0.90069   0.00000  Uiso   1.00
C282   C     0.10849   0.55183   0.29233   0.00000  Uiso   1.00
C283   C     0.08871   0.51901   0.19409   0.00000  Uiso   1.00
C284   C     0.11640   0.47157   0.15890   0.00000  Uiso   1.00
C285   C     0.14669   0.39046   0.06631   0.00000  Uiso   1.00
C286   C     0.12483   0.65139   0.33311   0.00000  Uiso   1.00
C287   C     0.11880   0.70228   0.26913   0.00000  Uiso   1.00
C288   C     0.16026   0.73866   0.26824   0.00000  Uiso   1.00
C289   C     0.21592   0.81213   0.23897   0.00000  Uiso   1.00
C290   C     0.16883   0.57956   0.45812   0.00000  Uiso   1.00
C291   C     0.12377   0.58131   0.55024   0.00000  Uiso   1.00
C292   C     0.12583   0.57051   0.68081   0.00000  Uiso   1.00
C293   C     0.08040   0.57428   0.74840   0.00000  Uiso   1.00
C294   C     0.15429   0.53777   0.35324   0.00000  Uiso   1.00
C295   C     0.18202   0.49037   0.31818   0.00000  Uiso   1.00
C296   C     0.16229   0.45748   0.21992   0.00000  Uiso   1.00
C297   C     0.17064   0.63733   0.39403   0.00000  Uiso   1.00
C298   C     0.21211   0.67364   0.39322   0.00000  Uiso   1.00
C299   C     0.20615   0.72457   0.32926   0.00000  Uiso   1.00
H300   H     0.04884   0.61639   0.29854   0.00000  Uiso   1.00
H301   H     0.99708   0.61003   0.50955   0.00000  Uiso   1.00
H302   H     0.05327   0.52990   0.14697   0.00000  Uiso   1.00
H303   H     0.08335   0.71314   0.22200   0.00000  Uiso   1.00
H304   H     0.95990   0.59676   0.77036   0.00000  Uiso   1.00
H305   H     0.07838   0.42782   0.00579   0.00000  Uiso   1.00
H306   H     0.14182   0.81421   0.16401   0.00000  Uiso   1.00
H307   H     0.20449   0.56861   0.50555   0.00000  Uiso   1.00
H308   H     0.16128   0.55963   0.72793   0.00000  Uiso   1.00
H309   H     0.21746   0.47950   0.36533   0.00000  Uiso   1.00
H310   H     0.24755   0.66274   0.44037   0.00000  Uiso   1.00
H311   H     0.09317   0.55585   0.94759   0.00000  Uiso   1.00
H312   H     0.21165   0.38691   0.18302   0.00000  Uiso   1.00
H313   H     0.27509   0.77331   0.34125   0.00000  Uiso   1.00
O314   O     0.99530   0.57124   0.00152   0.00000  Uiso   1.00
O315   O     0.15074   0.34961   0.99842   0.00000  Uiso   1.00
O316   O     0.23397   0.85655   0.20601   0.00000  Uiso   1.00
N317   N     0.99720   0.58838   0.78156   0.00000  Uiso   1.00
N318   N     0.10796   0.43042   0.06674   0.00000  Uiso   1.00
N319   N     0.16728   0.79166   0.21464   0.00000  Uiso   1.00
N320   N     0.06891   0.56637   0.87693   0.00000  Uiso   1.00
N321   N     0.17968   0.40841   0.16211   0.00000  Uiso   1.00
N322   N     0.23899   0.76965   0.31001   0.00000  Uiso   1.00
C323   C     0.41550   0.39456   0.84597   0.00000  Uiso   1.00
C324   C     0.42204   0.40463   0.98933   0.00000  Uiso   1.00
C325   C     0.46748   0.40085   0.05673   0.00000  Uiso   1.00
C326   C     0.46549   0.41164   0.18737   0.00000  Uiso   1.00
C327   C     0.48261   0.42517   0.40069   0.00000  Uiso   1.00
C328   C     0.39151   0.44817   0.79233   0.00000  Uiso   1.00
C329   C     0.41129   0.48099   0.69409   0.00000  Uiso   1.00
C330   C     0.38360   0.52843   0.65890   0.00000  Uiso   1.00
C331   C     0.35331   0.60954   0.56631   0.00000  Uiso   1.00
C332   C     0.37517   0.34861   0.83311   0.00000  Uiso   1.00
C333   C     0.38120   0.29772   0.76913   0.00000  Uiso   1.00
C334   C     0.33974   0.26134   0.76824   0.00000  Uiso   1.00
C335   C     0.28408   0.18787   0.73897   0.00000  Uiso   1.00
C336   C     0.33117   0.42044   0.95812   0.00000  Uiso   1.00
C337   C     0.37623   0.41869   0.05024   0.00000  Uiso   1.00
C338   C     0.37417   0.42949   0.18081   0.00000  Uiso   1.00
C339   C     0.41960   0.42572   0.24840   0.00000  Uiso   1.00
C340   C     0.34571   0.46223   0.85324   0.00000  Uiso   1.00
C341   C     0.31798   0.50963   0.81818   0.00000  Uiso   1.00
C342   C     0.33771   0.54252   0.71992   0.00000  Uiso   1.00
C343   C     0.32936   0.36267   0.89403   0.00000  Uiso   1.00
C344   C     0.28789   0.32636   0.89322   0.00000  Uiso   1.00
C345   C     0.29385   0.27543   0.82926   0.00000  Uiso   1.00
H346   H     0.45116   0.38361   0.79854   0.00000  Uiso   1.00
H347   H     0.50292   0.38997   0.00955   0.00000  Uiso   1.00
H348   H     0.44673   0.47010   0.64697   0.00000  Uiso   1.00
H349   H     0.41665   0.28686   0.72200   0.00000  Uiso   1.00
H350   H     0.54010   0.40324   0.27036   0.00000  Uiso   1.00
H351   H     0.42162   0.57218   0.50579   0.00000  Uiso   1.00
H352   H     0.35818   0.18579   0.66401   0.00000  Uiso   1.00
H353   H     0.29551   0.43139   0.00555   0.00000  Uiso   1.00
H354   H     0.33872   0.44037   0.22793   0.00000  Uiso   1.00
H355   H     0.28254   0.52050   0.86533   0.00000  Uiso   1.00
H356   H     0.25245   0.33726   0.94037   0.00000  Uiso   1.00
H357   H     0.40683   0.44415   0.44759   0.00000  Uiso   1.00
H358   H     0.28835   0.61309   0.68302   0.00000  Uiso   1.00
H359   H     0.22491   0.22669   0.84125   0.00000  Uiso   1.00
O360   O     0.50470   0.42876   0.50152   0.00000  Uiso   1.00
O361   O     0.34926   0.65039   0.49842   0.00000  Uiso   1.00
O362   O     0.26603   0.14345   0.70601   0.00000  Uiso   1.00
N363   N     0.50280   0.41162   0.28156   0.00000  Uiso   1.00
N364   N     0.39204   0.56958   0.56674   0.00000  Uiso   1.00
N365   N     0.33272   0.20834   0.71464   0.00000  Uiso   1.00
N366   N     0.43109   0.43363   0.37693   0.00000  Uiso   1.00
N367   N     0.32032   0.59159   0.66211   0.00000  Uiso   1.00
N368   N     0.26101   0.23035   0.81001   0.00000  Uiso   1.00
