data_job_04482
_audit_creation_date              2018-12-19
_audit_creation_method            'Materials Studio'
_symmetry_space_group_name_H-M    'P1'
_symmetry_Int_Tables_number       1
_symmetry_cell_setting            triclinic
loop_
_symmetry_equiv_pos_as_xyz
  x,y,z
_cell_length_a                    12.4742
_cell_length_b                    19.4249
_cell_length_c                    9.9485
_cell_angle_alpha                 90.0000
_cell_angle_beta                  93.5541
_cell_angle_gamma                 90.0000
loop_
_atom_site_label
_atom_site_type_symbol
_atom_site_fract_x
_atom_site_fract_y
_atom_site_fract_z
_atom_site_U_iso_or_equiv
_atom_site_adp_type
_atom_site_occupancy
C1     C     0.94730   0.54984   0.21165   0.00000  Uiso   1.00
C2     C     0.03225   0.57229   0.31960   0.00000  Uiso   1.00
C3     C     0.12721   0.53769   0.35476   0.00000  Uiso   1.00
C4     C     0.19432   0.56663   0.45605   0.00000  Uiso   1.00
C5     C     0.33035   0.59218   0.61394   0.00000  Uiso   1.00
C6     C     0.93329   0.61015   0.11400   0.00000  Uiso   1.00
C7     C     0.94503   0.60737   0.97629   0.00000  Uiso   1.00
C8     C     0.92882   0.66817   0.90451   0.00000  Uiso   1.00
C9     C     0.91113   0.75247   0.74317   0.00000  Uiso   1.00
C10    C     0.84233   0.54447   0.28176   0.00000  Uiso   1.00
C11    C     0.77758   0.48647   0.28507   0.00000  Uiso   1.00
C12    C     0.68477   0.49198   0.35451   0.00000  Uiso   1.00
C13    C     0.52587   0.47431   0.45364   0.00000  Uiso   1.00
C14    C     0.89762   0.66275   0.32901   0.00000  Uiso   1.00
C15    C     0.00527   0.63362   0.38335   0.00000  Uiso   1.00
C16    C     0.07225   0.66262   0.48462   0.00000  Uiso   1.00
C17    C     0.16729   0.62806   0.51992   0.00000  Uiso   1.00
C18    C     0.90631   0.67147   0.17774   0.00000  Uiso   1.00
C19    C     0.89006   0.73229   0.10614   0.00000  Uiso   1.00
C20    C     0.90178   0.72961   0.96837   0.00000  Uiso   1.00
C21    C     0.81535   0.60580   0.34551   0.00000  Uiso   1.00
C22    C     0.72262   0.61140   0.41494   0.00000  Uiso   1.00
C23    C     0.65774   0.55342   0.41837   0.00000  Uiso   1.00
H24    H     0.96831   0.50210   0.16201   0.00000  Uiso   1.00
H25    H     0.14807   0.49024   0.30539   0.00000  Uiso   1.00
H26    H     0.96590   0.55990   0.92698   0.00000  Uiso   1.00
H27    H     0.79848   0.43902   0.23573   0.00000  Uiso   1.00
H28    H     0.33548   0.50414   0.49244   0.00000  Uiso   1.00
H29    H     0.95134   0.65103   0.69454   0.00000  Uiso   1.00
H30    H     0.59830   0.39613   0.34558   0.00000  Uiso   1.00
H31    H     0.87662   0.71050   0.37864   0.00000  Uiso   1.00
H32    H     0.05135   0.71008   0.53393   0.00000  Uiso   1.00
H33    H     0.86918   0.77974   0.15551   0.00000  Uiso   1.00
H34    H     0.70177   0.65886   0.46426   0.00000  Uiso   1.00
H35    H     0.25698   0.68258   0.67793   0.00000  Uiso   1.00
H36    H     0.87283   0.82946   0.88001   0.00000  Uiso   1.00
H37    H     0.51980   0.57457   0.53107   0.00000  Uiso   1.00
O38    O     0.41285   0.58933   0.68340   0.00000  Uiso   1.00
O39    O     0.90884   0.78203   0.63657   0.00000  Uiso   1.00
O40    O     0.44568   0.44762   0.49073   0.00000  Uiso   1.00
N41    N     0.29302   0.54619   0.51481   0.00000  Uiso   1.00
N42    N     0.93388   0.68352   0.76881   0.00000  Uiso   1.00
N43    N     0.60381   0.44522   0.37746   0.00000  Uiso   1.00
N44    N     0.25078   0.64220   0.61462   0.00000  Uiso   1.00
N45    N     0.89164   0.77953   0.86862   0.00000  Uiso   1.00
N46    N     0.56157   0.54123   0.47726   0.00000  Uiso   1.00
C47    C     0.56316   0.04633   0.53919   0.00000  Uiso   1.00
C48    C     0.65058   0.06577   0.64641   0.00000  Uiso   1.00
C49    C     0.74697   0.03116   0.67237   0.00000  Uiso   1.00
C50    C     0.81629   0.05708   0.77465   0.00000  Uiso   1.00
C51    C     0.95605   0.07840   0.92990   0.00000  Uiso   1.00
C52    C     0.54512   0.10994   0.45083   0.00000  Uiso   1.00
C53    C     0.55282   0.11246   0.31234   0.00000  Uiso   1.00
C54    C     0.53335   0.17556   0.24998   0.00000  Uiso   1.00
C55    C     0.50930   0.26543   0.10156   0.00000  Uiso   1.00
C56    C     0.46068   0.03702   0.61317   0.00000  Uiso   1.00
C57    C     0.39736   0.97824   0.61116   0.00000  Uiso   1.00
C58    C     0.30677   0.97996   0.68546   0.00000  Uiso   1.00
C59    C     0.15162   0.95662   0.78911   0.00000  Uiso   1.00
C60    C     0.51486   0.15392   0.67467   0.00000  Uiso   1.00
C61    C     0.62435   0.12421   0.71999   0.00000  Uiso   1.00
C62    C     0.69353   0.15019   0.82227   0.00000  Uiso   1.00
C63    C     0.79001   0.11562   0.84838   0.00000  Uiso   1.00
C64    C     0.51889   0.16837   0.52441   0.00000  Uiso   1.00
C65    C     0.49939   0.23148   0.46224   0.00000  Uiso   1.00
C66    C     0.50707   0.23410   0.32370   0.00000  Uiso   1.00
C67    C     0.43444   0.09546   0.68676   0.00000  Uiso   1.00
C68    C     0.34393   0.09727   0.76107   0.00000  Uiso   1.00
C69    C     0.28049   0.03850   0.75918   0.00000  Uiso   1.00
H70    H     0.58358   0.00084   0.48189   0.00000  Uiso   1.00
H71    H     0.76724   0.98594   0.61539   0.00000  Uiso   1.00
H72    H     0.57311   0.06722   0.25542   0.00000  Uiso   1.00
H73    H     0.41768   0.93303   0.55421   0.00000  Uiso   1.00
H74    H     0.95932   0.99521   0.79582   0.00000  Uiso   1.00
H75    H     0.54995   0.16659   0.03680   0.00000  Uiso   1.00
H76    H     0.22219   0.88361   0.66683   0.00000  Uiso   1.00
H77    H     0.49443   0.19941   0.73196   0.00000  Uiso   1.00
H78    H     0.67321   0.19541   0.87920   0.00000  Uiso   1.00
H79    H     0.47908   0.27669   0.51922   0.00000  Uiso   1.00
H80    H     0.32365   0.14250   0.81800   0.00000  Uiso   1.00
H81    H     0.88301   0.16522   0.00993   0.00000  Uiso   1.00
H82    H     0.47363   0.33661   0.25090   0.00000  Uiso   1.00
H83    H     0.14588   0.05363   0.88094   0.00000  Uiso   1.00
O84    O     0.04039   0.07401   0.99518   0.00000  Uiso   1.00
O85    O     0.50330   0.29886   0.99937   0.00000  Uiso   1.00
O86    O     0.07329   0.92760   0.82597   0.00000  Uiso   1.00
N87    N     0.91682   0.03576   0.82603   0.00000  Uiso   1.00
N88    N     0.53410   0.19600   0.11638   0.00000  Uiso   1.00
N89    N     0.22766   0.93144   0.70539   0.00000  Uiso   1.00
N90    N     0.87575   0.12725   0.94124   0.00000  Uiso   1.00
N91    N     0.49303   0.28748   0.23159   0.00000  Uiso   1.00
N92    N     0.18659   0.02293   0.82060   0.00000  Uiso   1.00
C93    C     0.94730   0.45016   0.71165   0.00000  Uiso   1.00
C94    C     0.03225   0.42771   0.81960   0.00000  Uiso   1.00
C95    C     0.12721   0.46231   0.85476   0.00000  Uiso   1.00
C96    C     0.19432   0.43337   0.95605   0.00000  Uiso   1.00
C97    C     0.33035   0.40782   0.11394   0.00000  Uiso   1.00
C98    C     0.93329   0.38985   0.61400   0.00000  Uiso   1.00
C99    C     0.94503   0.39263   0.47629   0.00000  Uiso   1.00
C100   C     0.92882   0.33183   0.40451   0.00000  Uiso   1.00
C101   C     0.91113   0.24753   0.24317   0.00000  Uiso   1.00
C102   C     0.84233   0.45553   0.78176   0.00000  Uiso   1.00
C103   C     0.77758   0.51353   0.78507   0.00000  Uiso   1.00
C104   C     0.68477   0.50802   0.85451   0.00000  Uiso   1.00
C105   C     0.52587   0.52569   0.95364   0.00000  Uiso   1.00
C106   C     0.89762   0.33725   0.82901   0.00000  Uiso   1.00
C107   C     0.00527   0.36638   0.88335   0.00000  Uiso   1.00
C108   C     0.07225   0.33738   0.98462   0.00000  Uiso   1.00
C109   C     0.16729   0.37194   0.01992   0.00000  Uiso   1.00
C110   C     0.90631   0.32853   0.67774   0.00000  Uiso   1.00
C111   C     0.89006   0.26771   0.60614   0.00000  Uiso   1.00
C112   C     0.90178   0.27039   0.46837   0.00000  Uiso   1.00
C113   C     0.81535   0.39420   0.84551   0.00000  Uiso   1.00
C114   C     0.72262   0.38860   0.91494   0.00000  Uiso   1.00
C115   C     0.65774   0.44658   0.91837   0.00000  Uiso   1.00
H116   H     0.96831   0.49790   0.66201   0.00000  Uiso   1.00
H117   H     0.14807   0.50976   0.80539   0.00000  Uiso   1.00
H118   H     0.96590   0.44010   0.42698   0.00000  Uiso   1.00
H119   H     0.79848   0.56098   0.73573   0.00000  Uiso   1.00
H120   H     0.33548   0.49586   0.99244   0.00000  Uiso   1.00
H121   H     0.95134   0.34897   0.19454   0.00000  Uiso   1.00
H122   H     0.59830   0.60387   0.84558   0.00000  Uiso   1.00
H123   H     0.87662   0.28950   0.87864   0.00000  Uiso   1.00
H124   H     0.05135   0.28992   0.03393   0.00000  Uiso   1.00
H125   H     0.86918   0.22026   0.65551   0.00000  Uiso   1.00
H126   H     0.70177   0.34114   0.96426   0.00000  Uiso   1.00
H127   H     0.25698   0.31742   0.17793   0.00000  Uiso   1.00
H128   H     0.87283   0.17054   0.38001   0.00000  Uiso   1.00
H129   H     0.51980   0.42543   0.03107   0.00000  Uiso   1.00
O130   O     0.41285   0.41067   0.18340   0.00000  Uiso   1.00
O131   O     0.90884   0.21797   0.13657   0.00000  Uiso   1.00
O132   O     0.44568   0.55238   0.99073   0.00000  Uiso   1.00
N133   N     0.29302   0.45381   0.01481   0.00000  Uiso   1.00
N134   N     0.93388   0.31648   0.26881   0.00000  Uiso   1.00
N135   N     0.60381   0.55478   0.87746   0.00000  Uiso   1.00
N136   N     0.25078   0.35780   0.11462   0.00000  Uiso   1.00
N137   N     0.89164   0.22047   0.36862   0.00000  Uiso   1.00
N138   N     0.56157   0.45877   0.97726   0.00000  Uiso   1.00
C139   C     0.56316   0.95367   0.03919   0.00000  Uiso   1.00
C140   C     0.65058   0.93423   0.14641   0.00000  Uiso   1.00
C141   C     0.74697   0.96884   0.17237   0.00000  Uiso   1.00
C142   C     0.81629   0.94292   0.27465   0.00000  Uiso   1.00
C143   C     0.95605   0.92160   0.42990   0.00000  Uiso   1.00
C144   C     0.54512   0.89006   0.95083   0.00000  Uiso   1.00
C145   C     0.55282   0.88754   0.81234   0.00000  Uiso   1.00
C146   C     0.53335   0.82444   0.74998   0.00000  Uiso   1.00
C147   C     0.50930   0.73457   0.60156   0.00000  Uiso   1.00
C148   C     0.46068   0.96298   0.11317   0.00000  Uiso   1.00
C149   C     0.39736   0.02176   0.11116   0.00000  Uiso   1.00
C150   C     0.30677   0.02004   0.18546   0.00000  Uiso   1.00
C151   C     0.15162   0.04338   0.28911   0.00000  Uiso   1.00
C152   C     0.51486   0.84608   0.17467   0.00000  Uiso   1.00
C153   C     0.62435   0.87579   0.21999   0.00000  Uiso   1.00
C154   C     0.69353   0.84981   0.32227   0.00000  Uiso   1.00
C155   C     0.79001   0.88438   0.34838   0.00000  Uiso   1.00
C156   C     0.51889   0.83163   0.02441   0.00000  Uiso   1.00
C157   C     0.49939   0.76852   0.96224   0.00000  Uiso   1.00
C158   C     0.50707   0.76590   0.82370   0.00000  Uiso   1.00
C159   C     0.43444   0.90454   0.18676   0.00000  Uiso   1.00
C160   C     0.34393   0.90273   0.26107   0.00000  Uiso   1.00
C161   C     0.28049   0.96150   0.25918   0.00000  Uiso   1.00
H162   H     0.58358   0.99916   0.98189   0.00000  Uiso   1.00
H163   H     0.76724   0.01406   0.11539   0.00000  Uiso   1.00
H164   H     0.57311   0.93278   0.75542   0.00000  Uiso   1.00
H165   H     0.41768   0.06697   0.05421   0.00000  Uiso   1.00
H166   H     0.95932   0.00479   0.29582   0.00000  Uiso   1.00
H167   H     0.54995   0.83341   0.53680   0.00000  Uiso   1.00
H168   H     0.22219   0.11639   0.16683   0.00000  Uiso   1.00
H169   H     0.49443   0.80059   0.23196   0.00000  Uiso   1.00
H170   H     0.67321   0.80459   0.37920   0.00000  Uiso   1.00
H171   H     0.47908   0.72331   0.01922   0.00000  Uiso   1.00
H172   H     0.32365   0.85750   0.31800   0.00000  Uiso   1.00
H173   H     0.88301   0.83478   0.50993   0.00000  Uiso   1.00
H174   H     0.47363   0.66339   0.75090   0.00000  Uiso   1.00
H175   H     0.14588   0.94637   0.38094   0.00000  Uiso   1.00
O176   O     0.04039   0.92599   0.49518   0.00000  Uiso   1.00
O177   O     0.50330   0.70114   0.49937   0.00000  Uiso   1.00
O178   O     0.07329   0.07240   0.32597   0.00000  Uiso   1.00
N179   N     0.91682   0.96424   0.32603   0.00000  Uiso   1.00
N180   N     0.53410   0.80400   0.61638   0.00000  Uiso   1.00
N181   N     0.22766   0.06856   0.20539   0.00000  Uiso   1.00
N182   N     0.87575   0.87275   0.44124   0.00000  Uiso   1.00
N183   N     0.49303   0.71252   0.73159   0.00000  Uiso   1.00
N184   N     0.18659   0.97707   0.32060   0.00000  Uiso   1.00
