data_job_00100
_audit_creation_date              2018-12-19
_audit_creation_method            'Materials Studio'
_symmetry_space_group_name_H-M    'P1'
_symmetry_Int_Tables_number       1
_symmetry_cell_setting            triclinic
loop_
_symmetry_equiv_pos_as_xyz
  x,y,z
_cell_length_a                    15.4350
_cell_length_b                    12.8751
_cell_length_c                    16.4766
_cell_angle_alpha                 90.0000
_cell_angle_beta                  43.5229
_cell_angle_gamma                 90.0000
loop_
_atom_site_label
_atom_site_type_symbol
_atom_site_fract_x
_atom_site_fract_y
_atom_site_fract_z
_atom_site_U_iso_or_equiv
_atom_site_adp_type
_atom_site_occupancy
C1     C     0.33075   0.80615   0.25139   0.00000  Uiso   1.00
C2     C     0.28077   0.70433   0.31990   0.00000  Uiso   1.00
C3     C     0.28441   0.67492   0.39843   0.00000  Uiso   1.00
C4     C     0.23380   0.57865   0.45217   0.00000  Uiso   1.00
C5     C     0.16421   0.43032   0.56216   0.00000  Uiso   1.00
C6     C     0.42506   0.77614   0.12164   0.00000  Uiso   1.00
C7     C     0.55002   0.80713   0.03347   0.00000  Uiso   1.00
C8     C     0.62086   0.77132   0.92032   0.00000  Uiso   1.00
C9     C     0.77527   0.73455   0.72250   0.00000  Uiso   1.00
C10    C     0.22038   0.85666   0.28232   0.00000  Uiso   1.00
C11    C     0.17326   0.95536   0.32923   0.00000  Uiso   1.00
C12    C     0.07179   0.98736   0.35133   0.00000  Uiso   1.00
C13    C     0.90841   0.07561   0.40299   0.00000  Uiso   1.00
C14    C     0.23438   0.68748   0.20720   0.00000  Uiso   1.00
C15    C     0.22843   0.63987   0.29590   0.00000  Uiso   1.00
C16    C     0.17779   0.54361   0.34954   0.00000  Uiso   1.00
C17    C     0.18135   0.51407   0.42813   0.00000  Uiso   1.00
C18    C     0.37272   0.71168   0.09764   0.00000  Uiso   1.00
C19    C     0.44340   0.67582   0.98459   0.00000  Uiso   1.00
C20    C     0.56843   0.70674   0.89627   0.00000  Uiso   1.00
C21    C     0.16804   0.79220   0.25833   0.00000  Uiso   1.00
C22    C     0.06663   0.82405   0.28035   0.00000  Uiso   1.00
C23    C     0.01936   0.92278   0.32728   0.00000  Uiso   1.00
H24    H     0.37150   0.85634   0.27006   0.00000  Uiso   1.00
H25    H     0.32494   0.72482   0.41697   0.00000  Uiso   1.00
H26    H     0.59049   0.85702   0.05207   0.00000  Uiso   1.00
H27    H     0.21379   0.00522   0.34779   0.00000  Uiso   1.00
H28    H     0.25027   0.55057   0.56922   0.00000  Uiso   1.00
H29    H     0.81019   0.82934   0.79981   0.00000  Uiso   1.00
H30    H     0.01584   0.14187   0.42338   0.00000  Uiso   1.00
H31    H     0.19363   0.63729   0.18851   0.00000  Uiso   1.00
H32    H     0.13729   0.49375   0.33095   0.00000  Uiso   1.00
H33    H     0.40286   0.62595   0.96605   0.00000  Uiso   1.00
H34    H     0.02615   0.77415   0.26176   0.00000  Uiso   1.00
H35    H     0.09797   0.36302   0.49940   0.00000  Uiso   1.00
H36    H     0.65791   0.64180   0.72999   0.00000  Uiso   1.00
H37    H     0.86355   0.95431   0.35356   0.00000  Uiso   1.00
O38    O     0.14031   0.36630   0.62945   0.00000  Uiso   1.00
O39    O     0.87491   0.73206   0.62001   0.00000  Uiso   1.00
O40    O     0.83273   0.14208   0.43813   0.00000  Uiso   1.00
N41    N     0.22213   0.52614   0.53326   0.00000  Uiso   1.00
N42    N     0.74564   0.78676   0.81391   0.00000  Uiso   1.00
N43    N     0.00301   0.07895   0.39687   0.00000  Uiso   1.00
N44    N     0.14018   0.42522   0.49569   0.00000  Uiso   1.00
N45    N     0.66369   0.68584   0.77634   0.00000  Uiso   1.00
N46    N     0.92106   0.97803   0.35930   0.00000  Uiso   1.00
C47    C     0.66925   0.30615   0.24861   0.00000  Uiso   1.00
C48    C     0.71923   0.20433   0.18010   0.00000  Uiso   1.00
C49    C     0.71559   0.17492   0.10157   0.00000  Uiso   1.00
C50    C     0.76620   0.07865   0.04783   0.00000  Uiso   1.00
C51    C     0.83579   0.93032   0.93784   0.00000  Uiso   1.00
C52    C     0.57494   0.27614   0.37836   0.00000  Uiso   1.00
C53    C     0.44998   0.30713   0.46653   0.00000  Uiso   1.00
C54    C     0.37914   0.27132   0.57968   0.00000  Uiso   1.00
C55    C     0.22473   0.23455   0.77750   0.00000  Uiso   1.00
C56    C     0.77962   0.35666   0.21768   0.00000  Uiso   1.00
C57    C     0.82674   0.45536   0.17077   0.00000  Uiso   1.00
C58    C     0.92821   0.48736   0.14867   0.00000  Uiso   1.00
C59    C     0.09159   0.57561   0.09701   0.00000  Uiso   1.00
C60    C     0.76562   0.18748   0.29280   0.00000  Uiso   1.00
C61    C     0.77157   0.13987   0.20410   0.00000  Uiso   1.00
C62    C     0.82221   0.04361   0.15046   0.00000  Uiso   1.00
C63    C     0.81865   0.01407   0.07187   0.00000  Uiso   1.00
C64    C     0.62728   0.21168   0.40236   0.00000  Uiso   1.00
C65    C     0.55660   0.17582   0.51541   0.00000  Uiso   1.00
C66    C     0.43157   0.20674   0.60373   0.00000  Uiso   1.00
C67    C     0.83196   0.29220   0.24167   0.00000  Uiso   1.00
C68    C     0.93337   0.32405   0.21965   0.00000  Uiso   1.00
C69    C     0.98064   0.42278   0.17272   0.00000  Uiso   1.00
H70    H     0.62850   0.35634   0.22994   0.00000  Uiso   1.00
H71    H     0.67506   0.22482   0.08303   0.00000  Uiso   1.00
H72    H     0.40951   0.35702   0.44793   0.00000  Uiso   1.00
H73    H     0.78621   0.50522   0.15221   0.00000  Uiso   1.00
H74    H     0.74973   0.05057   0.93078   0.00000  Uiso   1.00
H75    H     0.18981   0.32934   0.70019   0.00000  Uiso   1.00
H76    H     0.98416   0.64187   0.07662   0.00000  Uiso   1.00
H77    H     0.80637   0.13729   0.31149   0.00000  Uiso   1.00
H78    H     0.86271   0.99375   0.16905   0.00000  Uiso   1.00
H79    H     0.59714   0.12595   0.53395   0.00000  Uiso   1.00
H80    H     0.97385   0.27415   0.23824   0.00000  Uiso   1.00
H81    H     0.90203   0.86302   0.00060   0.00000  Uiso   1.00
H82    H     0.34209   0.14180   0.77001   0.00000  Uiso   1.00
H83    H     0.13645   0.45431   0.14644   0.00000  Uiso   1.00
O84    O     0.85969   0.86630   0.87055   0.00000  Uiso   1.00
O85    O     0.12509   0.23206   0.87999   0.00000  Uiso   1.00
O86    O     0.16727   0.64208   0.06187   0.00000  Uiso   1.00
N87    N     0.77787   0.02614   0.96674   0.00000  Uiso   1.00
N88    N     0.25436   0.28676   0.68609   0.00000  Uiso   1.00
N89    N     0.99699   0.57895   0.10313   0.00000  Uiso   1.00
N90    N     0.85982   0.92522   0.00431   0.00000  Uiso   1.00
N91    N     0.33631   0.18584   0.72366   0.00000  Uiso   1.00
N92    N     0.07894   0.47803   0.14070   0.00000  Uiso   1.00
C93    C     0.66925   0.19385   0.74861   0.00000  Uiso   1.00
C94    C     0.71923   0.29567   0.68010   0.00000  Uiso   1.00
C95    C     0.71559   0.32508   0.60157   0.00000  Uiso   1.00
C96    C     0.76620   0.42135   0.54783   0.00000  Uiso   1.00
C97    C     0.83579   0.56968   0.43784   0.00000  Uiso   1.00
C98    C     0.57494   0.22386   0.87836   0.00000  Uiso   1.00
C99    C     0.44998   0.19287   0.96653   0.00000  Uiso   1.00
C100   C     0.37914   0.22868   0.07968   0.00000  Uiso   1.00
C101   C     0.22473   0.26545   0.27750   0.00000  Uiso   1.00
C102   C     0.77962   0.14334   0.71768   0.00000  Uiso   1.00
C103   C     0.82674   0.04464   0.67077   0.00000  Uiso   1.00
C104   C     0.92821   0.01264   0.64867   0.00000  Uiso   1.00
C105   C     0.09159   0.92439   0.59701   0.00000  Uiso   1.00
C106   C     0.76562   0.31252   0.79280   0.00000  Uiso   1.00
C107   C     0.77157   0.36013   0.70410   0.00000  Uiso   1.00
C108   C     0.82221   0.45639   0.65046   0.00000  Uiso   1.00
C109   C     0.81865   0.48593   0.57187   0.00000  Uiso   1.00
C110   C     0.62728   0.28832   0.90236   0.00000  Uiso   1.00
C111   C     0.55660   0.32418   0.01541   0.00000  Uiso   1.00
C112   C     0.43157   0.29326   0.10373   0.00000  Uiso   1.00
C113   C     0.83196   0.20780   0.74167   0.00000  Uiso   1.00
C114   C     0.93337   0.17595   0.71965   0.00000  Uiso   1.00
C115   C     0.98064   0.07722   0.67272   0.00000  Uiso   1.00
H116   H     0.62850   0.14366   0.72994   0.00000  Uiso   1.00
H117   H     0.67506   0.27518   0.58303   0.00000  Uiso   1.00
H118   H     0.40951   0.14298   0.94793   0.00000  Uiso   1.00
H119   H     0.78621   0.99478   0.65221   0.00000  Uiso   1.00
H120   H     0.74973   0.44943   0.43078   0.00000  Uiso   1.00
H121   H     0.18981   0.17066   0.20019   0.00000  Uiso   1.00
H122   H     0.98416   0.85813   0.57662   0.00000  Uiso   1.00
H123   H     0.80637   0.36271   0.81149   0.00000  Uiso   1.00
H124   H     0.86271   0.50625   0.66905   0.00000  Uiso   1.00
H125   H     0.59714   0.37405   0.03395   0.00000  Uiso   1.00
H126   H     0.97385   0.22585   0.73824   0.00000  Uiso   1.00
H127   H     0.90203   0.63698   0.50060   0.00000  Uiso   1.00
H128   H     0.34209   0.35820   0.27001   0.00000  Uiso   1.00
H129   H     0.13645   0.04569   0.64644   0.00000  Uiso   1.00
O130   O     0.85969   0.63370   0.37055   0.00000  Uiso   1.00
O131   O     0.12509   0.26794   0.37999   0.00000  Uiso   1.00
O132   O     0.16727   0.85792   0.56187   0.00000  Uiso   1.00
N133   N     0.77787   0.47386   0.46674   0.00000  Uiso   1.00
N134   N     0.25436   0.21324   0.18609   0.00000  Uiso   1.00
N135   N     0.99699   0.92105   0.60313   0.00000  Uiso   1.00
N136   N     0.85982   0.57478   0.50431   0.00000  Uiso   1.00
N137   N     0.33631   0.31416   0.22366   0.00000  Uiso   1.00
N138   N     0.07894   0.02197   0.64070   0.00000  Uiso   1.00
C139   C     0.33075   0.69385   0.75139   0.00000  Uiso   1.00
C140   C     0.28077   0.79567   0.81990   0.00000  Uiso   1.00
C141   C     0.28441   0.82508   0.89843   0.00000  Uiso   1.00
C142   C     0.23380   0.92135   0.95217   0.00000  Uiso   1.00
C143   C     0.16421   0.06968   0.06216   0.00000  Uiso   1.00
C144   C     0.42506   0.72386   0.62164   0.00000  Uiso   1.00
C145   C     0.55002   0.69287   0.53347   0.00000  Uiso   1.00
C146   C     0.62086   0.72868   0.42032   0.00000  Uiso   1.00
C147   C     0.77527   0.76545   0.22250   0.00000  Uiso   1.00
C148   C     0.22038   0.64334   0.78232   0.00000  Uiso   1.00
C149   C     0.17326   0.54464   0.82923   0.00000  Uiso   1.00
C150   C     0.07179   0.51264   0.85133   0.00000  Uiso   1.00
C151   C     0.90841   0.42439   0.90299   0.00000  Uiso   1.00
C152   C     0.23438   0.81252   0.70720   0.00000  Uiso   1.00
C153   C     0.22843   0.86013   0.79590   0.00000  Uiso   1.00
C154   C     0.17779   0.95639   0.84954   0.00000  Uiso   1.00
C155   C     0.18135   0.98593   0.92813   0.00000  Uiso   1.00
C156   C     0.37272   0.78832   0.59764   0.00000  Uiso   1.00
C157   C     0.44340   0.82418   0.48459   0.00000  Uiso   1.00
C158   C     0.56843   0.79326   0.39627   0.00000  Uiso   1.00
C159   C     0.16804   0.70780   0.75833   0.00000  Uiso   1.00
C160   C     0.06663   0.67595   0.78035   0.00000  Uiso   1.00
C161   C     0.01936   0.57722   0.82728   0.00000  Uiso   1.00
H162   H     0.37150   0.64366   0.77006   0.00000  Uiso   1.00
H163   H     0.32494   0.77518   0.91697   0.00000  Uiso   1.00
H164   H     0.59049   0.64298   0.55207   0.00000  Uiso   1.00
H165   H     0.21379   0.49478   0.84779   0.00000  Uiso   1.00
H166   H     0.25027   0.94943   0.06922   0.00000  Uiso   1.00
H167   H     0.81019   0.67066   0.29981   0.00000  Uiso   1.00
H168   H     0.01584   0.35813   0.92338   0.00000  Uiso   1.00
H169   H     0.19363   0.86271   0.68851   0.00000  Uiso   1.00
H170   H     0.13729   0.00625   0.83095   0.00000  Uiso   1.00
H171   H     0.40286   0.87405   0.46605   0.00000  Uiso   1.00
H172   H     0.02615   0.72585   0.76176   0.00000  Uiso   1.00
H173   H     0.09797   0.13698   0.99940   0.00000  Uiso   1.00
H174   H     0.65791   0.85820   0.22999   0.00000  Uiso   1.00
H175   H     0.86355   0.54569   0.85356   0.00000  Uiso   1.00
O176   O     0.14031   0.13370   0.12945   0.00000  Uiso   1.00
O177   O     0.87491   0.76794   0.12001   0.00000  Uiso   1.00
O178   O     0.83273   0.35792   0.93813   0.00000  Uiso   1.00
N179   N     0.22213   0.97386   0.03326   0.00000  Uiso   1.00
N180   N     0.74564   0.71324   0.31391   0.00000  Uiso   1.00
N181   N     0.00301   0.42105   0.89687   0.00000  Uiso   1.00
N182   N     0.14018   0.07478   0.99569   0.00000  Uiso   1.00
N183   N     0.66369   0.81416   0.27634   0.00000  Uiso   1.00
N184   N     0.92106   0.52197   0.85930   0.00000  Uiso   1.00
