data_job_02801
_audit_creation_date              2018-12-19
_audit_creation_method            'Materials Studio'
_symmetry_space_group_name_H-M    'P1'
_symmetry_Int_Tables_number       1
_symmetry_cell_setting            triclinic
loop_
_symmetry_equiv_pos_as_xyz
  x,y,z
_cell_length_a                    29.9812
_cell_length_b                    17.2659
_cell_length_c                    24.0405
_cell_angle_alpha                 90.0000
_cell_angle_beta                  143.8510
_cell_angle_gamma                 90.0000
loop_
_atom_site_label
_atom_site_type_symbol
_atom_site_fract_x
_atom_site_fract_y
_atom_site_fract_z
_atom_site_U_iso_or_equiv
_atom_site_adp_type
_atom_site_occupancy
C1     C     0.24830   0.66107   0.28438   0.00000  Uiso   1.00
C2     C     0.29848   0.59030   0.32607   0.00000  Uiso   1.00
C3     C     0.28524   0.53100   0.27502   0.00000  Uiso   1.00
C4     C     0.33786   0.47138   0.32626   0.00000  Uiso   1.00
C5     C     0.40608   0.36151   0.37598   0.00000  Uiso   1.00
C6     C     0.22758   0.66120   0.32508   0.00000  Uiso   1.00
C7     C     0.15473   0.66152   0.27318   0.00000  Uiso   1.00
C8     C     0.14767   0.66159   0.32359   0.00000  Uiso   1.00
C9     C     0.10581   0.66185   0.37177   0.00000  Uiso   1.00
C10    C     0.29902   0.73141   0.32657   0.00000  Uiso   1.00
C11    C     0.28624   0.79077   0.27593   0.00000  Uiso   1.00
C12    C     0.33933   0.84997   0.32761   0.00000  Uiso   1.00
C13    C     0.40841   0.95924   0.37810   0.00000  Uiso   1.00
C14    C     0.36529   0.66064   0.46618   0.00000  Uiso   1.00
C15    C     0.36202   0.59007   0.42482   0.00000  Uiso   1.00
C16    C     0.41468   0.53053   0.47616   0.00000  Uiso   1.00
C17    C     0.40152   0.47115   0.42519   0.00000  Uiso   1.00
C18    C     0.29112   0.66097   0.42382   0.00000  Uiso   1.00
C19    C     0.28416   0.66104   0.47433   0.00000  Uiso   1.00
C20    C     0.21133   0.66135   0.42252   0.00000  Uiso   1.00
C21    C     0.36257   0.73118   0.42532   0.00000  Uiso   1.00
C22    C     0.41568   0.79029   0.47708   0.00000  Uiso   1.00
C23    C     0.40299   0.84973   0.42653   0.00000  Uiso   1.00
H24    H     0.19883   0.66125   0.20750   0.00000  Uiso   1.00
H25    H     0.23605   0.53120   0.19860   0.00000  Uiso   1.00
H26    H     0.10556   0.66171   0.19677   0.00000  Uiso   1.00
H27    H     0.23706   0.79093   0.19952   0.00000  Uiso   1.00
H28    H     0.30533   0.38689   0.23227   0.00000  Uiso   1.00
H29    H     0.03019   0.66210   0.22841   0.00000  Uiso   1.00
H30    H     0.30747   0.93461   0.23422   0.00000  Uiso   1.00
H31    H     0.41477   0.66046   0.54307   0.00000  Uiso   1.00
H32    H     0.46385   0.53036   0.55258   0.00000  Uiso   1.00
H33    H     0.33335   0.66087   0.55074   0.00000  Uiso   1.00
H34    H     0.46485   0.79009   0.55350   0.00000  Uiso   1.00
H35    H     0.49022   0.38621   0.51957   0.00000  Uiso   1.00
H36    H     0.21507   0.66142   0.51571   0.00000  Uiso   1.00
H37    H     0.49236   0.93393   0.52152   0.00000  Uiso   1.00
O38    O     0.42615   0.30097   0.37612   0.00000  Uiso   1.00
O39    O     0.06517   0.66204   0.37106   0.00000  Uiso   1.00
O40    O     0.42896   0.01957   0.37867   0.00000  Uiso   1.00
N41    N     0.34212   0.40460   0.29858   0.00000  Uiso   1.00
N42    N     0.08487   0.66188   0.29497   0.00000  Uiso   1.00
N43    N     0.34410   0.91667   0.30040   0.00000  Uiso   1.00
N44    N     0.44161   0.40423   0.45318   0.00000  Uiso   1.00
N45    N     0.18436   0.66152   0.44957   0.00000  Uiso   1.00
N46    N     0.44359   0.91630   0.45499   0.00000  Uiso   1.00
C47    C     0.74830   0.16107   0.28438   0.00000  Uiso   1.00
C48    C     0.79848   0.09030   0.32607   0.00000  Uiso   1.00
C49    C     0.78524   0.03100   0.27502   0.00000  Uiso   1.00
C50    C     0.83786   0.97138   0.32626   0.00000  Uiso   1.00
C51    C     0.90608   0.86151   0.37598   0.00000  Uiso   1.00
C52    C     0.72758   0.16120   0.32508   0.00000  Uiso   1.00
C53    C     0.65473   0.16152   0.27318   0.00000  Uiso   1.00
C54    C     0.64767   0.16159   0.32359   0.00000  Uiso   1.00
C55    C     0.60581   0.16185   0.37177   0.00000  Uiso   1.00
C56    C     0.79902   0.23141   0.32657   0.00000  Uiso   1.00
C57    C     0.78624   0.29077   0.27593   0.00000  Uiso   1.00
C58    C     0.83933   0.34997   0.32761   0.00000  Uiso   1.00
C59    C     0.90841   0.45924   0.37810   0.00000  Uiso   1.00
C60    C     0.86529   0.16064   0.46618   0.00000  Uiso   1.00
C61    C     0.86202   0.09007   0.42482   0.00000  Uiso   1.00
C62    C     0.91468   0.03053   0.47616   0.00000  Uiso   1.00
C63    C     0.90152   0.97115   0.42519   0.00000  Uiso   1.00
C64    C     0.79112   0.16097   0.42382   0.00000  Uiso   1.00
C65    C     0.78416   0.16104   0.47433   0.00000  Uiso   1.00
C66    C     0.71133   0.16135   0.42252   0.00000  Uiso   1.00
C67    C     0.86257   0.23118   0.42532   0.00000  Uiso   1.00
C68    C     0.91568   0.29029   0.47708   0.00000  Uiso   1.00
C69    C     0.90299   0.34973   0.42653   0.00000  Uiso   1.00
H70    H     0.69883   0.16125   0.20750   0.00000  Uiso   1.00
H71    H     0.73605   0.03120   0.19860   0.00000  Uiso   1.00
H72    H     0.60556   0.16171   0.19677   0.00000  Uiso   1.00
H73    H     0.73706   0.29093   0.19952   0.00000  Uiso   1.00
H74    H     0.80533   0.88689   0.23227   0.00000  Uiso   1.00
H75    H     0.53019   0.16210   0.22841   0.00000  Uiso   1.00
H76    H     0.80747   0.43461   0.23422   0.00000  Uiso   1.00
H77    H     0.91477   0.16046   0.54307   0.00000  Uiso   1.00
H78    H     0.96385   0.03036   0.55258   0.00000  Uiso   1.00
H79    H     0.83335   0.16087   0.55074   0.00000  Uiso   1.00
H80    H     0.96485   0.29009   0.55350   0.00000  Uiso   1.00
H81    H     0.99022   0.88621   0.51957   0.00000  Uiso   1.00
H82    H     0.71507   0.16142   0.51571   0.00000  Uiso   1.00
H83    H     0.99236   0.43393   0.52152   0.00000  Uiso   1.00
O84    O     0.92615   0.80097   0.37612   0.00000  Uiso   1.00
O85    O     0.56517   0.16204   0.37106   0.00000  Uiso   1.00
O86    O     0.92896   0.51957   0.37867   0.00000  Uiso   1.00
N87    N     0.84212   0.90460   0.29858   0.00000  Uiso   1.00
N88    N     0.58487   0.16188   0.29497   0.00000  Uiso   1.00
N89    N     0.84410   0.41667   0.30040   0.00000  Uiso   1.00
N90    N     0.94161   0.90423   0.45318   0.00000  Uiso   1.00
N91    N     0.68436   0.16152   0.44957   0.00000  Uiso   1.00
N92    N     0.94359   0.41630   0.45499   0.00000  Uiso   1.00
C93    C     0.75170   0.66107   0.21562   0.00000  Uiso   1.00
C94    C     0.70152   0.59030   0.17393   0.00000  Uiso   1.00
C95    C     0.71476   0.53100   0.22498   0.00000  Uiso   1.00
C96    C     0.66214   0.47138   0.17374   0.00000  Uiso   1.00
C97    C     0.59392   0.36151   0.12402   0.00000  Uiso   1.00
C98    C     0.77242   0.66120   0.17492   0.00000  Uiso   1.00
C99    C     0.84527   0.66152   0.22682   0.00000  Uiso   1.00
C100   C     0.85233   0.66159   0.17641   0.00000  Uiso   1.00
C101   C     0.89419   0.66185   0.12823   0.00000  Uiso   1.00
C102   C     0.70098   0.73141   0.17343   0.00000  Uiso   1.00
C103   C     0.71376   0.79077   0.22407   0.00000  Uiso   1.00
C104   C     0.66067   0.84997   0.17239   0.00000  Uiso   1.00
C105   C     0.59159   0.95924   0.12190   0.00000  Uiso   1.00
C106   C     0.63471   0.66064   0.03382   0.00000  Uiso   1.00
C107   C     0.63798   0.59007   0.07518   0.00000  Uiso   1.00
C108   C     0.58532   0.53053   0.02384   0.00000  Uiso   1.00
C109   C     0.59848   0.47115   0.07481   0.00000  Uiso   1.00
C110   C     0.70888   0.66097   0.07618   0.00000  Uiso   1.00
C111   C     0.71584   0.66104   0.02567   0.00000  Uiso   1.00
C112   C     0.78867   0.66135   0.07748   0.00000  Uiso   1.00
C113   C     0.63743   0.73118   0.07468   0.00000  Uiso   1.00
C114   C     0.58432   0.79029   0.02292   0.00000  Uiso   1.00
C115   C     0.59701   0.84973   0.07347   0.00000  Uiso   1.00
H116   H     0.80117   0.66125   0.29250   0.00000  Uiso   1.00
H117   H     0.76395   0.53120   0.30140   0.00000  Uiso   1.00
H118   H     0.89444   0.66171   0.30323   0.00000  Uiso   1.00
H119   H     0.76294   0.79093   0.30048   0.00000  Uiso   1.00
H120   H     0.69467   0.38689   0.26773   0.00000  Uiso   1.00
H121   H     0.96981   0.66210   0.27159   0.00000  Uiso   1.00
H122   H     0.69253   0.93461   0.26578   0.00000  Uiso   1.00
H123   H     0.58523   0.66046   0.95693   0.00000  Uiso   1.00
H124   H     0.53615   0.53036   0.94742   0.00000  Uiso   1.00
H125   H     0.66665   0.66087   0.94926   0.00000  Uiso   1.00
H126   H     0.53515   0.79009   0.94650   0.00000  Uiso   1.00
H127   H     0.50978   0.38621   0.98043   0.00000  Uiso   1.00
H128   H     0.78493   0.66142   0.98429   0.00000  Uiso   1.00
H129   H     0.50764   0.93393   0.97848   0.00000  Uiso   1.00
O130   O     0.57385   0.30097   0.12388   0.00000  Uiso   1.00
O131   O     0.93483   0.66204   0.12894   0.00000  Uiso   1.00
O132   O     0.57104   0.01957   0.12133   0.00000  Uiso   1.00
N133   N     0.65788   0.40460   0.20142   0.00000  Uiso   1.00
N134   N     0.91513   0.66188   0.20503   0.00000  Uiso   1.00
N135   N     0.65590   0.91667   0.19960   0.00000  Uiso   1.00
N136   N     0.55839   0.40423   0.04682   0.00000  Uiso   1.00
N137   N     0.81564   0.66152   0.05043   0.00000  Uiso   1.00
N138   N     0.55641   0.91630   0.04501   0.00000  Uiso   1.00
C139   C     0.25170   0.16107   0.21562   0.00000  Uiso   1.00
C140   C     0.20152   0.09030   0.17393   0.00000  Uiso   1.00
C141   C     0.21476   0.03100   0.22498   0.00000  Uiso   1.00
C142   C     0.16214   0.97138   0.17374   0.00000  Uiso   1.00
C143   C     0.09392   0.86151   0.12402   0.00000  Uiso   1.00
C144   C     0.27242   0.16120   0.17492   0.00000  Uiso   1.00
C145   C     0.34527   0.16152   0.22682   0.00000  Uiso   1.00
C146   C     0.35233   0.16159   0.17641   0.00000  Uiso   1.00
C147   C     0.39419   0.16185   0.12823   0.00000  Uiso   1.00
C148   C     0.20098   0.23141   0.17343   0.00000  Uiso   1.00
C149   C     0.21376   0.29077   0.22407   0.00000  Uiso   1.00
C150   C     0.16067   0.34997   0.17239   0.00000  Uiso   1.00
C151   C     0.09159   0.45924   0.12190   0.00000  Uiso   1.00
C152   C     0.13471   0.16064   0.03382   0.00000  Uiso   1.00
C153   C     0.13798   0.09007   0.07518   0.00000  Uiso   1.00
C154   C     0.08532   0.03053   0.02384   0.00000  Uiso   1.00
C155   C     0.09848   0.97115   0.07481   0.00000  Uiso   1.00
C156   C     0.20888   0.16097   0.07618   0.00000  Uiso   1.00
C157   C     0.21584   0.16104   0.02567   0.00000  Uiso   1.00
C158   C     0.28867   0.16135   0.07748   0.00000  Uiso   1.00
C159   C     0.13743   0.23118   0.07468   0.00000  Uiso   1.00
C160   C     0.08432   0.29029   0.02292   0.00000  Uiso   1.00
C161   C     0.09701   0.34973   0.07347   0.00000  Uiso   1.00
H162   H     0.30117   0.16125   0.29250   0.00000  Uiso   1.00
H163   H     0.26395   0.03120   0.30140   0.00000  Uiso   1.00
H164   H     0.39444   0.16171   0.30323   0.00000  Uiso   1.00
H165   H     0.26294   0.29093   0.30048   0.00000  Uiso   1.00
H166   H     0.19467   0.88689   0.26773   0.00000  Uiso   1.00
H167   H     0.46981   0.16210   0.27159   0.00000  Uiso   1.00
H168   H     0.19253   0.43461   0.26578   0.00000  Uiso   1.00
H169   H     0.08523   0.16046   0.95693   0.00000  Uiso   1.00
H170   H     0.03615   0.03036   0.94742   0.00000  Uiso   1.00
H171   H     0.16665   0.16087   0.94926   0.00000  Uiso   1.00
H172   H     0.03515   0.29009   0.94650   0.00000  Uiso   1.00
H173   H     0.00978   0.88621   0.98043   0.00000  Uiso   1.00
H174   H     0.28493   0.16142   0.98429   0.00000  Uiso   1.00
H175   H     0.00764   0.43393   0.97848   0.00000  Uiso   1.00
O176   O     0.07385   0.80097   0.12388   0.00000  Uiso   1.00
O177   O     0.43483   0.16204   0.12894   0.00000  Uiso   1.00
O178   O     0.07104   0.51957   0.12133   0.00000  Uiso   1.00
N179   N     0.15788   0.90460   0.20142   0.00000  Uiso   1.00
N180   N     0.41513   0.16188   0.20503   0.00000  Uiso   1.00
N181   N     0.15590   0.41667   0.19960   0.00000  Uiso   1.00
N182   N     0.05839   0.90423   0.04682   0.00000  Uiso   1.00
N183   N     0.31564   0.16152   0.05043   0.00000  Uiso   1.00
N184   N     0.05641   0.41630   0.04501   0.00000  Uiso   1.00
C185   C     0.75170   0.33893   0.71562   0.00000  Uiso   1.00
C186   C     0.70152   0.40970   0.67393   0.00000  Uiso   1.00
C187   C     0.71476   0.46900   0.72498   0.00000  Uiso   1.00
C188   C     0.66214   0.52862   0.67374   0.00000  Uiso   1.00
C189   C     0.59392   0.63849   0.62402   0.00000  Uiso   1.00
C190   C     0.77242   0.33880   0.67492   0.00000  Uiso   1.00
C191   C     0.84527   0.33848   0.72682   0.00000  Uiso   1.00
C192   C     0.85233   0.33841   0.67641   0.00000  Uiso   1.00
C193   C     0.89419   0.33815   0.62823   0.00000  Uiso   1.00
C194   C     0.70098   0.26859   0.67343   0.00000  Uiso   1.00
C195   C     0.71376   0.20923   0.72407   0.00000  Uiso   1.00
C196   C     0.66067   0.15003   0.67239   0.00000  Uiso   1.00
C197   C     0.59159   0.04076   0.62190   0.00000  Uiso   1.00
C198   C     0.63471   0.33936   0.53382   0.00000  Uiso   1.00
C199   C     0.63798   0.40993   0.57518   0.00000  Uiso   1.00
C200   C     0.58532   0.46947   0.52384   0.00000  Uiso   1.00
C201   C     0.59848   0.52885   0.57481   0.00000  Uiso   1.00
C202   C     0.70888   0.33903   0.57618   0.00000  Uiso   1.00
C203   C     0.71584   0.33896   0.52567   0.00000  Uiso   1.00
C204   C     0.78867   0.33865   0.57748   0.00000  Uiso   1.00
C205   C     0.63743   0.26882   0.57468   0.00000  Uiso   1.00
C206   C     0.58432   0.20971   0.52292   0.00000  Uiso   1.00
C207   C     0.59701   0.15027   0.57347   0.00000  Uiso   1.00
H208   H     0.80117   0.33875   0.79250   0.00000  Uiso   1.00
H209   H     0.76395   0.46880   0.80140   0.00000  Uiso   1.00
H210   H     0.89444   0.33829   0.80323   0.00000  Uiso   1.00
H211   H     0.76294   0.20907   0.80048   0.00000  Uiso   1.00
H212   H     0.69467   0.61311   0.76773   0.00000  Uiso   1.00
H213   H     0.96981   0.33790   0.77159   0.00000  Uiso   1.00
H214   H     0.69253   0.06539   0.76578   0.00000  Uiso   1.00
H215   H     0.58523   0.33954   0.45693   0.00000  Uiso   1.00
H216   H     0.53615   0.46964   0.44742   0.00000  Uiso   1.00
H217   H     0.66665   0.33913   0.44926   0.00000  Uiso   1.00
H218   H     0.53515   0.20991   0.44650   0.00000  Uiso   1.00
H219   H     0.50978   0.61379   0.48043   0.00000  Uiso   1.00
H220   H     0.78493   0.33858   0.48429   0.00000  Uiso   1.00
H221   H     0.50764   0.06607   0.47848   0.00000  Uiso   1.00
O222   O     0.57385   0.69903   0.62388   0.00000  Uiso   1.00
O223   O     0.93483   0.33796   0.62894   0.00000  Uiso   1.00
O224   O     0.57104   0.98043   0.62133   0.00000  Uiso   1.00
N225   N     0.65788   0.59540   0.70142   0.00000  Uiso   1.00
N226   N     0.91513   0.33812   0.70503   0.00000  Uiso   1.00
N227   N     0.65590   0.08333   0.69960   0.00000  Uiso   1.00
N228   N     0.55839   0.59577   0.54682   0.00000  Uiso   1.00
N229   N     0.81564   0.33848   0.55043   0.00000  Uiso   1.00
N230   N     0.55641   0.08370   0.54501   0.00000  Uiso   1.00
C231   C     0.25170   0.83893   0.71562   0.00000  Uiso   1.00
C232   C     0.20152   0.90970   0.67393   0.00000  Uiso   1.00
C233   C     0.21476   0.96900   0.72498   0.00000  Uiso   1.00
C234   C     0.16214   0.02862   0.67374   0.00000  Uiso   1.00
C235   C     0.09392   0.13849   0.62402   0.00000  Uiso   1.00
C236   C     0.27242   0.83880   0.67492   0.00000  Uiso   1.00
C237   C     0.34527   0.83848   0.72682   0.00000  Uiso   1.00
C238   C     0.35233   0.83841   0.67641   0.00000  Uiso   1.00
C239   C     0.39419   0.83815   0.62823   0.00000  Uiso   1.00
C240   C     0.20098   0.76859   0.67343   0.00000  Uiso   1.00
C241   C     0.21376   0.70923   0.72407   0.00000  Uiso   1.00
C242   C     0.16067   0.65003   0.67239   0.00000  Uiso   1.00
C243   C     0.09159   0.54076   0.62190   0.00000  Uiso   1.00
C244   C     0.13471   0.83936   0.53382   0.00000  Uiso   1.00
C245   C     0.13798   0.90993   0.57518   0.00000  Uiso   1.00
C246   C     0.08532   0.96947   0.52384   0.00000  Uiso   1.00
C247   C     0.09848   0.02885   0.57481   0.00000  Uiso   1.00
C248   C     0.20888   0.83903   0.57618   0.00000  Uiso   1.00
C249   C     0.21584   0.83896   0.52567   0.00000  Uiso   1.00
C250   C     0.28867   0.83865   0.57748   0.00000  Uiso   1.00
C251   C     0.13743   0.76882   0.57468   0.00000  Uiso   1.00
C252   C     0.08432   0.70971   0.52292   0.00000  Uiso   1.00
C253   C     0.09701   0.65027   0.57347   0.00000  Uiso   1.00
H254   H     0.30117   0.83875   0.79250   0.00000  Uiso   1.00
H255   H     0.26395   0.96880   0.80140   0.00000  Uiso   1.00
H256   H     0.39444   0.83829   0.80323   0.00000  Uiso   1.00
H257   H     0.26294   0.70907   0.80048   0.00000  Uiso   1.00
H258   H     0.19467   0.11311   0.76773   0.00000  Uiso   1.00
H259   H     0.46981   0.83790   0.77159   0.00000  Uiso   1.00
H260   H     0.19253   0.56539   0.76578   0.00000  Uiso   1.00
H261   H     0.08523   0.83954   0.45693   0.00000  Uiso   1.00
H262   H     0.03615   0.96964   0.44742   0.00000  Uiso   1.00
H263   H     0.16665   0.83913   0.44926   0.00000  Uiso   1.00
H264   H     0.03515   0.70991   0.44650   0.00000  Uiso   1.00
H265   H     0.00978   0.11379   0.48043   0.00000  Uiso   1.00
H266   H     0.28493   0.83858   0.48429   0.00000  Uiso   1.00
H267   H     0.00764   0.56607   0.47848   0.00000  Uiso   1.00
O268   O     0.07385   0.19903   0.62388   0.00000  Uiso   1.00
O269   O     0.43483   0.83796   0.62894   0.00000  Uiso   1.00
O270   O     0.07104   0.48043   0.62133   0.00000  Uiso   1.00
N271   N     0.15788   0.09540   0.70142   0.00000  Uiso   1.00
N272   N     0.41513   0.83812   0.70503   0.00000  Uiso   1.00
N273   N     0.15590   0.58333   0.69960   0.00000  Uiso   1.00
N274   N     0.05839   0.09577   0.54682   0.00000  Uiso   1.00
N275   N     0.31564   0.83848   0.55043   0.00000  Uiso   1.00
N276   N     0.05641   0.58370   0.54501   0.00000  Uiso   1.00
C277   C     0.24830   0.33893   0.78438   0.00000  Uiso   1.00
C278   C     0.29848   0.40970   0.82607   0.00000  Uiso   1.00
C279   C     0.28524   0.46900   0.77502   0.00000  Uiso   1.00
C280   C     0.33786   0.52862   0.82626   0.00000  Uiso   1.00
C281   C     0.40608   0.63849   0.87598   0.00000  Uiso   1.00
C282   C     0.22758   0.33880   0.82508   0.00000  Uiso   1.00
C283   C     0.15473   0.33848   0.77318   0.00000  Uiso   1.00
C284   C     0.14767   0.33841   0.82359   0.00000  Uiso   1.00
C285   C     0.10581   0.33815   0.87177   0.00000  Uiso   1.00
C286   C     0.29902   0.26859   0.82657   0.00000  Uiso   1.00
C287   C     0.28624   0.20923   0.77593   0.00000  Uiso   1.00
C288   C     0.33933   0.15003   0.82761   0.00000  Uiso   1.00
C289   C     0.40841   0.04076   0.87810   0.00000  Uiso   1.00
C290   C     0.36529   0.33936   0.96618   0.00000  Uiso   1.00
C291   C     0.36202   0.40993   0.92482   0.00000  Uiso   1.00
C292   C     0.41468   0.46947   0.97616   0.00000  Uiso   1.00
C293   C     0.40152   0.52885   0.92519   0.00000  Uiso   1.00
C294   C     0.29112   0.33903   0.92382   0.00000  Uiso   1.00
C295   C     0.28416   0.33896   0.97433   0.00000  Uiso   1.00
C296   C     0.21133   0.33865   0.92252   0.00000  Uiso   1.00
C297   C     0.36257   0.26882   0.92532   0.00000  Uiso   1.00
C298   C     0.41568   0.20971   0.97708   0.00000  Uiso   1.00
C299   C     0.40299   0.15027   0.92653   0.00000  Uiso   1.00
H300   H     0.19883   0.33875   0.70750   0.00000  Uiso   1.00
H301   H     0.23605   0.46880   0.69860   0.00000  Uiso   1.00
H302   H     0.10556   0.33829   0.69677   0.00000  Uiso   1.00
H303   H     0.23706   0.20907   0.69952   0.00000  Uiso   1.00
H304   H     0.30533   0.61311   0.73227   0.00000  Uiso   1.00
H305   H     0.03019   0.33790   0.72841   0.00000  Uiso   1.00
H306   H     0.30747   0.06539   0.73422   0.00000  Uiso   1.00
H307   H     0.41477   0.33954   0.04307   0.00000  Uiso   1.00
H308   H     0.46385   0.46964   0.05258   0.00000  Uiso   1.00
H309   H     0.33335   0.33913   0.05074   0.00000  Uiso   1.00
H310   H     0.46485   0.20991   0.05350   0.00000  Uiso   1.00
H311   H     0.49022   0.61379   0.01957   0.00000  Uiso   1.00
H312   H     0.21507   0.33858   0.01571   0.00000  Uiso   1.00
H313   H     0.49236   0.06607   0.02152   0.00000  Uiso   1.00
O314   O     0.42615   0.69903   0.87612   0.00000  Uiso   1.00
O315   O     0.06517   0.33796   0.87106   0.00000  Uiso   1.00
O316   O     0.42896   0.98043   0.87867   0.00000  Uiso   1.00
N317   N     0.34212   0.59540   0.79858   0.00000  Uiso   1.00
N318   N     0.08487   0.33812   0.79497   0.00000  Uiso   1.00
N319   N     0.34410   0.08333   0.80040   0.00000  Uiso   1.00
N320   N     0.44161   0.59577   0.95318   0.00000  Uiso   1.00
N321   N     0.18436   0.33848   0.94957   0.00000  Uiso   1.00
N322   N     0.44359   0.08370   0.95499   0.00000  Uiso   1.00
C323   C     0.74830   0.83893   0.78438   0.00000  Uiso   1.00
C324   C     0.79848   0.90970   0.82607   0.00000  Uiso   1.00
C325   C     0.78524   0.96900   0.77502   0.00000  Uiso   1.00
C326   C     0.83786   0.02862   0.82626   0.00000  Uiso   1.00
C327   C     0.90608   0.13849   0.87598   0.00000  Uiso   1.00
C328   C     0.72758   0.83880   0.82508   0.00000  Uiso   1.00
C329   C     0.65473   0.83848   0.77318   0.00000  Uiso   1.00
C330   C     0.64767   0.83841   0.82359   0.00000  Uiso   1.00
C331   C     0.60581   0.83815   0.87177   0.00000  Uiso   1.00
C332   C     0.79902   0.76859   0.82657   0.00000  Uiso   1.00
C333   C     0.78624   0.70923   0.77593   0.00000  Uiso   1.00
C334   C     0.83933   0.65003   0.82761   0.00000  Uiso   1.00
C335   C     0.90841   0.54076   0.87810   0.00000  Uiso   1.00
C336   C     0.86529   0.83936   0.96618   0.00000  Uiso   1.00
C337   C     0.86202   0.90993   0.92482   0.00000  Uiso   1.00
C338   C     0.91468   0.96947   0.97616   0.00000  Uiso   1.00
C339   C     0.90152   0.02885   0.92519   0.00000  Uiso   1.00
C340   C     0.79112   0.83903   0.92382   0.00000  Uiso   1.00
C341   C     0.78416   0.83896   0.97433   0.00000  Uiso   1.00
C342   C     0.71133   0.83865   0.92252   0.00000  Uiso   1.00
C343   C     0.86257   0.76882   0.92532   0.00000  Uiso   1.00
C344   C     0.91568   0.70971   0.97708   0.00000  Uiso   1.00
C345   C     0.90299   0.65027   0.92653   0.00000  Uiso   1.00
H346   H     0.69883   0.83875   0.70750   0.00000  Uiso   1.00
H347   H     0.73605   0.96880   0.69860   0.00000  Uiso   1.00
H348   H     0.60556   0.83829   0.69677   0.00000  Uiso   1.00
H349   H     0.73706   0.70907   0.69952   0.00000  Uiso   1.00
H350   H     0.80533   0.11311   0.73227   0.00000  Uiso   1.00
H351   H     0.53019   0.83790   0.72841   0.00000  Uiso   1.00
H352   H     0.80747   0.56539   0.73422   0.00000  Uiso   1.00
H353   H     0.91477   0.83954   0.04307   0.00000  Uiso   1.00
H354   H     0.96385   0.96964   0.05258   0.00000  Uiso   1.00
H355   H     0.83335   0.83913   0.05074   0.00000  Uiso   1.00
H356   H     0.96485   0.70991   0.05350   0.00000  Uiso   1.00
H357   H     0.99022   0.11379   0.01957   0.00000  Uiso   1.00
H358   H     0.71507   0.83858   0.01571   0.00000  Uiso   1.00
H359   H     0.99236   0.56607   0.02152   0.00000  Uiso   1.00
O360   O     0.92615   0.19903   0.87612   0.00000  Uiso   1.00
O361   O     0.56517   0.83796   0.87106   0.00000  Uiso   1.00
O362   O     0.92896   0.48043   0.87867   0.00000  Uiso   1.00
N363   N     0.84212   0.09540   0.79858   0.00000  Uiso   1.00
N364   N     0.58487   0.83812   0.79497   0.00000  Uiso   1.00
N365   N     0.84410   0.58333   0.80040   0.00000  Uiso   1.00
N366   N     0.94161   0.09577   0.95318   0.00000  Uiso   1.00
N367   N     0.68436   0.83848   0.94957   0.00000  Uiso   1.00
N368   N     0.94359   0.58370   0.95499   0.00000  Uiso   1.00
