data_job_01345
_audit_creation_date              2018-12-19
_audit_creation_method            'Materials Studio'
_symmetry_space_group_name_H-M    'P1'
_symmetry_Int_Tables_number       1
_symmetry_cell_setting            triclinic
loop_
_symmetry_equiv_pos_as_xyz
  x,y,z
_cell_length_a                    14.8714
_cell_length_b                    19.5667
_cell_length_c                    24.5258
_cell_angle_alpha                 90.0000
_cell_angle_beta                  123.4772
_cell_angle_gamma                 90.0000
loop_
_atom_site_label
_atom_site_type_symbol
_atom_site_fract_x
_atom_site_fract_y
_atom_site_fract_z
_atom_site_U_iso_or_equiv
_atom_site_adp_type
_atom_site_occupancy
C1     C     0.19207   0.51283   0.38856   0.00000  Uiso   1.00
C2     C     0.26434   0.50937   0.46296   0.00000  Uiso   1.00
C3     C     0.34788   0.55403   0.50302   0.00000  Uiso   1.00
C4     C     0.40447   0.54220   0.56986   0.00000  Uiso   1.00
C5     C     0.52069   0.54510   0.68145   0.00000  Uiso   1.00
C6     C     0.20217   0.44355   0.36392   0.00000  Uiso   1.00
C7     C     0.23342   0.43287   0.32071   0.00000  Uiso   1.00
C8     C     0.23765   0.36562   0.30419   0.00000  Uiso   1.00
C9     C     0.25727   0.26635   0.26199   0.00000  Uiso   1.00
C10    C     0.07677   0.51673   0.37134   0.00000  Uiso   1.00
C11    C     0.00258   0.56758   0.33435   0.00000  Uiso   1.00
C12    C     0.90123   0.56194   0.32405   0.00000  Uiso   1.00
C13    C     0.72616   0.57629   0.29337   0.00000  Uiso   1.00
C14    C     0.14400   0.41239   0.43604   0.00000  Uiso   1.00
C15    C     0.23823   0.45481   0.48874   0.00000  Uiso   1.00
C16    C     0.29470   0.44291   0.55555   0.00000  Uiso   1.00
C17    C     0.37831   0.48754   0.59570   0.00000  Uiso   1.00
C18    C     0.17606   0.38899   0.38971   0.00000  Uiso   1.00
C19    C     0.18024   0.32174   0.37324   0.00000  Uiso   1.00
C20    C     0.21150   0.31097   0.33002   0.00000  Uiso   1.00
C21    C     0.05066   0.46218   0.39713   0.00000  Uiso   1.00
C22    C     0.94940   0.45645   0.38688   0.00000  Uiso   1.00
C23    C     0.87507   0.50728   0.34988   0.00000  Uiso   1.00
H24    H     0.21240   0.55530   0.36848   0.00000  Uiso   1.00
H25    H     0.36807   0.59624   0.48304   0.00000  Uiso   1.00
H26    H     0.25361   0.47510   0.30076   0.00000  Uiso   1.00
H27    H     0.02281   0.60979   0.31440   0.00000  Uiso   1.00
H28    H     0.52917   0.61756   0.62142   0.00000  Uiso   1.00
H29    H     0.28779   0.36213   0.23706   0.00000  Uiso   1.00
H30    H     0.80111   0.64614   0.26581   0.00000  Uiso   1.00
H31    H     0.12368   0.36991   0.45611   0.00000  Uiso   1.00
H32    H     0.27448   0.40068   0.57549   0.00000  Uiso   1.00
H33    H     0.16002   0.27954   0.39320   0.00000  Uiso   1.00
H34    H     0.92923   0.41423   0.40684   0.00000  Uiso   1.00
H35    H     0.45321   0.45884   0.69645   0.00000  Uiso   1.00
H36    H     0.21183   0.20340   0.31208   0.00000  Uiso   1.00
H37    H     0.72515   0.48742   0.34084   0.00000  Uiso   1.00
O38    O     0.59202   0.56177   0.73588   0.00000  Uiso   1.00
O39    O     0.27532   0.22666   0.23160   0.00000  Uiso   1.00
O40    O     0.63681   0.59928   0.26933   0.00000  Uiso   1.00
N41    N     0.49058   0.57599   0.62270   0.00000  Uiso   1.00
N42    N     0.26493   0.33718   0.26335   0.00000  Uiso   1.00
N43    N     0.80991   0.60270   0.29022   0.00000  Uiso   1.00
N44    N     0.44971   0.49058   0.66307   0.00000  Uiso   1.00
N45    N     0.22405   0.25177   0.30372   0.00000  Uiso   1.00
N46    N     0.76904   0.51729   0.33059   0.00000  Uiso   1.00
C47    C     0.69207   0.01283   0.38856   0.00000  Uiso   1.00
C48    C     0.76434   0.00937   0.46296   0.00000  Uiso   1.00
C49    C     0.84788   0.05403   0.50302   0.00000  Uiso   1.00
C50    C     0.90447   0.04220   0.56986   0.00000  Uiso   1.00
C51    C     0.02069   0.04510   0.68145   0.00000  Uiso   1.00
C52    C     0.70217   0.94355   0.36392   0.00000  Uiso   1.00
C53    C     0.73342   0.93287   0.32071   0.00000  Uiso   1.00
C54    C     0.73765   0.86562   0.30419   0.00000  Uiso   1.00
C55    C     0.75727   0.76635   0.26199   0.00000  Uiso   1.00
C56    C     0.57677   0.01673   0.37134   0.00000  Uiso   1.00
C57    C     0.50258   0.06758   0.33435   0.00000  Uiso   1.00
C58    C     0.40123   0.06194   0.32405   0.00000  Uiso   1.00
C59    C     0.22616   0.07629   0.29337   0.00000  Uiso   1.00
C60    C     0.64400   0.91239   0.43604   0.00000  Uiso   1.00
C61    C     0.73823   0.95481   0.48874   0.00000  Uiso   1.00
C62    C     0.79470   0.94291   0.55555   0.00000  Uiso   1.00
C63    C     0.87831   0.98754   0.59570   0.00000  Uiso   1.00
C64    C     0.67606   0.88899   0.38971   0.00000  Uiso   1.00
C65    C     0.68024   0.82174   0.37324   0.00000  Uiso   1.00
C66    C     0.71150   0.81097   0.33002   0.00000  Uiso   1.00
C67    C     0.55066   0.96218   0.39713   0.00000  Uiso   1.00
C68    C     0.44940   0.95645   0.38688   0.00000  Uiso   1.00
C69    C     0.37507   0.00728   0.34988   0.00000  Uiso   1.00
H70    H     0.71240   0.05530   0.36848   0.00000  Uiso   1.00
H71    H     0.86807   0.09624   0.48304   0.00000  Uiso   1.00
H72    H     0.75361   0.97510   0.30076   0.00000  Uiso   1.00
H73    H     0.52281   0.10979   0.31440   0.00000  Uiso   1.00
H74    H     0.02917   0.11756   0.62142   0.00000  Uiso   1.00
H75    H     0.78779   0.86213   0.23706   0.00000  Uiso   1.00
H76    H     0.30111   0.14614   0.26581   0.00000  Uiso   1.00
H77    H     0.62368   0.86991   0.45611   0.00000  Uiso   1.00
H78    H     0.77448   0.90068   0.57549   0.00000  Uiso   1.00
H79    H     0.66002   0.77954   0.39320   0.00000  Uiso   1.00
H80    H     0.42923   0.91423   0.40684   0.00000  Uiso   1.00
H81    H     0.95321   0.95884   0.69645   0.00000  Uiso   1.00
H82    H     0.71183   0.70340   0.31208   0.00000  Uiso   1.00
H83    H     0.22515   0.98742   0.34084   0.00000  Uiso   1.00
O84    O     0.09202   0.06177   0.73588   0.00000  Uiso   1.00
O85    O     0.77532   0.72666   0.23160   0.00000  Uiso   1.00
O86    O     0.13681   0.09928   0.26933   0.00000  Uiso   1.00
N87    N     0.99058   0.07599   0.62270   0.00000  Uiso   1.00
N88    N     0.76493   0.83718   0.26335   0.00000  Uiso   1.00
N89    N     0.30991   0.10270   0.29022   0.00000  Uiso   1.00
N90    N     0.94971   0.99058   0.66307   0.00000  Uiso   1.00
N91    N     0.72405   0.75177   0.30372   0.00000  Uiso   1.00
N92    N     0.26904   0.01729   0.33059   0.00000  Uiso   1.00
C93    C     0.80793   0.51283   0.11144   0.00000  Uiso   1.00
C94    C     0.73566   0.50937   0.03704   0.00000  Uiso   1.00
C95    C     0.65212   0.55403   0.99698   0.00000  Uiso   1.00
C96    C     0.59553   0.54220   0.93014   0.00000  Uiso   1.00
C97    C     0.47931   0.54510   0.81855   0.00000  Uiso   1.00
C98    C     0.79783   0.44355   0.13608   0.00000  Uiso   1.00
C99    C     0.76658   0.43287   0.17929   0.00000  Uiso   1.00
C100   C     0.76235   0.36562   0.19581   0.00000  Uiso   1.00
C101   C     0.74273   0.26635   0.23801   0.00000  Uiso   1.00
C102   C     0.92323   0.51673   0.12866   0.00000  Uiso   1.00
C103   C     0.99742   0.56758   0.16565   0.00000  Uiso   1.00
C104   C     0.09877   0.56194   0.17595   0.00000  Uiso   1.00
C105   C     0.27384   0.57629   0.20663   0.00000  Uiso   1.00
C106   C     0.85600   0.41239   0.06396   0.00000  Uiso   1.00
C107   C     0.76177   0.45481   0.01126   0.00000  Uiso   1.00
C108   C     0.70530   0.44291   0.94445   0.00000  Uiso   1.00
C109   C     0.62169   0.48754   0.90430   0.00000  Uiso   1.00
C110   C     0.82394   0.38899   0.11029   0.00000  Uiso   1.00
C111   C     0.81976   0.32174   0.12676   0.00000  Uiso   1.00
C112   C     0.78850   0.31097   0.16998   0.00000  Uiso   1.00
C113   C     0.94934   0.46218   0.10287   0.00000  Uiso   1.00
C114   C     0.05060   0.45645   0.11312   0.00000  Uiso   1.00
C115   C     0.12493   0.50728   0.15012   0.00000  Uiso   1.00
H116   H     0.78760   0.55530   0.13152   0.00000  Uiso   1.00
H117   H     0.63193   0.59624   0.01696   0.00000  Uiso   1.00
H118   H     0.74639   0.47510   0.19924   0.00000  Uiso   1.00
H119   H     0.97719   0.60979   0.18560   0.00000  Uiso   1.00
H120   H     0.47083   0.61756   0.87858   0.00000  Uiso   1.00
H121   H     0.71221   0.36213   0.26294   0.00000  Uiso   1.00
H122   H     0.19889   0.64614   0.23419   0.00000  Uiso   1.00
H123   H     0.87632   0.36991   0.04389   0.00000  Uiso   1.00
H124   H     0.72552   0.40068   0.92451   0.00000  Uiso   1.00
H125   H     0.83998   0.27954   0.10680   0.00000  Uiso   1.00
H126   H     0.07077   0.41423   0.09316   0.00000  Uiso   1.00
H127   H     0.54679   0.45884   0.80355   0.00000  Uiso   1.00
H128   H     0.78817   0.20340   0.18792   0.00000  Uiso   1.00
H129   H     0.27485   0.48742   0.15916   0.00000  Uiso   1.00
O130   O     0.40798   0.56177   0.76412   0.00000  Uiso   1.00
O131   O     0.72468   0.22666   0.26840   0.00000  Uiso   1.00
O132   O     0.36319   0.59928   0.23067   0.00000  Uiso   1.00
N133   N     0.50942   0.57599   0.87730   0.00000  Uiso   1.00
N134   N     0.73507   0.33718   0.23665   0.00000  Uiso   1.00
N135   N     0.19009   0.60270   0.20978   0.00000  Uiso   1.00
N136   N     0.55029   0.49058   0.83693   0.00000  Uiso   1.00
N137   N     0.77595   0.25177   0.19628   0.00000  Uiso   1.00
N138   N     0.23096   0.51729   0.16941   0.00000  Uiso   1.00
C139   C     0.30793   0.01283   0.11144   0.00000  Uiso   1.00
C140   C     0.23566   0.00937   0.03704   0.00000  Uiso   1.00
C141   C     0.15212   0.05403   0.99698   0.00000  Uiso   1.00
C142   C     0.09553   0.04220   0.93014   0.00000  Uiso   1.00
C143   C     0.97931   0.04510   0.81855   0.00000  Uiso   1.00
C144   C     0.29783   0.94355   0.13608   0.00000  Uiso   1.00
C145   C     0.26658   0.93287   0.17929   0.00000  Uiso   1.00
C146   C     0.26235   0.86562   0.19581   0.00000  Uiso   1.00
C147   C     0.24273   0.76635   0.23801   0.00000  Uiso   1.00
C148   C     0.42323   0.01673   0.12866   0.00000  Uiso   1.00
C149   C     0.49742   0.06758   0.16565   0.00000  Uiso   1.00
C150   C     0.59877   0.06194   0.17595   0.00000  Uiso   1.00
C151   C     0.77384   0.07629   0.20663   0.00000  Uiso   1.00
C152   C     0.35600   0.91239   0.06396   0.00000  Uiso   1.00
C153   C     0.26177   0.95481   0.01126   0.00000  Uiso   1.00
C154   C     0.20530   0.94291   0.94445   0.00000  Uiso   1.00
C155   C     0.12169   0.98754   0.90430   0.00000  Uiso   1.00
C156   C     0.32394   0.88899   0.11029   0.00000  Uiso   1.00
C157   C     0.31976   0.82174   0.12676   0.00000  Uiso   1.00
C158   C     0.28850   0.81097   0.16998   0.00000  Uiso   1.00
C159   C     0.44934   0.96218   0.10287   0.00000  Uiso   1.00
C160   C     0.55060   0.95645   0.11312   0.00000  Uiso   1.00
C161   C     0.62493   0.00728   0.15012   0.00000  Uiso   1.00
H162   H     0.28760   0.05530   0.13152   0.00000  Uiso   1.00
H163   H     0.13193   0.09624   0.01696   0.00000  Uiso   1.00
H164   H     0.24639   0.97510   0.19924   0.00000  Uiso   1.00
H165   H     0.47719   0.10979   0.18560   0.00000  Uiso   1.00
H166   H     0.97083   0.11756   0.87858   0.00000  Uiso   1.00
H167   H     0.21221   0.86213   0.26294   0.00000  Uiso   1.00
H168   H     0.69889   0.14614   0.23419   0.00000  Uiso   1.00
H169   H     0.37632   0.86991   0.04389   0.00000  Uiso   1.00
H170   H     0.22552   0.90068   0.92451   0.00000  Uiso   1.00
H171   H     0.33998   0.77954   0.10680   0.00000  Uiso   1.00
H172   H     0.57077   0.91423   0.09316   0.00000  Uiso   1.00
H173   H     0.04679   0.95884   0.80355   0.00000  Uiso   1.00
H174   H     0.28817   0.70340   0.18792   0.00000  Uiso   1.00
H175   H     0.77485   0.98742   0.15916   0.00000  Uiso   1.00
O176   O     0.90798   0.06177   0.76412   0.00000  Uiso   1.00
O177   O     0.22468   0.72666   0.26840   0.00000  Uiso   1.00
O178   O     0.86319   0.09928   0.23067   0.00000  Uiso   1.00
N179   N     0.00942   0.07599   0.87730   0.00000  Uiso   1.00
N180   N     0.23507   0.83718   0.23665   0.00000  Uiso   1.00
N181   N     0.69009   0.10270   0.20978   0.00000  Uiso   1.00
N182   N     0.05029   0.99058   0.83693   0.00000  Uiso   1.00
N183   N     0.27595   0.75177   0.19628   0.00000  Uiso   1.00
N184   N     0.73096   0.01729   0.16941   0.00000  Uiso   1.00
C185   C     0.80793   0.48717   0.61144   0.00000  Uiso   1.00
C186   C     0.73566   0.49063   0.53704   0.00000  Uiso   1.00
C187   C     0.65212   0.44597   0.49698   0.00000  Uiso   1.00
C188   C     0.59553   0.45780   0.43014   0.00000  Uiso   1.00
C189   C     0.47931   0.45490   0.31855   0.00000  Uiso   1.00
C190   C     0.79783   0.55645   0.63608   0.00000  Uiso   1.00
C191   C     0.76658   0.56713   0.67929   0.00000  Uiso   1.00
C192   C     0.76235   0.63438   0.69581   0.00000  Uiso   1.00
C193   C     0.74273   0.73365   0.73801   0.00000  Uiso   1.00
C194   C     0.92323   0.48327   0.62866   0.00000  Uiso   1.00
C195   C     0.99742   0.43242   0.66565   0.00000  Uiso   1.00
C196   C     0.09877   0.43806   0.67595   0.00000  Uiso   1.00
C197   C     0.27384   0.42371   0.70663   0.00000  Uiso   1.00
C198   C     0.85600   0.58761   0.56396   0.00000  Uiso   1.00
C199   C     0.76177   0.54519   0.51126   0.00000  Uiso   1.00
C200   C     0.70530   0.55709   0.44445   0.00000  Uiso   1.00
C201   C     0.62169   0.51246   0.40430   0.00000  Uiso   1.00
C202   C     0.82394   0.61101   0.61029   0.00000  Uiso   1.00
C203   C     0.81976   0.67826   0.62676   0.00000  Uiso   1.00
C204   C     0.78850   0.68903   0.66998   0.00000  Uiso   1.00
C205   C     0.94934   0.53782   0.60287   0.00000  Uiso   1.00
C206   C     0.05060   0.54355   0.61312   0.00000  Uiso   1.00
C207   C     0.12493   0.49272   0.65012   0.00000  Uiso   1.00
H208   H     0.78760   0.44470   0.63152   0.00000  Uiso   1.00
H209   H     0.63193   0.40376   0.51696   0.00000  Uiso   1.00
H210   H     0.74639   0.52490   0.69924   0.00000  Uiso   1.00
H211   H     0.97719   0.39021   0.68560   0.00000  Uiso   1.00
H212   H     0.47083   0.38244   0.37858   0.00000  Uiso   1.00
H213   H     0.71221   0.63787   0.76294   0.00000  Uiso   1.00
H214   H     0.19889   0.35386   0.73419   0.00000  Uiso   1.00
H215   H     0.87632   0.63009   0.54389   0.00000  Uiso   1.00
H216   H     0.72552   0.59932   0.42451   0.00000  Uiso   1.00
H217   H     0.83998   0.72046   0.60680   0.00000  Uiso   1.00
H218   H     0.07077   0.58577   0.59316   0.00000  Uiso   1.00
H219   H     0.54679   0.54116   0.30355   0.00000  Uiso   1.00
H220   H     0.78817   0.79660   0.68792   0.00000  Uiso   1.00
H221   H     0.27485   0.51258   0.65916   0.00000  Uiso   1.00
O222   O     0.40798   0.43823   0.26412   0.00000  Uiso   1.00
O223   O     0.72468   0.77334   0.76840   0.00000  Uiso   1.00
O224   O     0.36319   0.40072   0.73067   0.00000  Uiso   1.00
N225   N     0.50942   0.42401   0.37730   0.00000  Uiso   1.00
N226   N     0.73507   0.66282   0.73665   0.00000  Uiso   1.00
N227   N     0.19009   0.39730   0.70978   0.00000  Uiso   1.00
N228   N     0.55029   0.50942   0.33693   0.00000  Uiso   1.00
N229   N     0.77595   0.74823   0.69628   0.00000  Uiso   1.00
N230   N     0.23096   0.48271   0.66941   0.00000  Uiso   1.00
C231   C     0.30793   0.98717   0.61144   0.00000  Uiso   1.00
C232   C     0.23566   0.99063   0.53704   0.00000  Uiso   1.00
C233   C     0.15212   0.94597   0.49698   0.00000  Uiso   1.00
C234   C     0.09553   0.95780   0.43014   0.00000  Uiso   1.00
C235   C     0.97931   0.95490   0.31855   0.00000  Uiso   1.00
C236   C     0.29783   0.05645   0.63608   0.00000  Uiso   1.00
C237   C     0.26658   0.06713   0.67929   0.00000  Uiso   1.00
C238   C     0.26235   0.13438   0.69581   0.00000  Uiso   1.00
C239   C     0.24273   0.23365   0.73801   0.00000  Uiso   1.00
C240   C     0.42323   0.98327   0.62866   0.00000  Uiso   1.00
C241   C     0.49742   0.93242   0.66565   0.00000  Uiso   1.00
C242   C     0.59877   0.93806   0.67595   0.00000  Uiso   1.00
C243   C     0.77384   0.92371   0.70663   0.00000  Uiso   1.00
C244   C     0.35600   0.08761   0.56396   0.00000  Uiso   1.00
C245   C     0.26177   0.04519   0.51126   0.00000  Uiso   1.00
C246   C     0.20530   0.05709   0.44445   0.00000  Uiso   1.00
C247   C     0.12169   0.01246   0.40430   0.00000  Uiso   1.00
C248   C     0.32394   0.11101   0.61029   0.00000  Uiso   1.00
C249   C     0.31976   0.17826   0.62676   0.00000  Uiso   1.00
C250   C     0.28850   0.18903   0.66998   0.00000  Uiso   1.00
C251   C     0.44934   0.03782   0.60287   0.00000  Uiso   1.00
C252   C     0.55060   0.04355   0.61312   0.00000  Uiso   1.00
C253   C     0.62493   0.99272   0.65012   0.00000  Uiso   1.00
H254   H     0.28760   0.94470   0.63152   0.00000  Uiso   1.00
H255   H     0.13193   0.90376   0.51696   0.00000  Uiso   1.00
H256   H     0.24639   0.02490   0.69924   0.00000  Uiso   1.00
H257   H     0.47719   0.89021   0.68560   0.00000  Uiso   1.00
H258   H     0.97083   0.88244   0.37858   0.00000  Uiso   1.00
H259   H     0.21221   0.13787   0.76294   0.00000  Uiso   1.00
H260   H     0.69889   0.85386   0.73419   0.00000  Uiso   1.00
H261   H     0.37632   0.13009   0.54389   0.00000  Uiso   1.00
H262   H     0.22552   0.09932   0.42451   0.00000  Uiso   1.00
H263   H     0.33998   0.22046   0.60680   0.00000  Uiso   1.00
H264   H     0.57077   0.08577   0.59316   0.00000  Uiso   1.00
H265   H     0.04679   0.04116   0.30355   0.00000  Uiso   1.00
H266   H     0.28817   0.29660   0.68792   0.00000  Uiso   1.00
H267   H     0.77485   0.01258   0.65916   0.00000  Uiso   1.00
O268   O     0.90798   0.93823   0.26412   0.00000  Uiso   1.00
O269   O     0.22468   0.27334   0.76840   0.00000  Uiso   1.00
O270   O     0.86319   0.90072   0.73067   0.00000  Uiso   1.00
N271   N     0.00942   0.92401   0.37730   0.00000  Uiso   1.00
N272   N     0.23507   0.16282   0.73665   0.00000  Uiso   1.00
N273   N     0.69009   0.89730   0.70978   0.00000  Uiso   1.00
N274   N     0.05029   0.00942   0.33693   0.00000  Uiso   1.00
N275   N     0.27595   0.24823   0.69628   0.00000  Uiso   1.00
N276   N     0.73096   0.98271   0.66941   0.00000  Uiso   1.00
C277   C     0.19207   0.48717   0.88856   0.00000  Uiso   1.00
C278   C     0.26434   0.49063   0.96296   0.00000  Uiso   1.00
C279   C     0.34788   0.44597   0.00302   0.00000  Uiso   1.00
C280   C     0.40447   0.45780   0.06986   0.00000  Uiso   1.00
C281   C     0.52069   0.45490   0.18145   0.00000  Uiso   1.00
C282   C     0.20217   0.55645   0.86392   0.00000  Uiso   1.00
C283   C     0.23342   0.56713   0.82071   0.00000  Uiso   1.00
C284   C     0.23765   0.63438   0.80419   0.00000  Uiso   1.00
C285   C     0.25727   0.73365   0.76199   0.00000  Uiso   1.00
C286   C     0.07677   0.48327   0.87134   0.00000  Uiso   1.00
C287   C     0.00258   0.43242   0.83435   0.00000  Uiso   1.00
C288   C     0.90123   0.43806   0.82405   0.00000  Uiso   1.00
C289   C     0.72616   0.42371   0.79337   0.00000  Uiso   1.00
C290   C     0.14400   0.58761   0.93604   0.00000  Uiso   1.00
C291   C     0.23823   0.54519   0.98874   0.00000  Uiso   1.00
C292   C     0.29470   0.55709   0.05555   0.00000  Uiso   1.00
C293   C     0.37831   0.51246   0.09570   0.00000  Uiso   1.00
C294   C     0.17606   0.61101   0.88971   0.00000  Uiso   1.00
C295   C     0.18024   0.67826   0.87324   0.00000  Uiso   1.00
C296   C     0.21150   0.68903   0.83002   0.00000  Uiso   1.00
C297   C     0.05066   0.53782   0.89713   0.00000  Uiso   1.00
C298   C     0.94940   0.54355   0.88688   0.00000  Uiso   1.00
C299   C     0.87507   0.49272   0.84988   0.00000  Uiso   1.00
H300   H     0.21240   0.44470   0.86848   0.00000  Uiso   1.00
H301   H     0.36807   0.40376   0.98304   0.00000  Uiso   1.00
H302   H     0.25361   0.52490   0.80076   0.00000  Uiso   1.00
H303   H     0.02281   0.39021   0.81440   0.00000  Uiso   1.00
H304   H     0.52917   0.38244   0.12142   0.00000  Uiso   1.00
H305   H     0.28779   0.63787   0.73706   0.00000  Uiso   1.00
H306   H     0.80111   0.35386   0.76581   0.00000  Uiso   1.00
H307   H     0.12368   0.63009   0.95611   0.00000  Uiso   1.00
H308   H     0.27448   0.59932   0.07549   0.00000  Uiso   1.00
H309   H     0.16002   0.72046   0.89320   0.00000  Uiso   1.00
H310   H     0.92923   0.58577   0.90684   0.00000  Uiso   1.00
H311   H     0.45321   0.54116   0.19645   0.00000  Uiso   1.00
H312   H     0.21183   0.79660   0.81208   0.00000  Uiso   1.00
H313   H     0.72515   0.51258   0.84084   0.00000  Uiso   1.00
O314   O     0.59202   0.43823   0.23588   0.00000  Uiso   1.00
O315   O     0.27532   0.77334   0.73160   0.00000  Uiso   1.00
O316   O     0.63681   0.40072   0.76933   0.00000  Uiso   1.00
N317   N     0.49058   0.42401   0.12270   0.00000  Uiso   1.00
N318   N     0.26493   0.66282   0.76335   0.00000  Uiso   1.00
N319   N     0.80991   0.39730   0.79022   0.00000  Uiso   1.00
N320   N     0.44971   0.50942   0.16307   0.00000  Uiso   1.00
N321   N     0.22405   0.74823   0.80372   0.00000  Uiso   1.00
N322   N     0.76904   0.48271   0.83059   0.00000  Uiso   1.00
C323   C     0.69207   0.98717   0.88856   0.00000  Uiso   1.00
C324   C     0.76434   0.99063   0.96296   0.00000  Uiso   1.00
C325   C     0.84788   0.94597   0.00302   0.00000  Uiso   1.00
C326   C     0.90447   0.95780   0.06986   0.00000  Uiso   1.00
C327   C     0.02069   0.95490   0.18145   0.00000  Uiso   1.00
C328   C     0.70217   0.05645   0.86392   0.00000  Uiso   1.00
C329   C     0.73342   0.06713   0.82071   0.00000  Uiso   1.00
C330   C     0.73765   0.13438   0.80419   0.00000  Uiso   1.00
C331   C     0.75727   0.23365   0.76199   0.00000  Uiso   1.00
C332   C     0.57677   0.98327   0.87134   0.00000  Uiso   1.00
C333   C     0.50258   0.93242   0.83435   0.00000  Uiso   1.00
C334   C     0.40123   0.93806   0.82405   0.00000  Uiso   1.00
C335   C     0.22616   0.92371   0.79337   0.00000  Uiso   1.00
C336   C     0.64400   0.08761   0.93604   0.00000  Uiso   1.00
C337   C     0.73823   0.04519   0.98874   0.00000  Uiso   1.00
C338   C     0.79470   0.05709   0.05555   0.00000  Uiso   1.00
C339   C     0.87831   0.01246   0.09570   0.00000  Uiso   1.00
C340   C     0.67606   0.11101   0.88971   0.00000  Uiso   1.00
C341   C     0.68024   0.17826   0.87324   0.00000  Uiso   1.00
C342   C     0.71150   0.18903   0.83002   0.00000  Uiso   1.00
C343   C     0.55066   0.03782   0.89713   0.00000  Uiso   1.00
C344   C     0.44940   0.04355   0.88688   0.00000  Uiso   1.00
C345   C     0.37507   0.99272   0.84988   0.00000  Uiso   1.00
H346   H     0.71240   0.94470   0.86848   0.00000  Uiso   1.00
H347   H     0.86807   0.90376   0.98304   0.00000  Uiso   1.00
H348   H     0.75361   0.02490   0.80076   0.00000  Uiso   1.00
H349   H     0.52281   0.89021   0.81440   0.00000  Uiso   1.00
H350   H     0.02917   0.88244   0.12142   0.00000  Uiso   1.00
H351   H     0.78779   0.13787   0.73706   0.00000  Uiso   1.00
H352   H     0.30111   0.85386   0.76581   0.00000  Uiso   1.00
H353   H     0.62368   0.13009   0.95611   0.00000  Uiso   1.00
H354   H     0.77448   0.09932   0.07549   0.00000  Uiso   1.00
H355   H     0.66002   0.22046   0.89320   0.00000  Uiso   1.00
H356   H     0.42923   0.08577   0.90684   0.00000  Uiso   1.00
H357   H     0.95321   0.04116   0.19645   0.00000  Uiso   1.00
H358   H     0.71183   0.29660   0.81208   0.00000  Uiso   1.00
H359   H     0.22515   0.01258   0.84084   0.00000  Uiso   1.00
O360   O     0.09202   0.93823   0.23588   0.00000  Uiso   1.00
O361   O     0.77532   0.27334   0.73160   0.00000  Uiso   1.00
O362   O     0.13681   0.90072   0.76933   0.00000  Uiso   1.00
N363   N     0.99058   0.92401   0.12270   0.00000  Uiso   1.00
N364   N     0.76493   0.16282   0.76335   0.00000  Uiso   1.00
N365   N     0.30991   0.89730   0.79022   0.00000  Uiso   1.00
N366   N     0.94971   0.00942   0.16307   0.00000  Uiso   1.00
N367   N     0.72405   0.24823   0.80372   0.00000  Uiso   1.00
N368   N     0.26904   0.98271   0.83059   0.00000  Uiso   1.00
