data_job_06393
_audit_creation_date              2018-12-19
_audit_creation_method            'Materials Studio'
_symmetry_space_group_name_H-M    'P1'
_symmetry_Int_Tables_number       1
_symmetry_cell_setting            triclinic
loop_
_symmetry_equiv_pos_as_xyz
  x,y,z
_cell_length_a                    12.3308
_cell_length_b                    19.8785
_cell_length_c                    19.9396
_cell_angle_alpha                 63.9880
_cell_angle_beta                  78.8832
_cell_angle_gamma                 101.0643
loop_
_atom_site_label
_atom_site_type_symbol
_atom_site_fract_x
_atom_site_fract_y
_atom_site_fract_z
_atom_site_U_iso_or_equiv
_atom_site_adp_type
_atom_site_occupancy
C1     C     0.20944   0.84344   0.70713   0.00000  Uiso   1.00
C2     C     0.07939   0.80457   0.72818   0.00000  Uiso   1.00
C3     C     0.02472   0.78871   0.67968   0.00000  Uiso   1.00
C4     C     0.90498   0.75285   0.70980   0.00000  Uiso   1.00
C5     C     0.71256   0.69547   0.73092   0.00000  Uiso   1.00
C6     C     0.22066   0.91525   0.71841   0.00000  Uiso   1.00
C7     C     0.28479   0.99245   0.66170   0.00000  Uiso   1.00
C8     C     0.28397   0.04976   0.68361   0.00000  Uiso   1.00
C9     C     0.31096   0.16421   0.68958   0.00000  Uiso   1.00
C10    C     0.24917   0.78618   0.77056   0.00000  Uiso   1.00
C11    C     0.33728   0.75486   0.75770   0.00000  Uiso   1.00
C12    C     0.36049   0.70352   0.82351   0.00000  Uiso   1.00
C13    C     0.43174   0.61756   0.91045   0.00000  Uiso   1.00
C14    C     0.09400   0.80795   0.84686   0.00000  Uiso   1.00
C15    C     0.01668   0.78530   0.80407   0.00000  Uiso   1.00
C16    C     0.89699   0.74945   0.83427   0.00000  Uiso   1.00
C17    C     0.84216   0.73354   0.78583   0.00000  Uiso   1.00
C18    C     0.15796   0.89598   0.79430   0.00000  Uiso   1.00
C19    C     0.15706   0.95319   0.81629   0.00000  Uiso   1.00
C20    C     0.22116   0.03045   0.75964   0.00000  Uiso   1.00
C21    C     0.18646   0.76690   0.84645   0.00000  Uiso   1.00
C22    C     0.20954   0.71560   0.91229   0.00000  Uiso   1.00
C23    C     0.29767   0.68421   0.89954   0.00000  Uiso   1.00
H24    H     0.25826   0.85845   0.64805   0.00000  Uiso   1.00
H25    H     0.07328   0.80365   0.62095   0.00000  Uiso   1.00
H26    H     0.33331   0.00735   0.60298   0.00000  Uiso   1.00
H27    H     0.38579   0.76979   0.69897   0.00000  Uiso   1.00
H28    H     0.84053   0.73441   0.62437   0.00000  Uiso   1.00
H29    H     0.38885   0.16392   0.58648   0.00000  Uiso   1.00
H30    H     0.49952   0.66300   0.78889   0.00000  Uiso   1.00
H31    H     0.04518   0.79295   0.90594   0.00000  Uiso   1.00
H32    H     0.84849   0.73455   0.89301   0.00000  Uiso   1.00
H33    H     0.10853   0.93825   0.87503   0.00000  Uiso   1.00
H34    H     0.16100   0.70070   0.97101   0.00000  Uiso   1.00
H35    H     0.65808   0.67833   0.84518   0.00000  Uiso   1.00
H36    H     0.20641   0.10785   0.80729   0.00000  Uiso   1.00
H37    H     0.31707   0.60692   0.00969   0.00000  Uiso   1.00
O38    O     0.62375   0.66916   0.72160   0.00000  Uiso   1.00
O39    O     0.34316   0.23266   0.67190   0.00000  Uiso   1.00
O40    O     0.48834   0.57546   0.93744   0.00000  Uiso   1.00
N41    N     0.82458   0.72921   0.67812   0.00000  Uiso   1.00
N42    N     0.33722   0.13078   0.64269   0.00000  Uiso   1.00
N43    N     0.44071   0.66248   0.83192   0.00000  Uiso   1.00
N44    N     0.72641   0.69904   0.79694   0.00000  Uiso   1.00
N45    N     0.23905   0.10061   0.76151   0.00000  Uiso   1.00
N46    N     0.34253   0.63230   0.95074   0.00000  Uiso   1.00
C47    C     0.36645   0.44926   0.84448   0.00000  Uiso   1.00
C48    C     0.27459   0.46774   0.80390   0.00000  Uiso   1.00
C49    C     0.23542   0.53246   0.78748   0.00000  Uiso   1.00
C50    C     0.15093   0.53879   0.75001   0.00000  Uiso   1.00
C51    C     0.01489   0.57604   0.69011   0.00000  Uiso   1.00
C52    C     0.30902   0.36684   0.91557   0.00000  Uiso   1.00
C53    C     0.29881   0.34674   0.99304   0.00000  Uiso   1.00
C54    C     0.24332   0.26813   0.04957   0.00000  Uiso   1.00
C55    C     0.16082   0.14873   0.16304   0.00000  Uiso   1.00
C56    C     0.46064   0.44202   0.78839   0.00000  Uiso   1.00
C57    C     0.57793   0.48511   0.75894   0.00000  Uiso   1.00
C58    C     0.65010   0.46978   0.70840   0.00000  Uiso   1.00
C59    C     0.80301   0.46710   0.62440   0.00000  Uiso   1.00
C60    C     0.28606   0.34541   0.80712   0.00000  Uiso   1.00
C61    C     0.23093   0.41133   0.78361   0.00000  Uiso   1.00
C62    C     0.14648   0.41756   0.74614   0.00000  Uiso   1.00
C63    C     0.10719   0.48228   0.72967   0.00000  Uiso   1.00
C64    C     0.26536   0.31044   0.89528   0.00000  Uiso   1.00
C65    C     0.20988   0.23184   0.95171   0.00000  Uiso   1.00
C66    C     0.19958   0.21162   0.02924   0.00000  Uiso   1.00
C67    C     0.41698   0.38561   0.76809   0.00000  Uiso   1.00
C68    C     0.48899   0.37021   0.71760   0.00000  Uiso   1.00
C69    C     0.60636   0.41327   0.68807   0.00000  Uiso   1.00
H70    H     0.40044   0.49317   0.86029   0.00000  Uiso   1.00
H71    H     0.26922   0.57610   0.80320   0.00000  Uiso   1.00
H72    H     0.33262   0.39040   0.00873   0.00000  Uiso   1.00
H73    H     0.61169   0.52875   0.77465   0.00000  Uiso   1.00
H74    H     0.10446   0.64315   0.73098   0.00000  Uiso   1.00
H75    H     0.23817   0.25159   0.16435   0.00000  Uiso   1.00
H76    H     0.82664   0.54333   0.67076   0.00000  Uiso   1.00
H77    H     0.25207   0.30149   0.79132   0.00000  Uiso   1.00
H78    H     0.11271   0.37390   0.73045   0.00000  Uiso   1.00
H79    H     0.17611   0.18820   0.93598   0.00000  Uiso   1.00
H80    H     0.45517   0.32655   0.70191   0.00000  Uiso   1.00
H81    H     0.97742   0.47903   0.67194   0.00000  Uiso   1.00
H82    H     0.11114   0.08748   0.10531   0.00000  Uiso   1.00
H83    H     0.69961   0.37921   0.61172   0.00000  Uiso   1.00
O84    O     0.95191   0.61217   0.66268   0.00000  Uiso   1.00
O85    O     0.12736   0.09846   0.23124   0.00000  Uiso   1.00
O86    O     0.89942   0.48122   0.58367   0.00000  Uiso   1.00
N87    N     0.09370   0.59459   0.72543   0.00000  Uiso   1.00
N88    N     0.21870   0.22852   0.13060   0.00000  Uiso   1.00
N89    N     0.76888   0.50125   0.66916   0.00000  Uiso   1.00
N90    N     0.02534   0.50629   0.69366   0.00000  Uiso   1.00
N91    N     0.15034   0.14021   0.09883   0.00000  Uiso   1.00
N92    N     0.70052   0.41294   0.63738   0.00000  Uiso   1.00
C93    C     0.92114   0.70656   0.44910   0.00000  Uiso   1.00
C94    C     0.81230   0.72972   0.46597   0.00000  Uiso   1.00
C95    C     0.71161   0.68250   0.52931   0.00000  Uiso   1.00
C96    C     0.62169   0.71449   0.53428   0.00000  Uiso   1.00
C97    C     0.45106   0.73881   0.56903   0.00000  Uiso   1.00
C98    C     0.94299   0.71736   0.36654   0.00000  Uiso   1.00
C99    C     0.95221   0.65974   0.34628   0.00000  Uiso   1.00
C100   C     0.97233   0.68135   0.26756   0.00000  Uiso   1.00
C101   C     0.00470   0.68649   0.14793   0.00000  Uiso   1.00
C102   C     0.02138   0.76909   0.44366   0.00000  Uiso   1.00
C103   C     0.09654   0.75496   0.48823   0.00000  Uiso   1.00
C104   C     0.18268   0.82012   0.47442   0.00000  Uiso   1.00
C105   C     0.33676   0.90558   0.47454   0.00000  Uiso   1.00
C106   C     0.94050   0.84738   0.34531   0.00000  Uiso   1.00
C107   C     0.82282   0.80621   0.40959   0.00000  Uiso   1.00
C108   C     0.73303   0.83830   0.41447   0.00000  Uiso   1.00
C109   C     0.63222   0.79112   0.47781   0.00000  Uiso   1.00
C110   C     0.95351   0.79385   0.31016   0.00000  Uiso   1.00
C111   C     0.97363   0.81554   0.23145   0.00000  Uiso   1.00
C112   C     0.98287   0.75797   0.21108   0.00000  Uiso   1.00
C113   C     0.03190   0.84558   0.38729   0.00000  Uiso   1.00
C114   C     0.11795   0.91077   0.37340   0.00000  Uiso   1.00
C115   C     0.19321   0.89674   0.41795   0.00000  Uiso   1.00
H116   H     0.91295   0.64701   0.49299   0.00000  Uiso   1.00
H117   H     0.70350   0.62330   0.57292   0.00000  Uiso   1.00
H118   H     0.94408   0.60056   0.38992   0.00000  Uiso   1.00
H119   H     0.08837   0.69577   0.53185   0.00000  Uiso   1.00
H120   H     0.47590   0.63074   0.63666   0.00000  Uiso   1.00
H121   H     0.98322   0.58279   0.25079   0.00000  Uiso   1.00
H122   H     0.28749   0.78355   0.55009   0.00000  Uiso   1.00
H123   H     0.94869   0.90693   0.30142   0.00000  Uiso   1.00
H124   H     0.74119   0.89749   0.37084   0.00000  Uiso   1.00
H125   H     0.98177   0.87474   0.18784   0.00000  Uiso   1.00
H126   H     0.12606   0.96995   0.32977   0.00000  Uiso   1.00
H127   H     0.50649   0.85327   0.47264   0.00000  Uiso   1.00
H128   H     0.01381   0.80533   0.08677   0.00000  Uiso   1.00
H129   H     0.31809   0.00609   0.38607   0.00000  Uiso   1.00
O130   O     0.35404   0.73109   0.60376   0.00000  Uiso   1.00
O131   O     0.01964   0.66819   0.09752   0.00000  Uiso   1.00
O132   O     0.41884   0.93159   0.49019   0.00000  Uiso   1.00
N133   N     0.51159   0.68441   0.58854   0.00000  Uiso   1.00
N134   N     0.98588   0.63958   0.22778   0.00000  Uiso   1.00
N135   N     0.27037   0.82727   0.50758   0.00000  Uiso   1.00
N136   N     0.52805   0.80416   0.50028   0.00000  Uiso   1.00
N137   N     0.00234   0.75933   0.13952   0.00000  Uiso   1.00
N138   N     0.28683   0.94702   0.41932   0.00000  Uiso   1.00
C139   C     0.70943   0.29313   0.15649   0.00000  Uiso   1.00
C140   C     0.57939   0.27211   0.19528   0.00000  Uiso   1.00
C141   C     0.52475   0.32084   0.21101   0.00000  Uiso   1.00
C142   C     0.40501   0.29070   0.24682   0.00000  Uiso   1.00
C143   C     0.21262   0.26966   0.30407   0.00000  Uiso   1.00
C144   C     0.72061   0.28168   0.08497   0.00000  Uiso   1.00
C145   C     0.78473   0.33845   0.00796   0.00000  Uiso   1.00
C146   C     0.78387   0.31635   0.95091   0.00000  Uiso   1.00
C147   C     0.81080   0.31014   0.83692   0.00000  Uiso   1.00
C148   C     0.74915   0.22954   0.21363   0.00000  Uiso   1.00
C149   C     0.83729   0.24248   0.24477   0.00000  Uiso   1.00
C150   C     0.86049   0.17650   0.29603   0.00000  Uiso   1.00
C151   C     0.93174   0.08935   0.38179   0.00000  Uiso   1.00
C152   C     0.59393   0.15295   0.19212   0.00000  Uiso   1.00
C153   C     0.51665   0.19597   0.21463   0.00000  Uiso   1.00
C154   C     0.39696   0.16575   0.25043   0.00000  Uiso   1.00
C155   C     0.34216   0.21443   0.26621   0.00000  Uiso   1.00
C156   C     0.65788   0.20554   0.10433   0.00000  Uiso   1.00
C157   C     0.65694   0.18336   0.04738   0.00000  Uiso   1.00
C158   C     0.72103   0.24008   0.97030   0.00000  Uiso   1.00
C159   C     0.68642   0.15341   0.23299   0.00000  Uiso   1.00
C160   C     0.70949   0.08739   0.28420   0.00000  Uiso   1.00
C161   C     0.79765   0.10022   0.31542   0.00000  Uiso   1.00
H162   H     0.75828   0.35241   0.14142   0.00000  Uiso   1.00
H163   H     0.57333   0.37976   0.19602   0.00000  Uiso   1.00
H164   H     0.83327   0.39736   0.99300   0.00000  Uiso   1.00
H165   H     0.88582   0.30141   0.22978   0.00000  Uiso   1.00
H166   H     0.34061   0.37652   0.26505   0.00000  Uiso   1.00
H167   H     0.88874   0.41362   0.83699   0.00000  Uiso   1.00
H168   H     0.99956   0.21129   0.33629   0.00000  Uiso   1.00
H169   H     0.54509   0.09368   0.20719   0.00000  Uiso   1.00
H170   H     0.34844   0.10683   0.26540   0.00000  Uiso   1.00
H171   H     0.60838   0.12443   0.06238   0.00000  Uiso   1.00
H172   H     0.66093   0.02848   0.29916   0.00000  Uiso   1.00
H173   H     0.15808   0.15500   0.32137   0.00000  Uiso   1.00
H174   H     0.70622   0.19210   0.89330   0.00000  Uiso   1.00
H175   H     0.81703   0.98977   0.39260   0.00000  Uiso   1.00
O176   O     0.12382   0.27909   0.33029   0.00000  Uiso   1.00
O177   O     0.84297   0.32776   0.76869   0.00000  Uiso   1.00
O178   O     0.98835   0.06231   0.42376   0.00000  Uiso   1.00
N179   N     0.32464   0.32257   0.27033   0.00000  Uiso   1.00
N180   N     0.83710   0.35726   0.87012   0.00000  Uiso   1.00
N181   N     0.94072   0.16810   0.33690   0.00000  Uiso   1.00
N182   N     0.22642   0.20338   0.30064   0.00000  Uiso   1.00
N183   N     0.73888   0.23807   0.90042   0.00000  Uiso   1.00
N184   N     0.84250   0.04891   0.36720   0.00000  Uiso   1.00
C185   C     0.86645   0.15530   0.55100   0.00000  Uiso   1.00
C186   C     0.77460   0.19604   0.53255   0.00000  Uiso   1.00
C187   C     0.73540   0.21242   0.46806   0.00000  Uiso   1.00
C188   C     0.65093   0.25005   0.46171   0.00000  Uiso   1.00
C189   C     0.51491   0.31016   0.42454   0.00000  Uiso   1.00
C190   C     0.80902   0.08410   0.63324   0.00000  Uiso   1.00
C191   C     0.79879   0.00636   0.65341   0.00000  Uiso   1.00
C192   C     0.74331   0.94977   0.73183   0.00000  Uiso   1.00
C193   C     0.66081   0.83609   0.85099   0.00000  Uiso   1.00
C194   C     0.96067   0.21160   0.55808   0.00000  Uiso   1.00
C195   C     0.07795   0.24105   0.51508   0.00000  Uiso   1.00
C196   C     0.15016   0.29179   0.53023   0.00000  Uiso   1.00
C197   C     0.30311   0.37608   0.53270   0.00000  Uiso   1.00
C198   C     0.78613   0.19302   0.65440   0.00000  Uiso   1.00
C199   C     0.73097   0.21652   0.58872   0.00000  Uiso   1.00
C200   C     0.64654   0.25415   0.58246   0.00000  Uiso   1.00
C201   C     0.60723   0.27058   0.51798   0.00000  Uiso   1.00
C202   C     0.76540   0.10458   0.68940   0.00000  Uiso   1.00
C203   C     0.70993   0.04809   0.76781   0.00000  Uiso   1.00
C204   C     0.69961   0.97029   0.78809   0.00000  Uiso   1.00
C205   C     0.91705   0.23209   0.61425   0.00000  Uiso   1.00
C206   C     0.98909   0.28279   0.62948   0.00000  Uiso   1.00
C207   C     0.10646   0.31231   0.58650   0.00000  Uiso   1.00
H208   H     0.90041   0.13934   0.50728   0.00000  Uiso   1.00
H209   H     0.76918   0.19654   0.42461   0.00000  Uiso   1.00
H210   H     0.83256   0.99052   0.60993   0.00000  Uiso   1.00
H211   H     0.11168   0.22518   0.47162   0.00000  Uiso   1.00
H212   H     0.60441   0.26897   0.35774   0.00000  Uiso   1.00
H213   H     0.73810   0.83457   0.74851   0.00000  Uiso   1.00
H214   H     0.32668   0.32939   0.45685   0.00000  Uiso   1.00
H215   H     0.75217   0.20897   0.69813   0.00000  Uiso   1.00
H216   H     0.61280   0.27000   0.62594   0.00000  Uiso   1.00
H217   H     0.67619   0.06397   0.81126   0.00000  Uiso   1.00
H218   H     0.95530   0.29863   0.67295   0.00000  Uiso   1.00
H219   H     0.47749   0.32858   0.52115   0.00000  Uiso   1.00
H220   H     0.61119   0.89418   0.91192   0.00000  Uiso   1.00
H221   H     0.19976   0.38900   0.62025   0.00000  Uiso   1.00
O222   O     0.45192   0.33764   0.38852   0.00000  Uiso   1.00
O223   O     0.62734   0.76773   0.90119   0.00000  Uiso   1.00
O224   O     0.39953   0.41692   0.51854   0.00000  Uiso   1.00
N225   N     0.59368   0.27464   0.40610   0.00000  Uiso   1.00
N226   N     0.71866   0.86850   0.77144   0.00000  Uiso   1.00
N227   N     0.26893   0.33110   0.49878   0.00000  Uiso   1.00
N228   N     0.52539   0.30672   0.49403   0.00000  Uiso   1.00
N229   N     0.65037   0.90057   0.85937   0.00000  Uiso   1.00
N230   N     0.20064   0.36318   0.58670   0.00000  Uiso   1.00
C231   C     0.42115   0.55083   0.29322   0.00000  Uiso   1.00
C232   C     0.31229   0.53389   0.27021   0.00000  Uiso   1.00
C233   C     0.21159   0.47042   0.31740   0.00000  Uiso   1.00
C234   C     0.12165   0.46539   0.28556   0.00000  Uiso   1.00
C235   C     0.95100   0.43051   0.26145   0.00000  Uiso   1.00
C236   C     0.44304   0.63369   0.28230   0.00000  Uiso   1.00
C237   C     0.45230   0.65413   0.33966   0.00000  Uiso   1.00
C238   C     0.47245   0.73312   0.31799   0.00000  Uiso   1.00
C239   C     0.50488   0.85320   0.31264   0.00000  Uiso   1.00
C240   C     0.52137   0.55615   0.23090   0.00000  Uiso   1.00
C241   C     0.59650   0.51140   0.24502   0.00000  Uiso   1.00
C242   C     0.68262   0.52512   0.18008   0.00000  Uiso   1.00
C243   C     0.83666   0.52480   0.09491   0.00000  Uiso   1.00
C244   C     0.44049   0.65477   0.15276   0.00000  Uiso   1.00
C245   C     0.32280   0.59035   0.19392   0.00000  Uiso   1.00
C246   C     0.23299   0.58541   0.16200   0.00000  Uiso   1.00
C247   C     0.13218   0.52194   0.20913   0.00000  Uiso   1.00
C248   C     0.45355   0.69014   0.20601   0.00000  Uiso   1.00
C249   C     0.47370   0.76912   0.18426   0.00000  Uiso   1.00
C250   C     0.48297   0.78968   0.24156   0.00000  Uiso   1.00
C251   C     0.53188   0.61260   0.15460   0.00000  Uiso   1.00
C252   C     0.61790   0.62640   0.08962   0.00000  Uiso   1.00
C253   C     0.69315   0.58168   0.10365   0.00000  Uiso   1.00
H254   H     0.41297   0.50688   0.35262   0.00000  Uiso   1.00
H255   H     0.20349   0.42674   0.37644   0.00000  Uiso   1.00
H256   H     0.44417   0.61043   0.39869   0.00000  Uiso   1.00
H257   H     0.58835   0.46772   0.30407   0.00000  Uiso   1.00
H258   H     0.97586   0.36280   0.36922   0.00000  Uiso   1.00
H259   H     0.48339   0.75012   0.41613   0.00000  Uiso   1.00
H260   H     0.78742   0.44920   0.21660   0.00000  Uiso   1.00
H261   H     0.44868   0.69872   0.09336   0.00000  Uiso   1.00
H262   H     0.24115   0.62911   0.10295   0.00000  Uiso   1.00
H263   H     0.48183   0.81279   0.12521   0.00000  Uiso   1.00
H264   H     0.62601   0.67009   0.03059   0.00000  Uiso   1.00
H265   H     0.00642   0.52705   0.14725   0.00000  Uiso   1.00
H266   H     0.51396   0.91437   0.19416   0.00000  Uiso   1.00
H267   H     0.81798   0.61345   0.99463   0.00000  Uiso   1.00
O268   O     0.85396   0.39569   0.26923   0.00000  Uiso   1.00
O269   O     0.51985   0.90383   0.33078   0.00000  Uiso   1.00
O270   O     0.91872   0.50903   0.06900   0.00000  Uiso   1.00
N271   N     0.01154   0.41101   0.31565   0.00000  Uiso   1.00
N272   N     0.48603   0.77312   0.35952   0.00000  Uiso   1.00
N273   N     0.77029   0.49180   0.17298   0.00000  Uiso   1.00
N274   N     0.02799   0.49939   0.19621   0.00000  Uiso   1.00
N275   N     0.50248   0.86150   0.24008   0.00000  Uiso   1.00
N276   N     0.78674   0.58018   0.05354   0.00000  Uiso   1.00
