data_job_04061
_audit_creation_date              2018-12-19
_audit_creation_method            'Materials Studio'
_symmetry_space_group_name_H-M    'P1'
_symmetry_Int_Tables_number       1
_symmetry_cell_setting            triclinic
loop_
_symmetry_equiv_pos_as_xyz
  x,y,z
_cell_length_a                    15.9290
_cell_length_b                    18.3579
_cell_length_c                    24.7245
_cell_angle_alpha                 90.0000
_cell_angle_beta                  90.0000
_cell_angle_gamma                 90.0000
loop_
_atom_site_label
_atom_site_type_symbol
_atom_site_fract_x
_atom_site_fract_y
_atom_site_fract_z
_atom_site_U_iso_or_equiv
_atom_site_adp_type
_atom_site_occupancy
C1     C     0.46168   0.35670   0.63340   0.00000  Uiso   1.00
C2     C     0.49101   0.34368   0.69131   0.00000  Uiso   1.00
C3     C     0.44582   0.36000   0.73775   0.00000  Uiso   1.00
C4     C     0.48361   0.34394   0.78693   0.00000  Uiso   1.00
C5     C     0.51697   0.32852   0.87645   0.00000  Uiso   1.00
C6     C     0.52885   0.40403   0.60701   0.00000  Uiso   1.00
C7     C     0.51547   0.47108   0.58255   0.00000  Uiso   1.00
C8     C     0.58511   0.50581   0.56075   0.00000  Uiso   1.00
C9     C     0.67721   0.58405   0.51936   0.00000  Uiso   1.00
C10    C     0.46626   0.28297   0.60515   0.00000  Uiso   1.00
C11    C     0.40026   0.24823   0.57912   0.00000  Uiso   1.00
C12    C     0.41721   0.18105   0.55575   0.00000  Uiso   1.00
C13    C     0.41214   0.07133   0.51148   0.00000  Uiso   1.00
C14    C     0.60916   0.29916   0.63817   0.00000  Uiso   1.00
C15    C     0.57111   0.31243   0.69390   0.00000  Uiso   1.00
C16    C     0.60898   0.29634   0.74302   0.00000  Uiso   1.00
C17    C     0.56385   0.31263   0.78952   0.00000  Uiso   1.00
C18    C     0.60895   0.37278   0.60960   0.00000  Uiso   1.00
C19    C     0.67863   0.40742   0.58783   0.00000  Uiso   1.00
C20    C     0.66536   0.47451   0.56335   0.00000  Uiso   1.00
C21    C     0.54636   0.25171   0.60774   0.00000  Uiso   1.00
C22    C     0.56342   0.18458   0.58440   0.00000  Uiso   1.00
C23    C     0.49746   0.14975   0.55835   0.00000  Uiso   1.00
H24    H     0.39933   0.38103   0.63138   0.00000  Uiso   1.00
H25    H     0.38383   0.38419   0.73573   0.00000  Uiso   1.00
H26    H     0.45347   0.49524   0.58055   0.00000  Uiso   1.00
H27    H     0.33828   0.27243   0.57713   0.00000  Uiso   1.00
H28    H     0.40199   0.37393   0.85255   0.00000  Uiso   1.00
H29    H     0.54883   0.60808   0.52534   0.00000  Uiso   1.00
H30    H     0.30593   0.13825   0.51812   0.00000  Uiso   1.00
H31    H     0.67152   0.27484   0.64019   0.00000  Uiso   1.00
H32    H     0.67097   0.27216   0.74501   0.00000  Uiso   1.00
H33    H     0.74060   0.38322   0.58984   0.00000  Uiso   1.00
H34    H     0.62541   0.16041   0.58641   0.00000  Uiso   1.00
H35    H     0.63504   0.28301   0.86009   0.00000  Uiso   1.00
H36    H     0.78188   0.51716   0.53287   0.00000  Uiso   1.00
H37    H     0.53898   0.04733   0.52565   0.00000  Uiso   1.00
O38    O     0.51325   0.32865   0.92512   0.00000  Uiso   1.00
O39    O     0.70589   0.63584   0.49582   0.00000  Uiso   1.00
O40    O     0.38721   0.01943   0.48635   0.00000  Uiso   1.00
N41    N     0.45691   0.35289   0.83994   0.00000  Uiso   1.00
N42    N     0.59419   0.57181   0.53402   0.00000  Uiso   1.00
N43    N     0.36711   0.13257   0.52726   0.00000  Uiso   1.00
N44    N     0.58231   0.30396   0.84399   0.00000  Uiso   1.00
N45    N     0.71960   0.52289   0.53808   0.00000  Uiso   1.00
N46    N     0.49251   0.08364   0.53131   0.00000  Uiso   1.00
C47    C     0.03832   0.14330   0.63340   0.00000  Uiso   1.00
C48    C     0.00899   0.15632   0.69131   0.00000  Uiso   1.00
C49    C     0.05418   0.14000   0.73775   0.00000  Uiso   1.00
C50    C     0.01639   0.15606   0.78693   0.00000  Uiso   1.00
C51    C     0.98303   0.17148   0.87645   0.00000  Uiso   1.00
C52    C     0.97115   0.09597   0.60701   0.00000  Uiso   1.00
C53    C     0.98453   0.02892   0.58255   0.00000  Uiso   1.00
C54    C     0.91489   0.99419   0.56075   0.00000  Uiso   1.00
C55    C     0.82279   0.91595   0.51936   0.00000  Uiso   1.00
C56    C     0.03374   0.21703   0.60515   0.00000  Uiso   1.00
C57    C     0.09974   0.25177   0.57912   0.00000  Uiso   1.00
C58    C     0.08279   0.31895   0.55575   0.00000  Uiso   1.00
C59    C     0.08786   0.42867   0.51148   0.00000  Uiso   1.00
C60    C     0.89084   0.20084   0.63817   0.00000  Uiso   1.00
C61    C     0.92889   0.18757   0.69390   0.00000  Uiso   1.00
C62    C     0.89102   0.20366   0.74302   0.00000  Uiso   1.00
C63    C     0.93615   0.18737   0.78952   0.00000  Uiso   1.00
C64    C     0.89105   0.12722   0.60960   0.00000  Uiso   1.00
C65    C     0.82137   0.09258   0.58783   0.00000  Uiso   1.00
C66    C     0.83464   0.02549   0.56335   0.00000  Uiso   1.00
C67    C     0.95364   0.24829   0.60774   0.00000  Uiso   1.00
C68    C     0.93658   0.31542   0.58440   0.00000  Uiso   1.00
C69    C     0.00254   0.35025   0.55835   0.00000  Uiso   1.00
H70    H     0.10067   0.11897   0.63138   0.00000  Uiso   1.00
H71    H     0.11617   0.11581   0.73573   0.00000  Uiso   1.00
H72    H     0.04653   0.00476   0.58055   0.00000  Uiso   1.00
H73    H     0.16172   0.22757   0.57713   0.00000  Uiso   1.00
H74    H     0.09801   0.12607   0.85255   0.00000  Uiso   1.00
H75    H     0.95117   0.89192   0.52534   0.00000  Uiso   1.00
H76    H     0.19407   0.36175   0.51812   0.00000  Uiso   1.00
H77    H     0.82848   0.22516   0.64019   0.00000  Uiso   1.00
H78    H     0.82903   0.22784   0.74501   0.00000  Uiso   1.00
H79    H     0.75940   0.11678   0.58984   0.00000  Uiso   1.00
H80    H     0.87459   0.33959   0.58641   0.00000  Uiso   1.00
H81    H     0.86496   0.21699   0.86009   0.00000  Uiso   1.00
H82    H     0.71812   0.98284   0.53287   0.00000  Uiso   1.00
H83    H     0.96102   0.45267   0.52565   0.00000  Uiso   1.00
O84    O     0.98675   0.17135   0.92512   0.00000  Uiso   1.00
O85    O     0.79411   0.86416   0.49582   0.00000  Uiso   1.00
O86    O     0.11279   0.48057   0.48635   0.00000  Uiso   1.00
N87    N     0.04309   0.14711   0.83994   0.00000  Uiso   1.00
N88    N     0.90581   0.92819   0.53402   0.00000  Uiso   1.00
N89    N     0.13289   0.36743   0.52726   0.00000  Uiso   1.00
N90    N     0.91769   0.19604   0.84399   0.00000  Uiso   1.00
N91    N     0.78040   0.97711   0.53808   0.00000  Uiso   1.00
N92    N     0.00749   0.41636   0.53131   0.00000  Uiso   1.00
C93    C     0.53832   0.85670   0.86660   0.00000  Uiso   1.00
C94    C     0.50899   0.84368   0.80869   0.00000  Uiso   1.00
C95    C     0.55418   0.86000   0.76225   0.00000  Uiso   1.00
C96    C     0.51639   0.84394   0.71307   0.00000  Uiso   1.00
C97    C     0.48303   0.82852   0.62355   0.00000  Uiso   1.00
C98    C     0.47115   0.90403   0.89299   0.00000  Uiso   1.00
C99    C     0.48453   0.97108   0.91745   0.00000  Uiso   1.00
C100   C     0.41489   0.00581   0.93925   0.00000  Uiso   1.00
C101   C     0.32279   0.08405   0.98064   0.00000  Uiso   1.00
C102   C     0.53374   0.78297   0.89485   0.00000  Uiso   1.00
C103   C     0.59974   0.74823   0.92088   0.00000  Uiso   1.00
C104   C     0.58279   0.68105   0.94425   0.00000  Uiso   1.00
C105   C     0.58786   0.57133   0.98852   0.00000  Uiso   1.00
C106   C     0.39084   0.79916   0.86183   0.00000  Uiso   1.00
C107   C     0.42889   0.81243   0.80610   0.00000  Uiso   1.00
C108   C     0.39102   0.79634   0.75698   0.00000  Uiso   1.00
C109   C     0.43615   0.81263   0.71048   0.00000  Uiso   1.00
C110   C     0.39105   0.87278   0.89040   0.00000  Uiso   1.00
C111   C     0.32137   0.90742   0.91217   0.00000  Uiso   1.00
C112   C     0.33464   0.97451   0.93665   0.00000  Uiso   1.00
C113   C     0.45364   0.75171   0.89226   0.00000  Uiso   1.00
C114   C     0.43658   0.68458   0.91560   0.00000  Uiso   1.00
C115   C     0.50254   0.64975   0.94165   0.00000  Uiso   1.00
H116   H     0.60067   0.88103   0.86862   0.00000  Uiso   1.00
H117   H     0.61617   0.88419   0.76427   0.00000  Uiso   1.00
H118   H     0.54653   0.99524   0.91945   0.00000  Uiso   1.00
H119   H     0.66172   0.77243   0.92287   0.00000  Uiso   1.00
H120   H     0.59801   0.87393   0.64745   0.00000  Uiso   1.00
H121   H     0.45117   0.10808   0.97466   0.00000  Uiso   1.00
H122   H     0.69407   0.63825   0.98188   0.00000  Uiso   1.00
H123   H     0.32848   0.77484   0.85981   0.00000  Uiso   1.00
H124   H     0.32903   0.77216   0.75499   0.00000  Uiso   1.00
H125   H     0.25940   0.88322   0.91016   0.00000  Uiso   1.00
H126   H     0.37459   0.66041   0.91359   0.00000  Uiso   1.00
H127   H     0.36496   0.78301   0.63991   0.00000  Uiso   1.00
H128   H     0.21812   0.01716   0.96713   0.00000  Uiso   1.00
H129   H     0.46102   0.54733   0.97435   0.00000  Uiso   1.00
O130   O     0.48675   0.82865   0.57488   0.00000  Uiso   1.00
O131   O     0.29411   0.13584   0.00418   0.00000  Uiso   1.00
O132   O     0.61279   0.51943   0.01365   0.00000  Uiso   1.00
N133   N     0.54309   0.85289   0.66006   0.00000  Uiso   1.00
N134   N     0.40581   0.07181   0.96598   0.00000  Uiso   1.00
N135   N     0.63289   0.63257   0.97274   0.00000  Uiso   1.00
N136   N     0.41769   0.80396   0.65601   0.00000  Uiso   1.00
N137   N     0.28040   0.02289   0.96192   0.00000  Uiso   1.00
N138   N     0.50749   0.58364   0.96869   0.00000  Uiso   1.00
C139   C     0.96168   0.64330   0.86660   0.00000  Uiso   1.00
C140   C     0.99101   0.65632   0.80869   0.00000  Uiso   1.00
C141   C     0.94582   0.64000   0.76225   0.00000  Uiso   1.00
C142   C     0.98361   0.65606   0.71307   0.00000  Uiso   1.00
C143   C     0.01697   0.67148   0.62355   0.00000  Uiso   1.00
C144   C     0.02885   0.59597   0.89299   0.00000  Uiso   1.00
C145   C     0.01547   0.52892   0.91745   0.00000  Uiso   1.00
C146   C     0.08511   0.49419   0.93925   0.00000  Uiso   1.00
C147   C     0.17721   0.41595   0.98064   0.00000  Uiso   1.00
C148   C     0.96626   0.71703   0.89485   0.00000  Uiso   1.00
C149   C     0.90026   0.75177   0.92088   0.00000  Uiso   1.00
C150   C     0.91721   0.81895   0.94425   0.00000  Uiso   1.00
C151   C     0.91214   0.92867   0.98852   0.00000  Uiso   1.00
C152   C     0.10916   0.70084   0.86183   0.00000  Uiso   1.00
C153   C     0.07111   0.68757   0.80610   0.00000  Uiso   1.00
C154   C     0.10898   0.70366   0.75698   0.00000  Uiso   1.00
C155   C     0.06385   0.68737   0.71048   0.00000  Uiso   1.00
C156   C     0.10895   0.62722   0.89040   0.00000  Uiso   1.00
C157   C     0.17863   0.59258   0.91217   0.00000  Uiso   1.00
C158   C     0.16536   0.52549   0.93665   0.00000  Uiso   1.00
C159   C     0.04636   0.74829   0.89226   0.00000  Uiso   1.00
C160   C     0.06342   0.81542   0.91560   0.00000  Uiso   1.00
C161   C     0.99746   0.85025   0.94165   0.00000  Uiso   1.00
H162   H     0.89933   0.61897   0.86862   0.00000  Uiso   1.00
H163   H     0.88383   0.61581   0.76427   0.00000  Uiso   1.00
H164   H     0.95347   0.50476   0.91945   0.00000  Uiso   1.00
H165   H     0.83828   0.72757   0.92287   0.00000  Uiso   1.00
H166   H     0.90199   0.62607   0.64745   0.00000  Uiso   1.00
H167   H     0.04883   0.39192   0.97466   0.00000  Uiso   1.00
H168   H     0.80593   0.86175   0.98188   0.00000  Uiso   1.00
H169   H     0.17152   0.72516   0.85981   0.00000  Uiso   1.00
H170   H     0.17097   0.72784   0.75499   0.00000  Uiso   1.00
H171   H     0.24060   0.61678   0.91016   0.00000  Uiso   1.00
H172   H     0.12541   0.83959   0.91359   0.00000  Uiso   1.00
H173   H     0.13504   0.71699   0.63991   0.00000  Uiso   1.00
H174   H     0.28188   0.48284   0.96713   0.00000  Uiso   1.00
H175   H     0.03898   0.95267   0.97435   0.00000  Uiso   1.00
O176   O     0.01325   0.67135   0.57488   0.00000  Uiso   1.00
O177   O     0.20589   0.36416   0.00418   0.00000  Uiso   1.00
O178   O     0.88721   0.98057   0.01365   0.00000  Uiso   1.00
N179   N     0.95691   0.64711   0.66006   0.00000  Uiso   1.00
N180   N     0.09419   0.42819   0.96598   0.00000  Uiso   1.00
N181   N     0.86711   0.86743   0.97274   0.00000  Uiso   1.00
N182   N     0.08231   0.69604   0.65601   0.00000  Uiso   1.00
N183   N     0.21960   0.47711   0.96192   0.00000  Uiso   1.00
N184   N     0.99251   0.91636   0.96869   0.00000  Uiso   1.00
C185   C     0.53832   0.64330   0.36660   0.00000  Uiso   1.00
C186   C     0.50899   0.65632   0.30869   0.00000  Uiso   1.00
C187   C     0.55418   0.64000   0.26225   0.00000  Uiso   1.00
C188   C     0.51639   0.65606   0.21307   0.00000  Uiso   1.00
C189   C     0.48303   0.67148   0.12355   0.00000  Uiso   1.00
C190   C     0.47115   0.59597   0.39299   0.00000  Uiso   1.00
C191   C     0.48453   0.52892   0.41745   0.00000  Uiso   1.00
C192   C     0.41489   0.49419   0.43925   0.00000  Uiso   1.00
C193   C     0.32279   0.41595   0.48064   0.00000  Uiso   1.00
C194   C     0.53374   0.71703   0.39485   0.00000  Uiso   1.00
C195   C     0.59974   0.75177   0.42088   0.00000  Uiso   1.00
C196   C     0.58279   0.81895   0.44425   0.00000  Uiso   1.00
C197   C     0.58786   0.92867   0.48852   0.00000  Uiso   1.00
C198   C     0.39084   0.70084   0.36183   0.00000  Uiso   1.00
C199   C     0.42889   0.68757   0.30610   0.00000  Uiso   1.00
C200   C     0.39102   0.70366   0.25698   0.00000  Uiso   1.00
C201   C     0.43615   0.68737   0.21048   0.00000  Uiso   1.00
C202   C     0.39105   0.62722   0.39040   0.00000  Uiso   1.00
C203   C     0.32137   0.59258   0.41217   0.00000  Uiso   1.00
C204   C     0.33464   0.52549   0.43665   0.00000  Uiso   1.00
C205   C     0.45364   0.74829   0.39226   0.00000  Uiso   1.00
C206   C     0.43658   0.81542   0.41560   0.00000  Uiso   1.00
C207   C     0.50254   0.85025   0.44165   0.00000  Uiso   1.00
H208   H     0.60067   0.61897   0.36862   0.00000  Uiso   1.00
H209   H     0.61617   0.61581   0.26427   0.00000  Uiso   1.00
H210   H     0.54653   0.50476   0.41945   0.00000  Uiso   1.00
H211   H     0.66172   0.72757   0.42287   0.00000  Uiso   1.00
H212   H     0.59801   0.62607   0.14745   0.00000  Uiso   1.00
H213   H     0.45117   0.39192   0.47466   0.00000  Uiso   1.00
H214   H     0.69407   0.86175   0.48188   0.00000  Uiso   1.00
H215   H     0.32848   0.72516   0.35981   0.00000  Uiso   1.00
H216   H     0.32903   0.72784   0.25499   0.00000  Uiso   1.00
H217   H     0.25940   0.61678   0.41016   0.00000  Uiso   1.00
H218   H     0.37459   0.83959   0.41359   0.00000  Uiso   1.00
H219   H     0.36496   0.71699   0.13991   0.00000  Uiso   1.00
H220   H     0.21812   0.48284   0.46713   0.00000  Uiso   1.00
H221   H     0.46102   0.95267   0.47435   0.00000  Uiso   1.00
O222   O     0.48675   0.67135   0.07488   0.00000  Uiso   1.00
O223   O     0.29411   0.36416   0.50418   0.00000  Uiso   1.00
O224   O     0.61279   0.98057   0.51365   0.00000  Uiso   1.00
N225   N     0.54309   0.64711   0.16006   0.00000  Uiso   1.00
N226   N     0.40581   0.42819   0.46598   0.00000  Uiso   1.00
N227   N     0.63289   0.86743   0.47274   0.00000  Uiso   1.00
N228   N     0.41769   0.69604   0.15601   0.00000  Uiso   1.00
N229   N     0.28040   0.47711   0.46192   0.00000  Uiso   1.00
N230   N     0.50749   0.91636   0.46869   0.00000  Uiso   1.00
C231   C     0.96168   0.85670   0.36660   0.00000  Uiso   1.00
C232   C     0.99101   0.84368   0.30869   0.00000  Uiso   1.00
C233   C     0.94582   0.86000   0.26225   0.00000  Uiso   1.00
C234   C     0.98361   0.84394   0.21307   0.00000  Uiso   1.00
C235   C     0.01697   0.82852   0.12355   0.00000  Uiso   1.00
C236   C     0.02885   0.90403   0.39299   0.00000  Uiso   1.00
C237   C     0.01547   0.97108   0.41745   0.00000  Uiso   1.00
C238   C     0.08511   0.00581   0.43925   0.00000  Uiso   1.00
C239   C     0.17721   0.08405   0.48064   0.00000  Uiso   1.00
C240   C     0.96626   0.78297   0.39485   0.00000  Uiso   1.00
C241   C     0.90026   0.74823   0.42088   0.00000  Uiso   1.00
C242   C     0.91721   0.68105   0.44425   0.00000  Uiso   1.00
C243   C     0.91214   0.57133   0.48852   0.00000  Uiso   1.00
C244   C     0.10916   0.79916   0.36183   0.00000  Uiso   1.00
C245   C     0.07111   0.81243   0.30610   0.00000  Uiso   1.00
C246   C     0.10898   0.79634   0.25698   0.00000  Uiso   1.00
C247   C     0.06385   0.81263   0.21048   0.00000  Uiso   1.00
C248   C     0.10895   0.87278   0.39040   0.00000  Uiso   1.00
C249   C     0.17863   0.90742   0.41217   0.00000  Uiso   1.00
C250   C     0.16536   0.97451   0.43665   0.00000  Uiso   1.00
C251   C     0.04636   0.75171   0.39226   0.00000  Uiso   1.00
C252   C     0.06342   0.68458   0.41560   0.00000  Uiso   1.00
C253   C     0.99746   0.64975   0.44165   0.00000  Uiso   1.00
H254   H     0.89933   0.88103   0.36862   0.00000  Uiso   1.00
H255   H     0.88383   0.88419   0.26427   0.00000  Uiso   1.00
H256   H     0.95347   0.99524   0.41945   0.00000  Uiso   1.00
H257   H     0.83828   0.77243   0.42287   0.00000  Uiso   1.00
H258   H     0.90199   0.87393   0.14745   0.00000  Uiso   1.00
H259   H     0.04883   0.10808   0.47466   0.00000  Uiso   1.00
H260   H     0.80593   0.63825   0.48188   0.00000  Uiso   1.00
H261   H     0.17152   0.77484   0.35981   0.00000  Uiso   1.00
H262   H     0.17097   0.77216   0.25499   0.00000  Uiso   1.00
H263   H     0.24060   0.88322   0.41016   0.00000  Uiso   1.00
H264   H     0.12541   0.66041   0.41359   0.00000  Uiso   1.00
H265   H     0.13504   0.78301   0.13991   0.00000  Uiso   1.00
H266   H     0.28188   0.01716   0.46713   0.00000  Uiso   1.00
H267   H     0.03898   0.54733   0.47435   0.00000  Uiso   1.00
O268   O     0.01325   0.82865   0.07488   0.00000  Uiso   1.00
O269   O     0.20589   0.13584   0.50418   0.00000  Uiso   1.00
O270   O     0.88721   0.51943   0.51365   0.00000  Uiso   1.00
N271   N     0.95691   0.85289   0.16006   0.00000  Uiso   1.00
N272   N     0.09419   0.07181   0.46598   0.00000  Uiso   1.00
N273   N     0.86711   0.63257   0.47274   0.00000  Uiso   1.00
N274   N     0.08231   0.80396   0.15601   0.00000  Uiso   1.00
N275   N     0.21960   0.02289   0.46192   0.00000  Uiso   1.00
N276   N     0.99251   0.58364   0.46869   0.00000  Uiso   1.00
C277   C     0.46168   0.14330   0.13340   0.00000  Uiso   1.00
C278   C     0.49101   0.15632   0.19131   0.00000  Uiso   1.00
C279   C     0.44582   0.14000   0.23775   0.00000  Uiso   1.00
C280   C     0.48361   0.15606   0.28693   0.00000  Uiso   1.00
C281   C     0.51697   0.17148   0.37645   0.00000  Uiso   1.00
C282   C     0.52885   0.09597   0.10701   0.00000  Uiso   1.00
C283   C     0.51547   0.02892   0.08255   0.00000  Uiso   1.00
C284   C     0.58511   0.99419   0.06075   0.00000  Uiso   1.00
C285   C     0.67721   0.91595   0.01936   0.00000  Uiso   1.00
C286   C     0.46626   0.21703   0.10515   0.00000  Uiso   1.00
C287   C     0.40026   0.25177   0.07912   0.00000  Uiso   1.00
C288   C     0.41721   0.31895   0.05575   0.00000  Uiso   1.00
C289   C     0.41214   0.42867   0.01148   0.00000  Uiso   1.00
C290   C     0.60916   0.20084   0.13817   0.00000  Uiso   1.00
C291   C     0.57111   0.18757   0.19390   0.00000  Uiso   1.00
C292   C     0.60898   0.20366   0.24302   0.00000  Uiso   1.00
C293   C     0.56385   0.18737   0.28952   0.00000  Uiso   1.00
C294   C     0.60895   0.12722   0.10960   0.00000  Uiso   1.00
C295   C     0.67863   0.09258   0.08783   0.00000  Uiso   1.00
C296   C     0.66536   0.02549   0.06335   0.00000  Uiso   1.00
C297   C     0.54636   0.24829   0.10774   0.00000  Uiso   1.00
C298   C     0.56342   0.31542   0.08440   0.00000  Uiso   1.00
C299   C     0.49746   0.35025   0.05835   0.00000  Uiso   1.00
H300   H     0.39933   0.11897   0.13138   0.00000  Uiso   1.00
H301   H     0.38383   0.11581   0.23573   0.00000  Uiso   1.00
H302   H     0.45347   0.00476   0.08055   0.00000  Uiso   1.00
H303   H     0.33828   0.22757   0.07713   0.00000  Uiso   1.00
H304   H     0.40199   0.12607   0.35255   0.00000  Uiso   1.00
H305   H     0.54883   0.89192   0.02534   0.00000  Uiso   1.00
H306   H     0.30593   0.36175   0.01812   0.00000  Uiso   1.00
H307   H     0.67152   0.22516   0.14019   0.00000  Uiso   1.00
H308   H     0.67097   0.22784   0.24501   0.00000  Uiso   1.00
H309   H     0.74060   0.11678   0.08984   0.00000  Uiso   1.00
H310   H     0.62541   0.33959   0.08641   0.00000  Uiso   1.00
H311   H     0.63504   0.21699   0.36009   0.00000  Uiso   1.00
H312   H     0.78188   0.98284   0.03287   0.00000  Uiso   1.00
H313   H     0.53898   0.45267   0.02565   0.00000  Uiso   1.00
O314   O     0.51325   0.17135   0.42512   0.00000  Uiso   1.00
O315   O     0.70589   0.86416   0.99582   0.00000  Uiso   1.00
O316   O     0.38721   0.48057   0.98635   0.00000  Uiso   1.00
N317   N     0.45691   0.14711   0.33994   0.00000  Uiso   1.00
N318   N     0.59419   0.92819   0.03402   0.00000  Uiso   1.00
N319   N     0.36711   0.36743   0.02726   0.00000  Uiso   1.00
N320   N     0.58231   0.19604   0.34399   0.00000  Uiso   1.00
N321   N     0.71960   0.97711   0.03808   0.00000  Uiso   1.00
N322   N     0.49251   0.41636   0.03131   0.00000  Uiso   1.00
C323   C     0.03832   0.35670   0.13340   0.00000  Uiso   1.00
C324   C     0.00899   0.34368   0.19131   0.00000  Uiso   1.00
C325   C     0.05418   0.36000   0.23775   0.00000  Uiso   1.00
C326   C     0.01639   0.34394   0.28693   0.00000  Uiso   1.00
C327   C     0.98303   0.32852   0.37645   0.00000  Uiso   1.00
C328   C     0.97115   0.40403   0.10701   0.00000  Uiso   1.00
C329   C     0.98453   0.47108   0.08255   0.00000  Uiso   1.00
C330   C     0.91489   0.50581   0.06075   0.00000  Uiso   1.00
C331   C     0.82279   0.58405   0.01936   0.00000  Uiso   1.00
C332   C     0.03374   0.28297   0.10515   0.00000  Uiso   1.00
C333   C     0.09974   0.24823   0.07912   0.00000  Uiso   1.00
C334   C     0.08279   0.18105   0.05575   0.00000  Uiso   1.00
C335   C     0.08786   0.07133   0.01148   0.00000  Uiso   1.00
C336   C     0.89084   0.29916   0.13817   0.00000  Uiso   1.00
C337   C     0.92889   0.31243   0.19390   0.00000  Uiso   1.00
C338   C     0.89102   0.29634   0.24302   0.00000  Uiso   1.00
C339   C     0.93615   0.31263   0.28952   0.00000  Uiso   1.00
C340   C     0.89105   0.37278   0.10960   0.00000  Uiso   1.00
C341   C     0.82137   0.40742   0.08783   0.00000  Uiso   1.00
C342   C     0.83464   0.47451   0.06335   0.00000  Uiso   1.00
C343   C     0.95364   0.25171   0.10774   0.00000  Uiso   1.00
C344   C     0.93658   0.18458   0.08440   0.00000  Uiso   1.00
C345   C     0.00254   0.14975   0.05835   0.00000  Uiso   1.00
H346   H     0.10067   0.38103   0.13138   0.00000  Uiso   1.00
H347   H     0.11617   0.38419   0.23573   0.00000  Uiso   1.00
H348   H     0.04653   0.49524   0.08055   0.00000  Uiso   1.00
H349   H     0.16172   0.27243   0.07713   0.00000  Uiso   1.00
H350   H     0.09801   0.37393   0.35255   0.00000  Uiso   1.00
H351   H     0.95117   0.60808   0.02534   0.00000  Uiso   1.00
H352   H     0.19407   0.13825   0.01812   0.00000  Uiso   1.00
H353   H     0.82848   0.27484   0.14019   0.00000  Uiso   1.00
H354   H     0.82903   0.27216   0.24501   0.00000  Uiso   1.00
H355   H     0.75940   0.38322   0.08984   0.00000  Uiso   1.00
H356   H     0.87459   0.16041   0.08641   0.00000  Uiso   1.00
H357   H     0.86496   0.28301   0.36009   0.00000  Uiso   1.00
H358   H     0.71812   0.51716   0.03287   0.00000  Uiso   1.00
H359   H     0.96102   0.04733   0.02565   0.00000  Uiso   1.00
O360   O     0.98675   0.32865   0.42512   0.00000  Uiso   1.00
O361   O     0.79411   0.63584   0.99582   0.00000  Uiso   1.00
O362   O     0.11279   0.01943   0.98635   0.00000  Uiso   1.00
N363   N     0.04309   0.35289   0.33994   0.00000  Uiso   1.00
N364   N     0.90581   0.57181   0.03402   0.00000  Uiso   1.00
N365   N     0.13289   0.13257   0.02726   0.00000  Uiso   1.00
N366   N     0.91769   0.30396   0.34399   0.00000  Uiso   1.00
N367   N     0.78040   0.52289   0.03808   0.00000  Uiso   1.00
N368   N     0.00749   0.08364   0.03131   0.00000  Uiso   1.00
