data_job_05346
_audit_creation_date              2018-12-19
_audit_creation_method            'Materials Studio'
_symmetry_space_group_name_H-M    'P1'
_symmetry_Int_Tables_number       1
_symmetry_cell_setting            triclinic
loop_
_symmetry_equiv_pos_as_xyz
  x,y,z
_cell_length_a                    16.4535
_cell_length_b                    12.4587
_cell_length_c                    14.4128
_cell_angle_alpha                 90.0000
_cell_angle_beta                  72.5048
_cell_angle_gamma                 90.0000
loop_
_atom_site_label
_atom_site_type_symbol
_atom_site_fract_x
_atom_site_fract_y
_atom_site_fract_z
_atom_site_U_iso_or_equiv
_atom_site_adp_type
_atom_site_occupancy
C1     C     0.68244   0.37056   0.65736   0.00000  Uiso   1.00
C2     C     0.72672   0.26487   0.66505   0.00000  Uiso   1.00
C3     C     0.71247   0.20278   0.74836   0.00000  Uiso   1.00
C4     C     0.75941   0.10879   0.74043   0.00000  Uiso   1.00
C5     C     0.81921   0.94938   0.76577   0.00000  Uiso   1.00
C6     C     0.75327   0.45293   0.61975   0.00000  Uiso   1.00
C7     C     0.76134   0.54897   0.66497   0.00000  Uiso   1.00
C8     C     0.83063   0.61330   0.61889   0.00000  Uiso   1.00
C9     C     0.93162   0.74589   0.57388   0.00000  Uiso   1.00
C10    C     0.64183   0.35516   0.57611   0.00000  Uiso   1.00
C11    C     0.55619   0.36902   0.58464   0.00000  Uiso   1.00
C12    C     0.53165   0.35105   0.50181   0.00000  Uiso   1.00
C13    C     0.45960   0.33184   0.38905   0.00000  Uiso   1.00
C14    C     0.79113   0.31405   0.49512   0.00000  Uiso   1.00
C15    C     0.78576   0.23418   0.57692   0.00000  Uiso   1.00
C16    C     0.83273   0.14026   0.56885   0.00000  Uiso   1.00
C17    C     0.81855   0.07804   0.65214   0.00000  Uiso   1.00
C18    C     0.81231   0.42224   0.53163   0.00000  Uiso   1.00
C19    C     0.88160   0.48645   0.48547   0.00000  Uiso   1.00
C20    C     0.88977   0.58255   0.53061   0.00000  Uiso   1.00
C21    C     0.70086   0.32446   0.48799   0.00000  Uiso   1.00
C22    C     0.67645   0.30649   0.40513   0.00000  Uiso   1.00
C23    C     0.59079   0.32031   0.41353   0.00000  Uiso   1.00
H24    H     0.63648   0.39447   0.72597   0.00000  Uiso   1.00
H25    H     0.66678   0.22657   0.81655   0.00000  Uiso   1.00
H26    H     0.71564   0.57271   0.73316   0.00000  Uiso   1.00
H27    H     0.51053   0.39277   0.65284   0.00000  Uiso   1.00
H28    H     0.72644   0.02691   0.87811   0.00000  Uiso   1.00
H29    H     0.82944   0.75678   0.70228   0.00000  Uiso   1.00
H30    H     0.39691   0.37736   0.53291   0.00000  Uiso   1.00
H31    H     0.83710   0.29015   0.42651   0.00000  Uiso   1.00
H32    H     0.87841   0.11652   0.50065   0.00000  Uiso   1.00
H33    H     0.92727   0.46267   0.41727   0.00000  Uiso   1.00
H34    H     0.72215   0.28273   0.33695   0.00000  Uiso   1.00
H35    H     0.89820   0.93759   0.62172   0.00000  Uiso   1.00
H36    H     0.00120   0.66747   0.44588   0.00000  Uiso   1.00
H37    H     0.56868   0.28804   0.27651   0.00000  Uiso   1.00
O38    O     0.83590   0.86994   0.80410   0.00000  Uiso   1.00
O39    O     0.97102   0.82750   0.57341   0.00000  Uiso   1.00
O40    O     0.40355   0.32971   0.35120   0.00000  Uiso   1.00
N41    N     0.76118   0.02971   0.80759   0.00000  Uiso   1.00
N42    N     0.85749   0.71208   0.64320   0.00000  Uiso   1.00
N43    N     0.45311   0.35738   0.48485   0.00000  Uiso   1.00
N44    N     0.85360   0.98165   0.66963   0.00000  Uiso   1.00
N45    N     0.94991   0.66402   0.50524   0.00000  Uiso   1.00
N46    N     0.54554   0.30932   0.34689   0.00000  Uiso   1.00
C47    C     0.31756   0.37056   0.84264   0.00000  Uiso   1.00
C48    C     0.27328   0.26487   0.83495   0.00000  Uiso   1.00
C49    C     0.28753   0.20278   0.75164   0.00000  Uiso   1.00
C50    C     0.24059   0.10879   0.75957   0.00000  Uiso   1.00
C51    C     0.18079   0.94938   0.73423   0.00000  Uiso   1.00
C52    C     0.24673   0.45293   0.88025   0.00000  Uiso   1.00
C53    C     0.23866   0.54897   0.83503   0.00000  Uiso   1.00
C54    C     0.16937   0.61330   0.88111   0.00000  Uiso   1.00
C55    C     0.06838   0.74589   0.92612   0.00000  Uiso   1.00
C56    C     0.35817   0.35516   0.92389   0.00000  Uiso   1.00
C57    C     0.44381   0.36902   0.91536   0.00000  Uiso   1.00
C58    C     0.46835   0.35105   0.99819   0.00000  Uiso   1.00
C59    C     0.54040   0.33184   0.11095   0.00000  Uiso   1.00
C60    C     0.20887   0.31405   0.00488   0.00000  Uiso   1.00
C61    C     0.21424   0.23418   0.92308   0.00000  Uiso   1.00
C62    C     0.16727   0.14026   0.93115   0.00000  Uiso   1.00
C63    C     0.18145   0.07804   0.84786   0.00000  Uiso   1.00
C64    C     0.18769   0.42224   0.96837   0.00000  Uiso   1.00
C65    C     0.11840   0.48645   0.01453   0.00000  Uiso   1.00
C66    C     0.11023   0.58255   0.96939   0.00000  Uiso   1.00
C67    C     0.29914   0.32446   0.01201   0.00000  Uiso   1.00
C68    C     0.32355   0.30649   0.09487   0.00000  Uiso   1.00
C69    C     0.40921   0.32031   0.08647   0.00000  Uiso   1.00
H70    H     0.36352   0.39447   0.77403   0.00000  Uiso   1.00
H71    H     0.33322   0.22657   0.68345   0.00000  Uiso   1.00
H72    H     0.28436   0.57271   0.76684   0.00000  Uiso   1.00
H73    H     0.48947   0.39277   0.84716   0.00000  Uiso   1.00
H74    H     0.27356   0.02691   0.62189   0.00000  Uiso   1.00
H75    H     0.17056   0.75678   0.79772   0.00000  Uiso   1.00
H76    H     0.60309   0.37736   0.96709   0.00000  Uiso   1.00
H77    H     0.16290   0.29015   0.07349   0.00000  Uiso   1.00
H78    H     0.12159   0.11652   0.99935   0.00000  Uiso   1.00
H79    H     0.07273   0.46267   0.08273   0.00000  Uiso   1.00
H80    H     0.27785   0.28273   0.16305   0.00000  Uiso   1.00
H81    H     0.10180   0.93759   0.87828   0.00000  Uiso   1.00
H82    H     0.99880   0.66747   0.05412   0.00000  Uiso   1.00
H83    H     0.43132   0.28804   0.22349   0.00000  Uiso   1.00
O84    O     0.16410   0.86994   0.69590   0.00000  Uiso   1.00
O85    O     0.02898   0.82750   0.92659   0.00000  Uiso   1.00
O86    O     0.59645   0.32971   0.14880   0.00000  Uiso   1.00
N87    N     0.23882   0.02971   0.69241   0.00000  Uiso   1.00
N88    N     0.14251   0.71208   0.85680   0.00000  Uiso   1.00
N89    N     0.54689   0.35738   0.01515   0.00000  Uiso   1.00
N90    N     0.14640   0.98165   0.83037   0.00000  Uiso   1.00
N91    N     0.05009   0.66402   0.99476   0.00000  Uiso   1.00
N92    N     0.45446   0.30932   0.15311   0.00000  Uiso   1.00
C93    C     0.31756   0.62944   0.34264   0.00000  Uiso   1.00
C94    C     0.27328   0.73513   0.33495   0.00000  Uiso   1.00
C95    C     0.28753   0.79722   0.25164   0.00000  Uiso   1.00
C96    C     0.24059   0.89121   0.25957   0.00000  Uiso   1.00
C97    C     0.18079   0.05062   0.23423   0.00000  Uiso   1.00
C98    C     0.24673   0.54707   0.38025   0.00000  Uiso   1.00
C99    C     0.23866   0.45103   0.33503   0.00000  Uiso   1.00
C100   C     0.16937   0.38670   0.38111   0.00000  Uiso   1.00
C101   C     0.06838   0.25411   0.42612   0.00000  Uiso   1.00
C102   C     0.35817   0.64484   0.42389   0.00000  Uiso   1.00
C103   C     0.44381   0.63098   0.41536   0.00000  Uiso   1.00
C104   C     0.46835   0.64895   0.49819   0.00000  Uiso   1.00
C105   C     0.54040   0.66816   0.61095   0.00000  Uiso   1.00
C106   C     0.20887   0.68595   0.50488   0.00000  Uiso   1.00
C107   C     0.21424   0.76582   0.42308   0.00000  Uiso   1.00
C108   C     0.16727   0.85974   0.43115   0.00000  Uiso   1.00
C109   C     0.18145   0.92196   0.34786   0.00000  Uiso   1.00
C110   C     0.18769   0.57776   0.46837   0.00000  Uiso   1.00
C111   C     0.11840   0.51355   0.51453   0.00000  Uiso   1.00
C112   C     0.11023   0.41745   0.46939   0.00000  Uiso   1.00
C113   C     0.29914   0.67554   0.51201   0.00000  Uiso   1.00
C114   C     0.32355   0.69351   0.59487   0.00000  Uiso   1.00
C115   C     0.40921   0.67969   0.58647   0.00000  Uiso   1.00
H116   H     0.36352   0.60553   0.27403   0.00000  Uiso   1.00
H117   H     0.33322   0.77343   0.18345   0.00000  Uiso   1.00
H118   H     0.28436   0.42729   0.26684   0.00000  Uiso   1.00
H119   H     0.48947   0.60723   0.34716   0.00000  Uiso   1.00
H120   H     0.27356   0.97309   0.12189   0.00000  Uiso   1.00
H121   H     0.17056   0.24322   0.29772   0.00000  Uiso   1.00
H122   H     0.60309   0.62264   0.46709   0.00000  Uiso   1.00
H123   H     0.16290   0.70985   0.57349   0.00000  Uiso   1.00
H124   H     0.12159   0.88348   0.49935   0.00000  Uiso   1.00
H125   H     0.07273   0.53733   0.58273   0.00000  Uiso   1.00
H126   H     0.27785   0.71727   0.66305   0.00000  Uiso   1.00
H127   H     0.10180   0.06241   0.37828   0.00000  Uiso   1.00
H128   H     0.99880   0.33253   0.55412   0.00000  Uiso   1.00
H129   H     0.43132   0.71196   0.72349   0.00000  Uiso   1.00
O130   O     0.16410   0.13006   0.19590   0.00000  Uiso   1.00
O131   O     0.02898   0.17250   0.42659   0.00000  Uiso   1.00
O132   O     0.59645   0.67029   0.64880   0.00000  Uiso   1.00
N133   N     0.23882   0.97029   0.19241   0.00000  Uiso   1.00
N134   N     0.14251   0.28792   0.35680   0.00000  Uiso   1.00
N135   N     0.54689   0.64262   0.51515   0.00000  Uiso   1.00
N136   N     0.14640   0.01835   0.33037   0.00000  Uiso   1.00
N137   N     0.05009   0.33598   0.49476   0.00000  Uiso   1.00
N138   N     0.45446   0.69068   0.65311   0.00000  Uiso   1.00
C139   C     0.68244   0.62944   0.15736   0.00000  Uiso   1.00
C140   C     0.72672   0.73513   0.16505   0.00000  Uiso   1.00
C141   C     0.71247   0.79722   0.24836   0.00000  Uiso   1.00
C142   C     0.75941   0.89121   0.24043   0.00000  Uiso   1.00
C143   C     0.81921   0.05062   0.26577   0.00000  Uiso   1.00
C144   C     0.75327   0.54707   0.11975   0.00000  Uiso   1.00
C145   C     0.76134   0.45103   0.16497   0.00000  Uiso   1.00
C146   C     0.83063   0.38670   0.11889   0.00000  Uiso   1.00
C147   C     0.93162   0.25411   0.07388   0.00000  Uiso   1.00
C148   C     0.64183   0.64484   0.07611   0.00000  Uiso   1.00
C149   C     0.55619   0.63098   0.08464   0.00000  Uiso   1.00
C150   C     0.53165   0.64895   0.00181   0.00000  Uiso   1.00
C151   C     0.45960   0.66816   0.88905   0.00000  Uiso   1.00
C152   C     0.79113   0.68595   0.99512   0.00000  Uiso   1.00
C153   C     0.78576   0.76582   0.07692   0.00000  Uiso   1.00
C154   C     0.83273   0.85974   0.06885   0.00000  Uiso   1.00
C155   C     0.81855   0.92196   0.15214   0.00000  Uiso   1.00
C156   C     0.81231   0.57776   0.03163   0.00000  Uiso   1.00
C157   C     0.88160   0.51355   0.98547   0.00000  Uiso   1.00
C158   C     0.88977   0.41745   0.03061   0.00000  Uiso   1.00
C159   C     0.70086   0.67554   0.98799   0.00000  Uiso   1.00
C160   C     0.67645   0.69351   0.90513   0.00000  Uiso   1.00
C161   C     0.59079   0.67969   0.91353   0.00000  Uiso   1.00
H162   H     0.63648   0.60553   0.22597   0.00000  Uiso   1.00
H163   H     0.66678   0.77343   0.31655   0.00000  Uiso   1.00
H164   H     0.71564   0.42729   0.23316   0.00000  Uiso   1.00
H165   H     0.51053   0.60723   0.15284   0.00000  Uiso   1.00
H166   H     0.72644   0.97309   0.37811   0.00000  Uiso   1.00
H167   H     0.82944   0.24322   0.20228   0.00000  Uiso   1.00
H168   H     0.39691   0.62264   0.03291   0.00000  Uiso   1.00
H169   H     0.83710   0.70985   0.92651   0.00000  Uiso   1.00
H170   H     0.87841   0.88348   0.00065   0.00000  Uiso   1.00
H171   H     0.92727   0.53733   0.91727   0.00000  Uiso   1.00
H172   H     0.72215   0.71727   0.83695   0.00000  Uiso   1.00
H173   H     0.89820   0.06241   0.12172   0.00000  Uiso   1.00
H174   H     0.00120   0.33253   0.94588   0.00000  Uiso   1.00
H175   H     0.56868   0.71196   0.77651   0.00000  Uiso   1.00
O176   O     0.83590   0.13006   0.30410   0.00000  Uiso   1.00
O177   O     0.97102   0.17250   0.07341   0.00000  Uiso   1.00
O178   O     0.40355   0.67029   0.85120   0.00000  Uiso   1.00
N179   N     0.76118   0.97029   0.30759   0.00000  Uiso   1.00
N180   N     0.85749   0.28792   0.14320   0.00000  Uiso   1.00
N181   N     0.45311   0.64262   0.98485   0.00000  Uiso   1.00
N182   N     0.85360   0.01835   0.16963   0.00000  Uiso   1.00
N183   N     0.94991   0.33598   0.00524   0.00000  Uiso   1.00
N184   N     0.54554   0.69068   0.84689   0.00000  Uiso   1.00
