data_job_06009
_audit_creation_date              2018-12-19
_audit_creation_method            'Materials Studio'
_symmetry_space_group_name_H-M    'P1'
_symmetry_Int_Tables_number       1
_symmetry_cell_setting            triclinic
loop_
_symmetry_equiv_pos_as_xyz
  x,y,z
_cell_length_a                    15.8298
_cell_length_b                    15.8225
_cell_length_c                    15.8153
_cell_angle_alpha                 89.7313
_cell_angle_beta                  89.7692
_cell_angle_gamma                 89.8066
loop_
_atom_site_label
_atom_site_type_symbol
_atom_site_fract_x
_atom_site_fract_y
_atom_site_fract_z
_atom_site_U_iso_or_equiv
_atom_site_adp_type
_atom_site_occupancy
C1     C     0.10195   0.48345   0.78534   0.00000  Uiso   1.00
C2     C     0.01283   0.45153   0.76849   0.00000  Uiso   1.00
C3     C     0.98198   0.37235   0.79030   0.00000  Uiso   1.00
C4     C     0.89870   0.35528   0.76935   0.00000  Uiso   1.00
C5     C     0.76802   0.29657   0.74943   0.00000  Uiso   1.00
C6     C     0.13776   0.50986   0.69958   0.00000  Uiso   1.00
C7     C     0.21195   0.47973   0.66347   0.00000  Uiso   1.00
C8     C     0.23383   0.51177   0.58452   0.00000  Uiso   1.00
C9     C     0.29713   0.54366   0.45765   0.00000  Uiso   1.00
C10    C     0.09151   0.56469   0.83587   0.00000  Uiso   1.00
C11    C     0.12682   0.58067   0.91434   0.00000  Uiso   1.00
C12    C     0.10978   0.65889   0.95013   0.00000  Uiso   1.00
C13    C     0.10126   0.77591   0.03486   0.00000  Uiso   1.00
C14    C     0.00891   0.59395   0.70936   0.00000  Uiso   1.00
C15    C     0.96230   0.51155   0.72721   0.00000  Uiso   1.00
C16    C     0.87903   0.49460   0.70623   0.00000  Uiso   1.00
C17    C     0.84806   0.41541   0.72801   0.00000  Uiso   1.00
C18    C     0.08722   0.56988   0.65831   0.00000  Uiso   1.00
C19    C     0.10900   0.60198   0.57940   0.00000  Uiso   1.00
C20    C     0.18320   0.57189   0.54317   0.00000  Uiso   1.00
C21    C     0.04096   0.62471   0.79460   0.00000  Uiso   1.00
C22    C     0.02387   0.70292   0.83027   0.00000  Uiso   1.00
C23    C     0.05915   0.71901   0.90878   0.00000  Uiso   1.00
H24    H     0.14131   0.43673   0.81747   0.00000  Uiso   1.00
H25    H     0.02112   0.32592   0.82223   0.00000  Uiso   1.00
H26    H     0.25105   0.43329   0.69543   0.00000  Uiso   1.00
H27    H     0.16593   0.53421   0.94626   0.00000  Uiso   1.00
H28    H     0.86559   0.22952   0.80929   0.00000  Uiso   1.00
H29    H     0.35043   0.45593   0.54192   0.00000  Uiso   1.00
H30    H     0.17094   0.66875   0.07085   0.00000  Uiso   1.00
H31    H     0.96956   0.64068   0.67722   0.00000  Uiso   1.00
H32    H     0.83994   0.54106   0.67429   0.00000  Uiso   1.00
H33    H     0.06988   0.64842   0.54748   0.00000  Uiso   1.00
H34    H     0.98475   0.74935   0.79831   0.00000  Uiso   1.00
H35    H     0.71854   0.40413   0.68921   0.00000  Uiso   1.00
H36    H     0.20338   0.63055   0.42184   0.00000  Uiso   1.00
H37    H     0.02389   0.84337   0.95077   0.00000  Uiso   1.00
O38    O     0.70991   0.24760   0.74982   0.00000  Uiso   1.00
O39    O     0.34601   0.54466   0.39906   0.00000  Uiso   1.00
O40    O     0.11052   0.82387   0.09300   0.00000  Uiso   1.00
N41    N     0.84876   0.28429   0.78144   0.00000  Uiso   1.00
N42    N     0.30205   0.49596   0.53147   0.00000  Uiso   1.00
N43    N     0.13427   0.69494   0.02596   0.00000  Uiso   1.00
N44    N     0.76964   0.37825   0.71683   0.00000  Uiso   1.00
N45    N     0.22293   0.58992   0.46685   0.00000  Uiso   1.00
N46    N     0.05514   0.78890   0.96135   0.00000  Uiso   1.00
C47    C     0.78536   0.10192   0.48348   0.00000  Uiso   1.00
C48    C     0.76848   0.01278   0.45159   0.00000  Uiso   1.00
C49    C     0.79024   0.98197   0.37240   0.00000  Uiso   1.00
C50    C     0.76927   0.89865   0.35537   0.00000  Uiso   1.00
C51    C     0.74930   0.76794   0.29672   0.00000  Uiso   1.00
C52    C     0.69970   0.13770   0.50984   0.00000  Uiso   1.00
C53    C     0.66363   0.21193   0.47963   0.00000  Uiso   1.00
C54    C     0.58478   0.23377   0.51165   0.00000  Uiso   1.00
C55    C     0.45805   0.29704   0.54347   0.00000  Uiso   1.00
C56    C     0.83587   0.09143   0.56477   0.00000  Uiso   1.00
C57    C     0.91428   0.12678   0.58076   0.00000  Uiso   1.00
C58    C     0.95005   0.10968   0.65904   0.00000  Uiso   1.00
C59    C     0.03474   0.10112   0.77615   0.00000  Uiso   1.00
C60    C     0.70945   0.00873   0.59406   0.00000  Uiso   1.00
C61    C     0.72725   0.96216   0.51166   0.00000  Uiso   1.00
C62    C     0.70625   0.87886   0.49475   0.00000  Uiso   1.00
C63    C     0.72797   0.84794   0.41555   0.00000  Uiso   1.00
C64    C     0.65847   0.08708   0.56991   0.00000  Uiso   1.00
C65    C     0.57965   0.10882   0.60198   0.00000  Uiso   1.00
C66    C     0.54347   0.18306   0.57183   0.00000  Uiso   1.00
C67    C     0.79464   0.04081   0.62484   0.00000  Uiso   1.00
C68    C     0.83029   0.02367   0.70311   0.00000  Uiso   1.00
C69    C     0.90875   0.05898   0.71921   0.00000  Uiso   1.00
H70    H     0.81745   0.14133   0.43672   0.00000  Uiso   1.00
H71    H     0.82214   0.02116   0.32593   0.00000  Uiso   1.00
H72    H     0.69556   0.25109   0.43316   0.00000  Uiso   1.00
H73    H     0.94617   0.16594   0.53427   0.00000  Uiso   1.00
H74    H     0.80912   0.86562   0.22959   0.00000  Uiso   1.00
H75    H     0.54223   0.35045   0.45570   0.00000  Uiso   1.00
H76    H     0.07069   0.17091   0.66891   0.00000  Uiso   1.00
H77    H     0.67735   0.96932   0.64083   0.00000  Uiso   1.00
H78    H     0.67434   0.83971   0.54124   0.00000  Uiso   1.00
H79    H     0.54776   0.06964   0.64847   0.00000  Uiso   1.00
H80    H     0.79837   0.98450   0.74957   0.00000  Uiso   1.00
H81    H     0.68916   0.71835   0.40434   0.00000  Uiso   1.00
H82    H     0.42227   0.20318   0.63045   0.00000  Uiso   1.00
H83    H     0.95073   0.02364   0.84366   0.00000  Uiso   1.00
O84    O     0.74967   0.70983   0.24776   0.00000  Uiso   1.00
O85    O     0.39953   0.34592   0.54442   0.00000  Uiso   1.00
O86    O     0.09285   0.11036   0.82414   0.00000  Uiso   1.00
N87    N     0.78131   0.84874   0.28439   0.00000  Uiso   1.00
N88    N     0.53179   0.30202   0.49578   0.00000  Uiso   1.00
N89    N     0.02584   0.13418   0.69512   0.00000  Uiso   1.00
N90    N     0.71677   0.76950   0.37842   0.00000  Uiso   1.00
N91    N     0.46724   0.22278   0.58981   0.00000  Uiso   1.00
N92    N     0.96129   0.05494   0.78915   0.00000  Uiso   1.00
C93    C     0.48337   0.78528   0.10181   0.00000  Uiso   1.00
C94    C     0.45148   0.76845   0.01262   0.00000  Uiso   1.00
C95    C     0.37236   0.79021   0.98176   0.00000  Uiso   1.00
C96    C     0.35532   0.76929   0.89841   0.00000  Uiso   1.00
C97    C     0.29666   0.74937   0.76764   0.00000  Uiso   1.00
C98    C     0.50970   0.69957   0.13767   0.00000  Uiso   1.00
C99    C     0.47953   0.66343   0.21195   0.00000  Uiso   1.00
C100   C     0.51150   0.58453   0.23386   0.00000  Uiso   1.00
C101   C     0.54327   0.45771   0.29726   0.00000  Uiso   1.00
C102   C     0.56461   0.83585   0.09131   0.00000  Uiso   1.00
C103   C     0.58062   0.91428   0.12663   0.00000  Uiso   1.00
C104   C     0.65883   0.95011   0.10953   0.00000  Uiso   1.00
C105   C     0.77585   0.03488   0.10094   0.00000  Uiso   1.00
C106   C     0.59380   0.70944   0.00867   0.00000  Uiso   1.00
C107   C     0.51146   0.72725   0.96204   0.00000  Uiso   1.00
C108   C     0.49454   0.70629   0.87871   0.00000  Uiso   1.00
C109   C     0.41540   0.72802   0.84773   0.00000  Uiso   1.00
C110   C     0.56968   0.65837   0.08708   0.00000  Uiso   1.00
C111   C     0.60170   0.57951   0.10889   0.00000  Uiso   1.00
C112   C     0.57159   0.54326   0.18318   0.00000  Uiso   1.00
C113   C     0.62459   0.79465   0.04071   0.00000  Uiso   1.00
C114   C     0.70279   0.83036   0.02357   0.00000  Uiso   1.00
C115   C     0.71892   0.90884   0.05884   0.00000  Uiso   1.00
H116   H     0.43668   0.81735   0.14120   0.00000  Uiso   1.00
H117   H     0.32596   0.82208   0.02094   0.00000  Uiso   1.00
H118   H     0.43312   0.69533   0.25109   0.00000  Uiso   1.00
H119   H     0.53419   0.94614   0.16577   0.00000  Uiso   1.00
H120   H     0.22965   0.80913   0.86530   0.00000  Uiso   1.00
H121   H     0.45562   0.54188   0.35060   0.00000  Uiso   1.00
H122   H     0.66875   0.07076   0.17071   0.00000  Uiso   1.00
H123   H     0.64050   0.67736   0.96928   0.00000  Uiso   1.00
H124   H     0.54096   0.67441   0.83957   0.00000  Uiso   1.00
H125   H     0.64812   0.54765   0.06973   0.00000  Uiso   1.00
H126   H     0.74919   0.79846   0.98441   0.00000  Uiso   1.00
H127   H     0.40415   0.68927   0.71810   0.00000  Uiso   1.00
H128   H     0.63013   0.42201   0.20341   0.00000  Uiso   1.00
H129   H     0.84325   0.95090   0.02350   0.00000  Uiso   1.00
O130   O     0.24774   0.74976   0.70949   0.00000  Uiso   1.00
O131   O     0.54421   0.39914   0.34620   0.00000  Uiso   1.00
O132   O     0.82383   0.09302   0.11017   0.00000  Uiso   1.00
N133   N     0.28438   0.78134   0.84845   0.00000  Uiso   1.00
N134   N     0.49565   0.53147   0.30218   0.00000  Uiso   1.00
N135   N     0.69491   0.02592   0.13400   0.00000  Uiso   1.00
N136   N     0.37828   0.71684   0.76924   0.00000  Uiso   1.00
N137   N     0.58954   0.46697   0.22297   0.00000  Uiso   1.00
N138   N     0.78881   0.96143   0.05479   0.00000  Uiso   1.00
C139   C     0.89805   0.51655   0.21466   0.00000  Uiso   1.00
C140   C     0.98717   0.54847   0.23151   0.00000  Uiso   1.00
C141   C     0.01802   0.62765   0.20970   0.00000  Uiso   1.00
C142   C     0.10130   0.64472   0.23065   0.00000  Uiso   1.00
C143   C     0.23198   0.70343   0.25057   0.00000  Uiso   1.00
C144   C     0.86224   0.49014   0.30042   0.00000  Uiso   1.00
C145   C     0.78805   0.52027   0.33653   0.00000  Uiso   1.00
C146   C     0.76617   0.48823   0.41548   0.00000  Uiso   1.00
C147   C     0.70287   0.45634   0.54235   0.00000  Uiso   1.00
C148   C     0.90849   0.43531   0.16413   0.00000  Uiso   1.00
C149   C     0.87318   0.41933   0.08566   0.00000  Uiso   1.00
C150   C     0.89022   0.34111   0.04987   0.00000  Uiso   1.00
C151   C     0.89874   0.22409   0.96514   0.00000  Uiso   1.00
C152   C     0.99109   0.40605   0.29064   0.00000  Uiso   1.00
C153   C     0.03770   0.48845   0.27279   0.00000  Uiso   1.00
C154   C     0.12097   0.50540   0.29377   0.00000  Uiso   1.00
C155   C     0.15194   0.58459   0.27199   0.00000  Uiso   1.00
C156   C     0.91278   0.43012   0.34169   0.00000  Uiso   1.00
C157   C     0.89100   0.39802   0.42060   0.00000  Uiso   1.00
C158   C     0.81680   0.42811   0.45683   0.00000  Uiso   1.00
C159   C     0.95904   0.37529   0.20540   0.00000  Uiso   1.00
C160   C     0.97613   0.29708   0.16973   0.00000  Uiso   1.00
C161   C     0.94085   0.28099   0.09122   0.00000  Uiso   1.00
H162   H     0.85869   0.56327   0.18253   0.00000  Uiso   1.00
H163   H     0.97888   0.67408   0.17777   0.00000  Uiso   1.00
H164   H     0.74895   0.56671   0.30457   0.00000  Uiso   1.00
H165   H     0.83407   0.46579   0.05374   0.00000  Uiso   1.00
H166   H     0.13441   0.77048   0.19071   0.00000  Uiso   1.00
H167   H     0.64957   0.54407   0.45808   0.00000  Uiso   1.00
H168   H     0.82906   0.33125   0.92915   0.00000  Uiso   1.00
H169   H     0.03044   0.35932   0.32278   0.00000  Uiso   1.00
H170   H     0.16006   0.45894   0.32571   0.00000  Uiso   1.00
H171   H     0.93012   0.35158   0.45252   0.00000  Uiso   1.00
H172   H     0.01525   0.25065   0.20169   0.00000  Uiso   1.00
H173   H     0.28146   0.59587   0.31079   0.00000  Uiso   1.00
H174   H     0.79662   0.36945   0.57816   0.00000  Uiso   1.00
H175   H     0.97611   0.15663   0.04923   0.00000  Uiso   1.00
O176   O     0.29009   0.75240   0.25018   0.00000  Uiso   1.00
O177   O     0.65399   0.45534   0.60094   0.00000  Uiso   1.00
O178   O     0.88948   0.17613   0.90700   0.00000  Uiso   1.00
N179   N     0.15124   0.71571   0.21856   0.00000  Uiso   1.00
N180   N     0.69795   0.50404   0.46853   0.00000  Uiso   1.00
N181   N     0.86573   0.30506   0.97404   0.00000  Uiso   1.00
N182   N     0.23036   0.62175   0.28317   0.00000  Uiso   1.00
N183   N     0.77707   0.41008   0.53315   0.00000  Uiso   1.00
N184   N     0.94486   0.21110   0.03865   0.00000  Uiso   1.00
C185   C     0.21464   0.89808   0.51652   0.00000  Uiso   1.00
C186   C     0.23152   0.98722   0.54841   0.00000  Uiso   1.00
C187   C     0.20976   0.01803   0.62760   0.00000  Uiso   1.00
C188   C     0.23073   0.10135   0.64463   0.00000  Uiso   1.00
C189   C     0.25070   0.23206   0.70328   0.00000  Uiso   1.00
C190   C     0.30030   0.86230   0.49016   0.00000  Uiso   1.00
C191   C     0.33637   0.78807   0.52037   0.00000  Uiso   1.00
C192   C     0.41522   0.76623   0.48835   0.00000  Uiso   1.00
C193   C     0.54195   0.70296   0.45653   0.00000  Uiso   1.00
C194   C     0.16413   0.90857   0.43523   0.00000  Uiso   1.00
C195   C     0.08572   0.87322   0.41924   0.00000  Uiso   1.00
C196   C     0.04995   0.89032   0.34096   0.00000  Uiso   1.00
C197   C     0.96526   0.89888   0.22385   0.00000  Uiso   1.00
C198   C     0.29055   0.99127   0.40594   0.00000  Uiso   1.00
C199   C     0.27275   0.03784   0.48834   0.00000  Uiso   1.00
C200   C     0.29375   0.12114   0.50525   0.00000  Uiso   1.00
C201   C     0.27203   0.15206   0.58445   0.00000  Uiso   1.00
C202   C     0.34153   0.91292   0.43009   0.00000  Uiso   1.00
C203   C     0.42035   0.89118   0.39802   0.00000  Uiso   1.00
C204   C     0.45653   0.81694   0.42817   0.00000  Uiso   1.00
C205   C     0.20536   0.95919   0.37516   0.00000  Uiso   1.00
C206   C     0.16971   0.97633   0.29689   0.00000  Uiso   1.00
C207   C     0.09125   0.94102   0.28079   0.00000  Uiso   1.00
H208   H     0.18255   0.85867   0.56328   0.00000  Uiso   1.00
H209   H     0.17786   0.97884   0.67407   0.00000  Uiso   1.00
H210   H     0.30444   0.74891   0.56684   0.00000  Uiso   1.00
H211   H     0.05383   0.83406   0.46573   0.00000  Uiso   1.00
H212   H     0.19088   0.13438   0.77041   0.00000  Uiso   1.00
H213   H     0.45776   0.64955   0.54430   0.00000  Uiso   1.00
H214   H     0.92931   0.82909   0.33109   0.00000  Uiso   1.00
H215   H     0.32265   0.03068   0.35917   0.00000  Uiso   1.00
H216   H     0.32566   0.16029   0.45876   0.00000  Uiso   1.00
H217   H     0.45224   0.93036   0.35153   0.00000  Uiso   1.00
H218   H     0.20163   0.01550   0.25042   0.00000  Uiso   1.00
H219   H     0.31084   0.28165   0.59566   0.00000  Uiso   1.00
H220   H     0.57773   0.79682   0.36955   0.00000  Uiso   1.00
H221   H     0.04927   0.97636   0.15634   0.00000  Uiso   1.00
O222   O     0.25033   0.29017   0.75224   0.00000  Uiso   1.00
O223   O     0.60047   0.65408   0.45558   0.00000  Uiso   1.00
O224   O     0.90715   0.88964   0.17586   0.00000  Uiso   1.00
N225   N     0.21869   0.15126   0.71561   0.00000  Uiso   1.00
N226   N     0.46821   0.69798   0.50422   0.00000  Uiso   1.00
N227   N     0.97416   0.86582   0.30488   0.00000  Uiso   1.00
N228   N     0.28323   0.23050   0.62158   0.00000  Uiso   1.00
N229   N     0.53276   0.77722   0.41019   0.00000  Uiso   1.00
N230   N     0.03871   0.94506   0.21085   0.00000  Uiso   1.00
C231   C     0.51663   0.21472   0.89819   0.00000  Uiso   1.00
C232   C     0.54852   0.23155   0.98738   0.00000  Uiso   1.00
C233   C     0.62764   0.20979   0.01824   0.00000  Uiso   1.00
C234   C     0.64468   0.23071   0.10159   0.00000  Uiso   1.00
C235   C     0.70334   0.25063   0.23236   0.00000  Uiso   1.00
C236   C     0.49030   0.30043   0.86233   0.00000  Uiso   1.00
C237   C     0.52047   0.33657   0.78805   0.00000  Uiso   1.00
C238   C     0.48850   0.41547   0.76614   0.00000  Uiso   1.00
C239   C     0.45673   0.54229   0.70275   0.00000  Uiso   1.00
C240   C     0.43539   0.16415   0.90869   0.00000  Uiso   1.00
C241   C     0.41938   0.08572   0.87337   0.00000  Uiso   1.00
C242   C     0.34117   0.04989   0.89047   0.00000  Uiso   1.00
C243   C     0.22415   0.96512   0.89906   0.00000  Uiso   1.00
C244   C     0.40620   0.29056   0.99133   0.00000  Uiso   1.00
C245   C     0.48854   0.27275   0.03796   0.00000  Uiso   1.00
C246   C     0.50546   0.29371   0.12129   0.00000  Uiso   1.00
C247   C     0.58460   0.27198   0.15227   0.00000  Uiso   1.00
C248   C     0.43032   0.34163   0.91292   0.00000  Uiso   1.00
C249   C     0.39830   0.42049   0.89111   0.00000  Uiso   1.00
C250   C     0.42841   0.45674   0.81682   0.00000  Uiso   1.00
C251   C     0.37541   0.20535   0.95929   0.00000  Uiso   1.00
C252   C     0.29721   0.16964   0.97643   0.00000  Uiso   1.00
C253   C     0.28108   0.09116   0.94116   0.00000  Uiso   1.00
H254   H     0.56332   0.18265   0.85880   0.00000  Uiso   1.00
H255   H     0.67404   0.17792   0.97906   0.00000  Uiso   1.00
H256   H     0.56688   0.30467   0.74891   0.00000  Uiso   1.00
H257   H     0.46581   0.05386   0.83423   0.00000  Uiso   1.00
H258   H     0.77035   0.19087   0.13470   0.00000  Uiso   1.00
H259   H     0.54438   0.45812   0.64940   0.00000  Uiso   1.00
H260   H     0.33125   0.92924   0.82930   0.00000  Uiso   1.00
H261   H     0.35950   0.32264   0.03072   0.00000  Uiso   1.00
H262   H     0.45903   0.32559   0.16043   0.00000  Uiso   1.00
H263   H     0.35188   0.45235   0.93027   0.00000  Uiso   1.00
H264   H     0.25081   0.20154   0.01559   0.00000  Uiso   1.00
H265   H     0.59585   0.31073   0.28190   0.00000  Uiso   1.00
H266   H     0.36987   0.57799   0.79659   0.00000  Uiso   1.00
H267   H     0.15675   0.04910   0.97650   0.00000  Uiso   1.00
O268   O     0.75226   0.25024   0.29051   0.00000  Uiso   1.00
O269   O     0.45579   0.60086   0.65381   0.00000  Uiso   1.00
O270   O     0.17617   0.90697   0.88983   0.00000  Uiso   1.00
N271   N     0.71561   0.21866   0.15155   0.00000  Uiso   1.00
N272   N     0.50435   0.46853   0.69783   0.00000  Uiso   1.00
N273   N     0.30509   0.97408   0.86600   0.00000  Uiso   1.00
N274   N     0.62172   0.28316   0.23076   0.00000  Uiso   1.00
N275   N     0.41046   0.53303   0.77703   0.00000  Uiso   1.00
N276   N     0.21119   0.03857   0.94521   0.00000  Uiso   1.00
