data_job_06072
_audit_creation_date              2018-12-19
_audit_creation_method            'Materials Studio'
_symmetry_space_group_name_H-M    'P1'
_symmetry_Int_Tables_number       1
_symmetry_cell_setting            triclinic
loop_
_symmetry_equiv_pos_as_xyz
  x,y,z
_cell_length_a                    17.4997
_cell_length_b                    17.1189
_cell_length_c                    16.9723
_cell_angle_alpha                 105.7920
_cell_angle_beta                  105.6340
_cell_angle_gamma                 106.0510
loop_
_atom_site_label
_atom_site_type_symbol
_atom_site_fract_x
_atom_site_fract_y
_atom_site_fract_z
_atom_site_U_iso_or_equiv
_atom_site_adp_type
_atom_site_occupancy
C1     C     0.68294   0.33412   0.85555   0.00000  Uiso   1.00
C2     C     0.75867   0.39125   0.84235   0.00000  Uiso   1.00
C3     C     0.78209   0.36855   0.77002   0.00000  Uiso   1.00
C4     C     0.85340   0.42990   0.77040   0.00000  Uiso   1.00
C5     C     0.96399   0.50625   0.73924   0.00000  Uiso   1.00
C6     C     0.72005   0.32506   0.94333   0.00000  Uiso   1.00
C7     C     0.71100   0.24671   0.95590   0.00000  Uiso   1.00
C8     C     0.74979   0.25235   0.04129   0.00000  Uiso   1.00
C9     C     0.80038   0.22595   0.16692   0.00000  Uiso   1.00
C10    C     0.62834   0.38837   0.86958   0.00000  Uiso   1.00
C11    C     0.54216   0.36324   0.82014   0.00000  Uiso   1.00
C12    C     0.50373   0.42218   0.84345   0.00000  Uiso   1.00
C13    C     0.41192   0.49407   0.85455   0.00000  Uiso   1.00
C14    C     0.76792   0.48345   0.98485   0.00000  Uiso   1.00
C15    C     0.80482   0.47236   0.91259   0.00000  Uiso   1.00
C16    C     0.87611   0.53376   0.91307   0.00000  Uiso   1.00
C17    C     0.89964   0.51116   0.84075   0.00000  Uiso   1.00
C18    C     0.76621   0.40617   0.01356   0.00000  Uiso   1.00
C19    C     0.80502   0.41193   0.09895   0.00000  Uiso   1.00
C20    C     0.79604   0.33361   0.11165   0.00000  Uiso   1.00
C21    C     0.67449   0.46948   0.93980   0.00000  Uiso   1.00
C22    C     0.63619   0.52846   0.96319   0.00000  Uiso   1.00
C23    C     0.54997   0.50343   0.91380   0.00000  Uiso   1.00
H24    H     0.64700   0.27097   0.80088   0.00000  Uiso   1.00
H25    H     0.74636   0.30577   0.71569   0.00000  Uiso   1.00
H26    H     0.67527   0.18395   0.90155   0.00000  Uiso   1.00
H27    H     0.50646   0.30047   0.76580   0.00000  Uiso   1.00
H28    H     0.87689   0.38010   0.65223   0.00000  Uiso   1.00
H29    H     0.72697   0.12325   0.04412   0.00000  Uiso   1.00
H30    H     0.37100   0.36895   0.75788   0.00000  Uiso   1.00
H31    H     0.80386   0.54660   0.03953   0.00000  Uiso   1.00
H32    H     0.91182   0.59652   0.96743   0.00000  Uiso   1.00
H33    H     0.84073   0.47471   0.15328   0.00000  Uiso   1.00
H34    H     0.67192   0.59122   0.01754   0.00000  Uiso   1.00
H35    H     0.01119   0.61609   0.85655   0.00000  Uiso   1.00
H36    H     0.86126   0.35924   0.24844   0.00000  Uiso   1.00
H37    H     0.50530   0.60494   0.96220   0.00000  Uiso   1.00
O38    O     0.01225   0.52595   0.70267   0.00000  Uiso   1.00
O39    O     0.81554   0.18898   0.21681   0.00000  Uiso   1.00
O40    O     0.34853   0.51133   0.84127   0.00000  Uiso   1.00
N41    N     0.89367   0.42880   0.71020   0.00000  Uiso   1.00
N42    N     0.75351   0.18866   0.07659   0.00000  Uiso   1.00
N43    N     0.42071   0.41835   0.80900   0.00000  Uiso   1.00
N44    N     0.96593   0.55578   0.82014   0.00000  Uiso   1.00
N45    N     0.82578   0.31564   0.18653   0.00000  Uiso   1.00
N46    N     0.49297   0.54534   0.91894   0.00000  Uiso   1.00
C47    C     0.86361   0.68777   0.33700   0.00000  Uiso   1.00
C48    C     0.85224   0.76555   0.39523   0.00000  Uiso   1.00
C49    C     0.78277   0.79040   0.37331   0.00000  Uiso   1.00
C50    C     0.78443   0.86349   0.43561   0.00000  Uiso   1.00
C51    C     0.75634   0.97722   0.51363   0.00000  Uiso   1.00
C52    C     0.94877   0.72511   0.32707   0.00000  Uiso   1.00
C53    C     0.96046   0.71595   0.24783   0.00000  Uiso   1.00
C54    C     0.04339   0.75500   0.25275   0.00000  Uiso   1.00
C55    C     0.16518   0.80588   0.22496   0.00000  Uiso   1.00
C56    C     0.87651   0.63132   0.39125   0.00000  Uiso   1.00
C57    C     0.82746   0.54330   0.36597   0.00000  Uiso   1.00
C58    C     0.84957   0.50337   0.42492   0.00000  Uiso   1.00
C59    C     0.85917   0.40863   0.49678   0.00000  Uiso   1.00
C60    C     0.99011   0.77338   0.48663   0.00000  Uiso   1.00
C61    C     0.92095   0.81205   0.47650   0.00000  Uiso   1.00
C62    C     0.92272   0.88512   0.53885   0.00000  Uiso   1.00
C63    C     0.85326   0.91008   0.51702   0.00000  Uiso   1.00
C64    C     0.01748   0.77161   0.40833   0.00000  Uiso   1.00
C65    C     0.10042   0.81067   0.41337   0.00000  Uiso   1.00
C66    C     0.11223   0.80158   0.33417   0.00000  Uiso   1.00
C67    C     0.94522   0.67782   0.47252   0.00000  Uiso   1.00
C68    C     0.96742   0.63802   0.53152   0.00000  Uiso   1.00
C69    C     0.91841   0.54995   0.50634   0.00000  Uiso   1.00
H70    H     0.81012   0.65157   0.27373   0.00000  Uiso   1.00
H71    H     0.72961   0.75440   0.31040   0.00000  Uiso   1.00
H72    H     0.90728   0.67996   0.18495   0.00000  Uiso   1.00
H73    H     0.77430   0.50733   0.30308   0.00000  Uiso   1.00
H74    H     0.67066   0.88894   0.38689   0.00000  Uiso   1.00
H75    H     0.04529   0.73194   0.12236   0.00000  Uiso   1.00
H76    H     0.76488   0.36793   0.37145   0.00000  Uiso   1.00
H77    H     0.04361   0.80958   0.54990   0.00000  Uiso   1.00
H78    H     0.97590   0.92109   0.60174   0.00000  Uiso   1.00
H79    H     0.15357   0.84665   0.47628   0.00000  Uiso   1.00
H80    H     0.02059   0.67402   0.59440   0.00000  Uiso   1.00
H81    H     0.87056   0.02424   0.62334   0.00000  Uiso   1.00
H82    H     0.24519   0.86723   0.35881   0.00000  Uiso   1.00
H83    H     0.96478   0.50322   0.60791   0.00000  Uiso   1.00
O84    O     0.72187   0.02711   0.53422   0.00000  Uiso   1.00
O85    O     0.21337   0.82112   0.18717   0.00000  Uiso   1.00
O86    O     0.84548   0.34354   0.51397   0.00000  Uiso   1.00
N87    N     0.72699   0.90547   0.43543   0.00000  Uiso   1.00
N88    N     0.07725   0.75870   0.18812   0.00000  Uiso   1.00
N89    N     0.81510   0.41837   0.42098   0.00000  Uiso   1.00
N90    N     0.83455   0.97827   0.56267   0.00000  Uiso   1.00
N91    N     0.18481   0.83150   0.31535   0.00000  Uiso   1.00
N92    N     0.92266   0.49116   0.54822   0.00000  Uiso   1.00
C93    C     0.33754   0.85782   0.68641   0.00000  Uiso   1.00
C94    C     0.39380   0.84531   0.76412   0.00000  Uiso   1.00
C95    C     0.37172   0.77402   0.78904   0.00000  Uiso   1.00
C96    C     0.43208   0.77488   0.86205   0.00000  Uiso   1.00
C97    C     0.50732   0.74487   0.97570   0.00000  Uiso   1.00
C98    C     0.32938   0.94534   0.72469   0.00000  Uiso   1.00
C99    C     0.25313   0.95814   0.71644   0.00000  Uiso   1.00
C100   C     0.25927   0.04321   0.75625   0.00000  Uiso   1.00
C101   C     0.23449   0.16850   0.80862   0.00000  Uiso   1.00
C102   C     0.38983   0.87076   0.62891   0.00000  Uiso   1.00
C103   C     0.36439   0.82088   0.54012   0.00000  Uiso   1.00
C104   C     0.42141   0.84318   0.49929   0.00000  Uiso   1.00
C105   C     0.49048   0.85268   0.40295   0.00000  Uiso   1.00
C106   C     0.48403   0.98613   0.77176   0.00000  Uiso   1.00
C107   C     0.47337   0.91501   0.81048   0.00000  Uiso   1.00
C108   C     0.53379   0.91598   0.88348   0.00000  Uiso   1.00
C109   C     0.51179   0.84470   0.90850   0.00000  Uiso   1.00
C110   C     0.40894   0.01503   0.77105   0.00000  Uiso   1.00
C111   C     0.41520   0.10010   0.81088   0.00000  Uiso   1.00
C112   C     0.33898   0.11303   0.80270   0.00000  Uiso   1.00
C113   C     0.46940   0.94045   0.67527   0.00000  Uiso   1.00
C114   C     0.52646   0.96284   0.63457   0.00000  Uiso   1.00
C115   C     0.50112   0.91300   0.54574   0.00000  Uiso   1.00
H116   H     0.27560   0.80357   0.65031   0.00000  Uiso   1.00
H117   H     0.31013   0.72010   0.75315   0.00000  Uiso   1.00
H118   H     0.19157   0.90420   0.68055   0.00000  Uiso   1.00
H119   H     0.30281   0.76695   0.50427   0.00000  Uiso   1.00
H120   H     0.38349   0.65831   0.88763   0.00000  Uiso   1.00
H121   H     0.13349   0.04649   0.73452   0.00000  Uiso   1.00
H122   H     0.36808   0.75709   0.36279   0.00000  Uiso   1.00
H123   H     0.54598   0.04040   0.80786   0.00000  Uiso   1.00
H124   H     0.59535   0.96992   0.91934   0.00000  Uiso   1.00
H125   H     0.47678   0.15402   0.84675   0.00000  Uiso   1.00
H126   H     0.58803   0.01677   0.67046   0.00000  Uiso   1.00
H127   H     0.61499   0.86107   0.02252   0.00000  Uiso   1.00
H128   H     0.36498   0.24926   0.86941   0.00000  Uiso   1.00
H129   H     0.59957   0.95985   0.49769   0.00000  Uiso   1.00
O130   O     0.52683   0.70907   0.02558   0.00000  Uiso   1.00
O131   O     0.19884   0.21835   0.82470   0.00000  Uiso   1.00
O132   O     0.50661   0.83866   0.33701   0.00000  Uiso   1.00
N133   N     0.43121   0.71569   0.90406   0.00000  Uiso   1.00
N134   N     0.19747   0.07862   0.76093   0.00000  Uiso   1.00
N135   N     0.41678   0.80806   0.41339   0.00000  Uiso   1.00
N136   N     0.55577   0.82480   0.97665   0.00000  Uiso   1.00
N137   N     0.32203   0.18773   0.83352   0.00000  Uiso   1.00
N138   N     0.54134   0.91717   0.48597   0.00000  Uiso   1.00
C139   C     0.31706   0.66588   0.14445   0.00000  Uiso   1.00
C140   C     0.24133   0.60875   0.15765   0.00000  Uiso   1.00
C141   C     0.21791   0.63145   0.22998   0.00000  Uiso   1.00
C142   C     0.14660   0.57010   0.22960   0.00000  Uiso   1.00
C143   C     0.03601   0.49375   0.26076   0.00000  Uiso   1.00
C144   C     0.27995   0.67494   0.05667   0.00000  Uiso   1.00
C145   C     0.28900   0.75329   0.04410   0.00000  Uiso   1.00
C146   C     0.25020   0.74765   0.95871   0.00000  Uiso   1.00
C147   C     0.19962   0.77405   0.83308   0.00000  Uiso   1.00
C148   C     0.37166   0.61163   0.13042   0.00000  Uiso   1.00
C149   C     0.45784   0.63676   0.17986   0.00000  Uiso   1.00
C150   C     0.49627   0.57782   0.15655   0.00000  Uiso   1.00
C151   C     0.58808   0.50593   0.14545   0.00000  Uiso   1.00
C152   C     0.23208   0.51655   0.01515   0.00000  Uiso   1.00
C153   C     0.19518   0.52764   0.08741   0.00000  Uiso   1.00
C154   C     0.12389   0.46624   0.08693   0.00000  Uiso   1.00
C155   C     0.10036   0.48884   0.15925   0.00000  Uiso   1.00
C156   C     0.23379   0.59383   0.98644   0.00000  Uiso   1.00
C157   C     0.19498   0.58807   0.90105   0.00000  Uiso   1.00
C158   C     0.20396   0.66639   0.88835   0.00000  Uiso   1.00
C159   C     0.32551   0.53052   0.06020   0.00000  Uiso   1.00
C160   C     0.36381   0.47154   0.03681   0.00000  Uiso   1.00
C161   C     0.45003   0.49657   0.08620   0.00000  Uiso   1.00
H162   H     0.35300   0.72903   0.19912   0.00000  Uiso   1.00
H163   H     0.25364   0.69423   0.28431   0.00000  Uiso   1.00
H164   H     0.32473   0.81605   0.09845   0.00000  Uiso   1.00
H165   H     0.49354   0.69953   0.23420   0.00000  Uiso   1.00
H166   H     0.12311   0.61990   0.34777   0.00000  Uiso   1.00
H167   H     0.27303   0.87675   0.95588   0.00000  Uiso   1.00
H168   H     0.62900   0.63105   0.24212   0.00000  Uiso   1.00
H169   H     0.19614   0.45340   0.96047   0.00000  Uiso   1.00
H170   H     0.08818   0.40348   0.03257   0.00000  Uiso   1.00
H171   H     0.15927   0.52529   0.84672   0.00000  Uiso   1.00
H172   H     0.32808   0.40878   0.98246   0.00000  Uiso   1.00
H173   H     0.98881   0.38391   0.14345   0.00000  Uiso   1.00
H174   H     0.13874   0.64076   0.75156   0.00000  Uiso   1.00
H175   H     0.49470   0.39506   0.03780   0.00000  Uiso   1.00
O176   O     0.98775   0.47405   0.29733   0.00000  Uiso   1.00
O177   O     0.18446   0.81102   0.78319   0.00000  Uiso   1.00
O178   O     0.65147   0.48867   0.15873   0.00000  Uiso   1.00
N179   N     0.10633   0.57120   0.28980   0.00000  Uiso   1.00
N180   N     0.24649   0.81134   0.92341   0.00000  Uiso   1.00
N181   N     0.57929   0.58165   0.19100   0.00000  Uiso   1.00
N182   N     0.03407   0.44422   0.17986   0.00000  Uiso   1.00
N183   N     0.17422   0.68436   0.81347   0.00000  Uiso   1.00
N184   N     0.50703   0.45466   0.08106   0.00000  Uiso   1.00
C185   C     0.13639   0.31223   0.66300   0.00000  Uiso   1.00
C186   C     0.14776   0.23445   0.60477   0.00000  Uiso   1.00
C187   C     0.21723   0.20960   0.62669   0.00000  Uiso   1.00
C188   C     0.21557   0.13651   0.56439   0.00000  Uiso   1.00
C189   C     0.24366   0.02278   0.48636   0.00000  Uiso   1.00
C190   C     0.05123   0.27489   0.67293   0.00000  Uiso   1.00
C191   C     0.03954   0.28405   0.75217   0.00000  Uiso   1.00
C192   C     0.95661   0.24500   0.74725   0.00000  Uiso   1.00
C193   C     0.83482   0.19412   0.77504   0.00000  Uiso   1.00
C194   C     0.12349   0.36868   0.60875   0.00000  Uiso   1.00
C195   C     0.17254   0.45670   0.63403   0.00000  Uiso   1.00
C196   C     0.15043   0.49663   0.57508   0.00000  Uiso   1.00
C197   C     0.14083   0.59137   0.50322   0.00000  Uiso   1.00
C198   C     0.00989   0.22662   0.51337   0.00000  Uiso   1.00
C199   C     0.07905   0.18795   0.52350   0.00000  Uiso   1.00
C200   C     0.07728   0.11488   0.46115   0.00000  Uiso   1.00
C201   C     0.14674   0.08992   0.48298   0.00000  Uiso   1.00
C202   C     0.98252   0.22839   0.59167   0.00000  Uiso   1.00
C203   C     0.89958   0.18933   0.58663   0.00000  Uiso   1.00
C204   C     0.88777   0.19842   0.66583   0.00000  Uiso   1.00
C205   C     0.05478   0.32218   0.52748   0.00000  Uiso   1.00
C206   C     0.03258   0.36198   0.46848   0.00000  Uiso   1.00
C207   C     0.08159   0.45005   0.49366   0.00000  Uiso   1.00
H208   H     0.18988   0.34843   0.72627   0.00000  Uiso   1.00
H209   H     0.27039   0.24560   0.68960   0.00000  Uiso   1.00
H210   H     0.09272   0.32004   0.81505   0.00000  Uiso   1.00
H211   H     0.22570   0.49267   0.69692   0.00000  Uiso   1.00
H212   H     0.32934   0.11106   0.61311   0.00000  Uiso   1.00
H213   H     0.95471   0.26806   0.87764   0.00000  Uiso   1.00
H214   H     0.23512   0.63207   0.62855   0.00000  Uiso   1.00
H215   H     0.95639   0.19042   0.45010   0.00000  Uiso   1.00
H216   H     0.02410   0.07891   0.39826   0.00000  Uiso   1.00
H217   H     0.84643   0.15335   0.52372   0.00000  Uiso   1.00
H218   H     0.97941   0.32598   0.40560   0.00000  Uiso   1.00
H219   H     0.12944   0.97576   0.37666   0.00000  Uiso   1.00
H220   H     0.75481   0.13277   0.64119   0.00000  Uiso   1.00
H221   H     0.03522   0.49678   0.39209   0.00000  Uiso   1.00
O222   O     0.27813   0.97289   0.46578   0.00000  Uiso   1.00
O223   O     0.78663   0.17888   0.81283   0.00000  Uiso   1.00
O224   O     0.15452   0.65646   0.48603   0.00000  Uiso   1.00
N225   N     0.27301   0.09453   0.56457   0.00000  Uiso   1.00
N226   N     0.92275   0.24130   0.81188   0.00000  Uiso   1.00
N227   N     0.18490   0.58163   0.57902   0.00000  Uiso   1.00
N228   N     0.16545   0.02173   0.43733   0.00000  Uiso   1.00
N229   N     0.81519   0.16850   0.68465   0.00000  Uiso   1.00
N230   N     0.07734   0.50884   0.45178   0.00000  Uiso   1.00
C231   C     0.66246   0.14218   0.31359   0.00000  Uiso   1.00
C232   C     0.60620   0.15469   0.23588   0.00000  Uiso   1.00
C233   C     0.62828   0.22598   0.21096   0.00000  Uiso   1.00
C234   C     0.56792   0.22512   0.13795   0.00000  Uiso   1.00
C235   C     0.49268   0.25513   0.02430   0.00000  Uiso   1.00
C236   C     0.67062   0.05466   0.27531   0.00000  Uiso   1.00
C237   C     0.74687   0.04186   0.28356   0.00000  Uiso   1.00
C238   C     0.74073   0.95679   0.24375   0.00000  Uiso   1.00
C239   C     0.76551   0.83150   0.19138   0.00000  Uiso   1.00
C240   C     0.61017   0.12924   0.37109   0.00000  Uiso   1.00
C241   C     0.63561   0.17912   0.45988   0.00000  Uiso   1.00
C242   C     0.57859   0.15682   0.50071   0.00000  Uiso   1.00
C243   C     0.50952   0.14732   0.59705   0.00000  Uiso   1.00
C244   C     0.51597   0.01387   0.22824   0.00000  Uiso   1.00
C245   C     0.52663   0.08499   0.18952   0.00000  Uiso   1.00
C246   C     0.46621   0.08402   0.11652   0.00000  Uiso   1.00
C247   C     0.48821   0.15530   0.09150   0.00000  Uiso   1.00
C248   C     0.59106   0.98497   0.22895   0.00000  Uiso   1.00
C249   C     0.58480   0.89990   0.18912   0.00000  Uiso   1.00
C250   C     0.66102   0.88697   0.19730   0.00000  Uiso   1.00
C251   C     0.53060   0.05955   0.32473   0.00000  Uiso   1.00
C252   C     0.47354   0.03716   0.36543   0.00000  Uiso   1.00
C253   C     0.49888   0.08700   0.45426   0.00000  Uiso   1.00
H254   H     0.72440   0.19643   0.34969   0.00000  Uiso   1.00
H255   H     0.68987   0.27990   0.24685   0.00000  Uiso   1.00
H256   H     0.80843   0.09580   0.31945   0.00000  Uiso   1.00
H257   H     0.69719   0.23305   0.49573   0.00000  Uiso   1.00
H258   H     0.61651   0.34169   0.11237   0.00000  Uiso   1.00
H259   H     0.86651   0.95351   0.26547   0.00000  Uiso   1.00
H260   H     0.63192   0.24291   0.63721   0.00000  Uiso   1.00
H261   H     0.45402   0.95960   0.19214   0.00000  Uiso   1.00
H262   H     0.40465   0.03008   0.08066   0.00000  Uiso   1.00
H263   H     0.52322   0.84598   0.15325   0.00000  Uiso   1.00
H264   H     0.41197   0.98323   0.32954   0.00000  Uiso   1.00
H265   H     0.38501   0.13893   0.97748   0.00000  Uiso   1.00
H266   H     0.63502   0.75074   0.13059   0.00000  Uiso   1.00
H267   H     0.40043   0.04015   0.50231   0.00000  Uiso   1.00
O268   O     0.47317   0.29093   0.97442   0.00000  Uiso   1.00
O269   O     0.80116   0.78165   0.17530   0.00000  Uiso   1.00
O270   O     0.49339   0.16134   0.66299   0.00000  Uiso   1.00
N271   N     0.56879   0.28430   0.09594   0.00000  Uiso   1.00
N272   N     0.80253   0.92138   0.23907   0.00000  Uiso   1.00
N273   N     0.58322   0.19194   0.58661   0.00000  Uiso   1.00
N274   N     0.44423   0.17520   0.02335   0.00000  Uiso   1.00
N275   N     0.67797   0.81227   0.16648   0.00000  Uiso   1.00
N276   N     0.45866   0.08283   0.51403   0.00000  Uiso   1.00
