data_job_02403
_audit_creation_date              2018-12-19
_audit_creation_method            'Materials Studio'
_symmetry_space_group_name_H-M    'P1'
_symmetry_Int_Tables_number       1
_symmetry_cell_setting            triclinic
loop_
_symmetry_equiv_pos_as_xyz
  x,y,z
_cell_length_a                    10.1897
_cell_length_b                    33.6147
_cell_length_c                    17.7184
_cell_angle_alpha                 90.0000
_cell_angle_beta                  90.0000
_cell_angle_gamma                 90.0000
loop_
_atom_site_label
_atom_site_type_symbol
_atom_site_fract_x
_atom_site_fract_y
_atom_site_fract_z
_atom_site_U_iso_or_equiv
_atom_site_adp_type
_atom_site_occupancy
C1     C     0.92872   0.90692   0.49750   0.00000  Uiso   1.00
C2     C     0.88262   0.86381   0.50141   0.00000  Uiso   1.00
C3     C     0.80073   0.84786   0.55620   0.00000  Uiso   1.00
C4     C     0.77002   0.80776   0.54984   0.00000  Uiso   1.00
C5     C     0.69096   0.74436   0.56492   0.00000  Uiso   1.00
C6     C     0.07828   0.90538   0.49662   0.00000  Uiso   1.00
C7     C     0.16090   0.92440   0.54737   0.00000  Uiso   1.00
C8     C     0.29491   0.91930   0.53698   0.00000  Uiso   1.00
C9     C     0.51962   0.92047   0.54459   0.00000  Uiso   1.00
C10    C     0.88769   0.92219   0.41997   0.00000  Uiso   1.00
C11    C     0.81009   0.95534   0.40628   0.00000  Uiso   1.00
C12    C     0.78365   0.96440   0.33135   0.00000  Uiso   1.00
C13    C     0.71244   0.99166   0.21995   0.00000  Uiso   1.00
C14    C     0.01980   0.86406   0.38878   0.00000  Uiso   1.00
C15    C     0.93209   0.84053   0.44236   0.00000  Uiso   1.00
C16    C     0.90149   0.80044   0.43592   0.00000  Uiso   1.00
C17    C     0.81957   0.78444   0.49068   0.00000  Uiso   1.00
C18    C     0.12775   0.88210   0.43757   0.00000  Uiso   1.00
C19    C     0.26167   0.87698   0.42709   0.00000  Uiso   1.00
C20    C     0.34447   0.89598   0.47782   0.00000  Uiso   1.00
C21    C     0.93716   0.89891   0.36092   0.00000  Uiso   1.00
C22    C     0.91085   0.90792   0.28600   0.00000  Uiso   1.00
C23    C     0.83321   0.94107   0.27219   0.00000  Uiso   1.00
H24    H     0.89022   0.92504   0.54347   0.00000  Uiso   1.00
H25    H     0.76248   0.86589   0.60189   0.00000  Uiso   1.00
H26    H     0.12259   0.94242   0.59306   0.00000  Uiso   1.00
H27    H     0.77183   0.97335   0.45199   0.00000  Uiso   1.00
H28    H     0.64270   0.79004   0.64063   0.00000  Uiso   1.00
H29    H     0.40203   0.95141   0.62200   0.00000  Uiso   1.00
H30    H     0.66237   0.01664   0.32452   0.00000  Uiso   1.00
H31    H     0.05831   0.84593   0.34281   0.00000  Uiso   1.00
H32    H     0.93979   0.78243   0.39021   0.00000  Uiso   1.00
H33    H     0.29991   0.85896   0.38139   0.00000  Uiso   1.00
H34    H     0.94914   0.88989   0.24031   0.00000  Uiso   1.00
H35    H     0.78662   0.72230   0.46883   0.00000  Uiso   1.00
H36    H     0.54596   0.88367   0.45020   0.00000  Uiso   1.00
H37    H     0.80629   0.94890   0.15272   0.00000  Uiso   1.00
O38    O     0.63370   0.71582   0.58955   0.00000  Uiso   1.00
O39    O     0.62991   0.92754   0.56510   0.00000  Uiso   1.00
O40    O     0.65949   0.01312   0.17481   0.00000  Uiso   1.00
N41    N     0.69282   0.78281   0.59368   0.00000  Uiso   1.00
N42    N     0.40275   0.93368   0.57627   0.00000  Uiso   1.00
N43    N     0.71126   0.99467   0.29815   0.00000  Uiso   1.00
N44    N     0.77026   0.74636   0.50124   0.00000  Uiso   1.00
N45    N     0.48019   0.89723   0.48383   0.00000  Uiso   1.00
N46    N     0.78870   0.95822   0.20570   0.00000  Uiso   1.00
C47    C     0.64263   0.40274   0.65465   0.00000  Uiso   1.00
C48    C     0.69681   0.36422   0.68773   0.00000  Uiso   1.00
C49    C     0.79735   0.34151   0.65712   0.00000  Uiso   1.00
C50    C     0.83264   0.30726   0.69591   0.00000  Uiso   1.00
C51    C     0.92631   0.24912   0.73707   0.00000  Uiso   1.00
C52    C     0.49577   0.39601   0.64412   0.00000  Uiso   1.00
C53    C     0.42728   0.40004   0.57685   0.00000  Uiso   1.00
C54    C     0.29332   0.39255   0.57894   0.00000  Uiso   1.00
C55    C     0.07487   0.38380   0.55241   0.00000  Uiso   1.00
C56    C     0.65573   0.43397   0.71661   0.00000  Uiso   1.00
C57    C     0.72170   0.46994   0.71028   0.00000  Uiso   1.00
C58    C     0.72240   0.49442   0.77339   0.00000  Uiso   1.00
C59    C     0.75231   0.54462   0.85940   0.00000  Uiso   1.00
C60    C     0.52652   0.38227   0.77797   0.00000  Uiso   1.00
C61    C     0.63374   0.35310   0.75471   0.00000  Uiso   1.00
C62    C     0.66889   0.31887   0.79356   0.00000  Uiso   1.00
C63    C     0.76946   0.29612   0.76302   0.00000  Uiso   1.00
C64    C     0.43270   0.38489   0.71110   0.00000  Uiso   1.00
C65    C     0.29882   0.37740   0.71330   0.00000  Uiso   1.00
C66    C     0.23014   0.38142   0.64605   0.00000  Uiso   1.00
C67    C     0.59267   0.42286   0.78359   0.00000  Uiso   1.00
C68    C     0.59325   0.44729   0.84672   0.00000  Uiso   1.00
C69    C     0.65922   0.48329   0.84050   0.00000  Uiso   1.00
H70    H     0.69172   0.41140   0.60250   0.00000  Uiso   1.00
H71    H     0.84612   0.35013   0.60528   0.00000  Uiso   1.00
H72    H     0.47611   0.40865   0.52503   0.00000  Uiso   1.00
H73    H     0.77049   0.47853   0.65844   0.00000  Uiso   1.00
H74    H     0.98946   0.27729   0.63788   0.00000  Uiso   1.00
H75    H     0.20926   0.40069   0.46868   0.00000  Uiso   1.00
H76    H     0.83003   0.54806   0.74999   0.00000  Uiso   1.00
H77    H     0.47742   0.37362   0.83013   0.00000  Uiso   1.00
H78    H     0.62007   0.31027   0.84540   0.00000  Uiso   1.00
H79    H     0.25005   0.36880   0.76514   0.00000  Uiso   1.00
H80    H     0.54444   0.43868   0.89855   0.00000  Uiso   1.00
H81    H     0.80598   0.24494   0.83277   0.00000  Uiso   1.00
H82    H     0.02577   0.36835   0.66356   0.00000  Uiso   1.00
H83    H     0.64655   0.51572   0.94488   0.00000  Uiso   1.00
O84    O     0.99539   0.22012   0.74125   0.00000  Uiso   1.00
O85    O     0.97180   0.38203   0.51926   0.00000  Uiso   1.00
O86    O     0.78624   0.57537   0.88834   0.00000  Uiso   1.00
N87    N     0.92672   0.27837   0.68166   0.00000  Uiso   1.00
N88    N     0.19728   0.39374   0.52346   0.00000  Uiso   1.00
N89    N     0.77762   0.53153   0.78646   0.00000  Uiso   1.00
N90    N     0.82799   0.26097   0.78653   0.00000  Uiso   1.00
N91    N     0.09855   0.37634   0.62833   0.00000  Uiso   1.00
N92    N     0.67889   0.51412   0.89133   0.00000  Uiso   1.00
C93    C     0.07128   0.09308   0.99750   0.00000  Uiso   1.00
C94    C     0.11738   0.13619   0.00141   0.00000  Uiso   1.00
C95    C     0.19927   0.15214   0.05620   0.00000  Uiso   1.00
C96    C     0.22998   0.19224   0.04984   0.00000  Uiso   1.00
C97    C     0.30904   0.25564   0.06492   0.00000  Uiso   1.00
C98    C     0.92172   0.09462   0.99662   0.00000  Uiso   1.00
C99    C     0.83910   0.07560   0.04737   0.00000  Uiso   1.00
C100   C     0.70509   0.08070   0.03698   0.00000  Uiso   1.00
C101   C     0.48038   0.07953   0.04459   0.00000  Uiso   1.00
C102   C     0.11231   0.07781   0.91997   0.00000  Uiso   1.00
C103   C     0.18991   0.04466   0.90628   0.00000  Uiso   1.00
C104   C     0.21635   0.03560   0.83135   0.00000  Uiso   1.00
C105   C     0.28756   0.00834   0.71995   0.00000  Uiso   1.00
C106   C     0.98020   0.13594   0.88878   0.00000  Uiso   1.00
C107   C     0.06791   0.15947   0.94236   0.00000  Uiso   1.00
C108   C     0.09851   0.19956   0.93592   0.00000  Uiso   1.00
C109   C     0.18043   0.21556   0.99068   0.00000  Uiso   1.00
C110   C     0.87225   0.11790   0.93757   0.00000  Uiso   1.00
C111   C     0.73833   0.12302   0.92709   0.00000  Uiso   1.00
C112   C     0.65553   0.10402   0.97782   0.00000  Uiso   1.00
C113   C     0.06284   0.10109   0.86092   0.00000  Uiso   1.00
C114   C     0.08915   0.09208   0.78600   0.00000  Uiso   1.00
C115   C     0.16679   0.05893   0.77219   0.00000  Uiso   1.00
H116   H     0.10978   0.07496   0.04347   0.00000  Uiso   1.00
H117   H     0.23752   0.13411   0.10189   0.00000  Uiso   1.00
H118   H     0.87741   0.05758   0.09306   0.00000  Uiso   1.00
H119   H     0.22817   0.02665   0.95199   0.00000  Uiso   1.00
H120   H     0.35730   0.20996   0.14063   0.00000  Uiso   1.00
H121   H     0.59797   0.04859   0.12200   0.00000  Uiso   1.00
H122   H     0.33763   0.98336   0.82452   0.00000  Uiso   1.00
H123   H     0.94169   0.15407   0.84281   0.00000  Uiso   1.00
H124   H     0.06021   0.21757   0.89021   0.00000  Uiso   1.00
H125   H     0.70009   0.14104   0.88139   0.00000  Uiso   1.00
H126   H     0.05086   0.11011   0.74031   0.00000  Uiso   1.00
H127   H     0.21338   0.27770   0.96883   0.00000  Uiso   1.00
H128   H     0.45404   0.11633   0.95020   0.00000  Uiso   1.00
H129   H     0.19371   0.05110   0.65272   0.00000  Uiso   1.00
O130   O     0.36630   0.28418   0.08955   0.00000  Uiso   1.00
O131   O     0.37009   0.07246   0.06510   0.00000  Uiso   1.00
O132   O     0.34051   0.98688   0.67481   0.00000  Uiso   1.00
N133   N     0.30718   0.21719   0.09368   0.00000  Uiso   1.00
N134   N     0.59725   0.06632   0.07627   0.00000  Uiso   1.00
N135   N     0.28874   0.00533   0.79815   0.00000  Uiso   1.00
N136   N     0.22974   0.25364   0.00124   0.00000  Uiso   1.00
N137   N     0.51981   0.10277   0.98383   0.00000  Uiso   1.00
N138   N     0.21130   0.04178   0.70570   0.00000  Uiso   1.00
C139   C     0.35737   0.59726   0.15465   0.00000  Uiso   1.00
C140   C     0.30319   0.63578   0.18773   0.00000  Uiso   1.00
C141   C     0.20265   0.65849   0.15712   0.00000  Uiso   1.00
C142   C     0.16736   0.69274   0.19591   0.00000  Uiso   1.00
C143   C     0.07369   0.75088   0.23707   0.00000  Uiso   1.00
C144   C     0.50423   0.60399   0.14412   0.00000  Uiso   1.00
C145   C     0.57272   0.59996   0.07685   0.00000  Uiso   1.00
C146   C     0.70668   0.60745   0.07894   0.00000  Uiso   1.00
C147   C     0.92513   0.61620   0.05241   0.00000  Uiso   1.00
C148   C     0.34427   0.56603   0.21661   0.00000  Uiso   1.00
C149   C     0.27830   0.53006   0.21028   0.00000  Uiso   1.00
C150   C     0.27760   0.50558   0.27339   0.00000  Uiso   1.00
C151   C     0.24769   0.45538   0.35940   0.00000  Uiso   1.00
C152   C     0.47348   0.61773   0.27797   0.00000  Uiso   1.00
C153   C     0.36626   0.64690   0.25471   0.00000  Uiso   1.00
C154   C     0.33111   0.68113   0.29356   0.00000  Uiso   1.00
C155   C     0.23054   0.70388   0.26302   0.00000  Uiso   1.00
C156   C     0.56730   0.61511   0.21110   0.00000  Uiso   1.00
C157   C     0.70118   0.62260   0.21330   0.00000  Uiso   1.00
C158   C     0.76986   0.61858   0.14605   0.00000  Uiso   1.00
C159   C     0.40733   0.57714   0.28359   0.00000  Uiso   1.00
C160   C     0.40675   0.55271   0.34672   0.00000  Uiso   1.00
C161   C     0.34078   0.51671   0.34050   0.00000  Uiso   1.00
H162   H     0.30828   0.58860   0.10250   0.00000  Uiso   1.00
H163   H     0.15388   0.64987   0.10528   0.00000  Uiso   1.00
H164   H     0.52389   0.59135   0.02503   0.00000  Uiso   1.00
H165   H     0.22951   0.52147   0.15844   0.00000  Uiso   1.00
H166   H     0.01054   0.72271   0.13788   0.00000  Uiso   1.00
H167   H     0.79074   0.59931   0.96868   0.00000  Uiso   1.00
H168   H     0.16997   0.45194   0.24999   0.00000  Uiso   1.00
H169   H     0.52258   0.62638   0.33013   0.00000  Uiso   1.00
H170   H     0.37993   0.68973   0.34540   0.00000  Uiso   1.00
H171   H     0.74995   0.63120   0.26514   0.00000  Uiso   1.00
H172   H     0.45556   0.56132   0.39855   0.00000  Uiso   1.00
H173   H     0.19402   0.75506   0.33277   0.00000  Uiso   1.00
H174   H     0.97423   0.63165   0.16356   0.00000  Uiso   1.00
H175   H     0.35345   0.48428   0.44488   0.00000  Uiso   1.00
O176   O     0.00461   0.77988   0.24125   0.00000  Uiso   1.00
O177   O     0.02820   0.61797   0.01926   0.00000  Uiso   1.00
O178   O     0.21376   0.42463   0.38834   0.00000  Uiso   1.00
N179   N     0.07328   0.72163   0.18166   0.00000  Uiso   1.00
N180   N     0.80272   0.60626   0.02346   0.00000  Uiso   1.00
N181   N     0.22238   0.46847   0.28646   0.00000  Uiso   1.00
N182   N     0.17201   0.73903   0.28653   0.00000  Uiso   1.00
N183   N     0.90145   0.62366   0.12833   0.00000  Uiso   1.00
N184   N     0.32111   0.48588   0.39133   0.00000  Uiso   1.00
C185   C     0.42872   0.09308   0.49750   0.00000  Uiso   1.00
C186   C     0.38262   0.13619   0.50141   0.00000  Uiso   1.00
C187   C     0.30073   0.15214   0.55620   0.00000  Uiso   1.00
C188   C     0.27002   0.19224   0.54984   0.00000  Uiso   1.00
C189   C     0.19096   0.25564   0.56492   0.00000  Uiso   1.00
C190   C     0.57828   0.09462   0.49662   0.00000  Uiso   1.00
C191   C     0.66090   0.07560   0.54737   0.00000  Uiso   1.00
C192   C     0.79491   0.08070   0.53698   0.00000  Uiso   1.00
C193   C     0.01962   0.07953   0.54459   0.00000  Uiso   1.00
C194   C     0.38769   0.07781   0.41997   0.00000  Uiso   1.00
C195   C     0.31009   0.04466   0.40628   0.00000  Uiso   1.00
C196   C     0.28365   0.03560   0.33135   0.00000  Uiso   1.00
C197   C     0.21244   0.00834   0.21995   0.00000  Uiso   1.00
C198   C     0.51980   0.13594   0.38878   0.00000  Uiso   1.00
C199   C     0.43209   0.15947   0.44236   0.00000  Uiso   1.00
C200   C     0.40149   0.19956   0.43592   0.00000  Uiso   1.00
C201   C     0.31957   0.21556   0.49068   0.00000  Uiso   1.00
C202   C     0.62775   0.11790   0.43757   0.00000  Uiso   1.00
C203   C     0.76167   0.12302   0.42709   0.00000  Uiso   1.00
C204   C     0.84447   0.10402   0.47782   0.00000  Uiso   1.00
C205   C     0.43716   0.10109   0.36092   0.00000  Uiso   1.00
C206   C     0.41085   0.09208   0.28600   0.00000  Uiso   1.00
C207   C     0.33321   0.05893   0.27219   0.00000  Uiso   1.00
H208   H     0.39022   0.07496   0.54347   0.00000  Uiso   1.00
H209   H     0.26248   0.13411   0.60189   0.00000  Uiso   1.00
H210   H     0.62259   0.05758   0.59306   0.00000  Uiso   1.00
H211   H     0.27183   0.02665   0.45199   0.00000  Uiso   1.00
H212   H     0.14270   0.20996   0.64063   0.00000  Uiso   1.00
H213   H     0.90203   0.04859   0.62200   0.00000  Uiso   1.00
H214   H     0.16237   0.98336   0.32452   0.00000  Uiso   1.00
H215   H     0.55831   0.15407   0.34281   0.00000  Uiso   1.00
H216   H     0.43979   0.21757   0.39021   0.00000  Uiso   1.00
H217   H     0.79991   0.14104   0.38139   0.00000  Uiso   1.00
H218   H     0.44914   0.11011   0.24031   0.00000  Uiso   1.00
H219   H     0.28662   0.27770   0.46883   0.00000  Uiso   1.00
H220   H     0.04596   0.11633   0.45020   0.00000  Uiso   1.00
H221   H     0.30629   0.05110   0.15272   0.00000  Uiso   1.00
O222   O     0.13370   0.28418   0.58955   0.00000  Uiso   1.00
O223   O     0.12991   0.07246   0.56510   0.00000  Uiso   1.00
O224   O     0.15949   0.98688   0.17481   0.00000  Uiso   1.00
N225   N     0.19282   0.21719   0.59368   0.00000  Uiso   1.00
N226   N     0.90275   0.06632   0.57627   0.00000  Uiso   1.00
N227   N     0.21126   0.00533   0.29815   0.00000  Uiso   1.00
N228   N     0.27026   0.25364   0.50124   0.00000  Uiso   1.00
N229   N     0.98019   0.10277   0.48383   0.00000  Uiso   1.00
N230   N     0.28870   0.04178   0.20570   0.00000  Uiso   1.00
C231   C     0.14263   0.59726   0.65465   0.00000  Uiso   1.00
C232   C     0.19681   0.63578   0.68773   0.00000  Uiso   1.00
C233   C     0.29735   0.65849   0.65712   0.00000  Uiso   1.00
C234   C     0.33264   0.69274   0.69591   0.00000  Uiso   1.00
C235   C     0.42631   0.75088   0.73707   0.00000  Uiso   1.00
C236   C     0.99577   0.60399   0.64412   0.00000  Uiso   1.00
C237   C     0.92728   0.59996   0.57685   0.00000  Uiso   1.00
C238   C     0.79332   0.60745   0.57894   0.00000  Uiso   1.00
C239   C     0.57487   0.61620   0.55241   0.00000  Uiso   1.00
C240   C     0.15573   0.56603   0.71661   0.00000  Uiso   1.00
C241   C     0.22170   0.53006   0.71028   0.00000  Uiso   1.00
C242   C     0.22240   0.50558   0.77339   0.00000  Uiso   1.00
C243   C     0.25231   0.45538   0.85940   0.00000  Uiso   1.00
C244   C     0.02652   0.61773   0.77797   0.00000  Uiso   1.00
C245   C     0.13374   0.64690   0.75471   0.00000  Uiso   1.00
C246   C     0.16889   0.68113   0.79356   0.00000  Uiso   1.00
C247   C     0.26946   0.70388   0.76302   0.00000  Uiso   1.00
C248   C     0.93270   0.61511   0.71110   0.00000  Uiso   1.00
C249   C     0.79882   0.62260   0.71330   0.00000  Uiso   1.00
C250   C     0.73014   0.61858   0.64605   0.00000  Uiso   1.00
C251   C     0.09267   0.57714   0.78359   0.00000  Uiso   1.00
C252   C     0.09325   0.55271   0.84672   0.00000  Uiso   1.00
C253   C     0.15922   0.51671   0.84050   0.00000  Uiso   1.00
H254   H     0.19172   0.58860   0.60250   0.00000  Uiso   1.00
H255   H     0.34612   0.64987   0.60528   0.00000  Uiso   1.00
H256   H     0.97611   0.59135   0.52503   0.00000  Uiso   1.00
H257   H     0.27049   0.52147   0.65844   0.00000  Uiso   1.00
H258   H     0.48946   0.72271   0.63788   0.00000  Uiso   1.00
H259   H     0.70926   0.59931   0.46868   0.00000  Uiso   1.00
H260   H     0.33003   0.45194   0.74999   0.00000  Uiso   1.00
H261   H     0.97742   0.62638   0.83013   0.00000  Uiso   1.00
H262   H     0.12007   0.68973   0.84540   0.00000  Uiso   1.00
H263   H     0.75005   0.63120   0.76514   0.00000  Uiso   1.00
H264   H     0.04444   0.56132   0.89855   0.00000  Uiso   1.00
H265   H     0.30598   0.75506   0.83277   0.00000  Uiso   1.00
H266   H     0.52577   0.63165   0.66356   0.00000  Uiso   1.00
H267   H     0.14655   0.48428   0.94488   0.00000  Uiso   1.00
O268   O     0.49539   0.77988   0.74125   0.00000  Uiso   1.00
O269   O     0.47180   0.61797   0.51926   0.00000  Uiso   1.00
O270   O     0.28624   0.42463   0.88834   0.00000  Uiso   1.00
N271   N     0.42672   0.72163   0.68166   0.00000  Uiso   1.00
N272   N     0.69728   0.60626   0.52346   0.00000  Uiso   1.00
N273   N     0.27762   0.46847   0.78646   0.00000  Uiso   1.00
N274   N     0.32799   0.73903   0.78653   0.00000  Uiso   1.00
N275   N     0.59855   0.62366   0.62833   0.00000  Uiso   1.00
N276   N     0.17889   0.48588   0.89133   0.00000  Uiso   1.00
C277   C     0.57128   0.90692   0.99750   0.00000  Uiso   1.00
C278   C     0.61738   0.86381   0.00141   0.00000  Uiso   1.00
C279   C     0.69927   0.84786   0.05620   0.00000  Uiso   1.00
C280   C     0.72998   0.80776   0.04984   0.00000  Uiso   1.00
C281   C     0.80904   0.74436   0.06492   0.00000  Uiso   1.00
C282   C     0.42172   0.90538   0.99662   0.00000  Uiso   1.00
C283   C     0.33910   0.92440   0.04737   0.00000  Uiso   1.00
C284   C     0.20509   0.91930   0.03698   0.00000  Uiso   1.00
C285   C     0.98038   0.92047   0.04459   0.00000  Uiso   1.00
C286   C     0.61231   0.92219   0.91997   0.00000  Uiso   1.00
C287   C     0.68991   0.95534   0.90628   0.00000  Uiso   1.00
C288   C     0.71635   0.96440   0.83135   0.00000  Uiso   1.00
C289   C     0.78756   0.99166   0.71995   0.00000  Uiso   1.00
C290   C     0.48020   0.86406   0.88878   0.00000  Uiso   1.00
C291   C     0.56791   0.84053   0.94236   0.00000  Uiso   1.00
C292   C     0.59851   0.80044   0.93592   0.00000  Uiso   1.00
C293   C     0.68043   0.78444   0.99068   0.00000  Uiso   1.00
C294   C     0.37225   0.88210   0.93757   0.00000  Uiso   1.00
C295   C     0.23833   0.87698   0.92709   0.00000  Uiso   1.00
C296   C     0.15553   0.89598   0.97782   0.00000  Uiso   1.00
C297   C     0.56284   0.89891   0.86092   0.00000  Uiso   1.00
C298   C     0.58915   0.90792   0.78600   0.00000  Uiso   1.00
C299   C     0.66679   0.94107   0.77219   0.00000  Uiso   1.00
H300   H     0.60978   0.92504   0.04347   0.00000  Uiso   1.00
H301   H     0.73752   0.86589   0.10189   0.00000  Uiso   1.00
H302   H     0.37741   0.94242   0.09306   0.00000  Uiso   1.00
H303   H     0.72817   0.97335   0.95199   0.00000  Uiso   1.00
H304   H     0.85730   0.79004   0.14063   0.00000  Uiso   1.00
H305   H     0.09797   0.95141   0.12200   0.00000  Uiso   1.00
H306   H     0.83763   0.01664   0.82452   0.00000  Uiso   1.00
H307   H     0.44169   0.84593   0.84281   0.00000  Uiso   1.00
H308   H     0.56021   0.78243   0.89021   0.00000  Uiso   1.00
H309   H     0.20009   0.85896   0.88139   0.00000  Uiso   1.00
H310   H     0.55086   0.88989   0.74031   0.00000  Uiso   1.00
H311   H     0.71338   0.72230   0.96883   0.00000  Uiso   1.00
H312   H     0.95404   0.88367   0.95020   0.00000  Uiso   1.00
H313   H     0.69371   0.94890   0.65272   0.00000  Uiso   1.00
O314   O     0.86630   0.71582   0.08955   0.00000  Uiso   1.00
O315   O     0.87009   0.92754   0.06510   0.00000  Uiso   1.00
O316   O     0.84051   0.01312   0.67481   0.00000  Uiso   1.00
N317   N     0.80718   0.78281   0.09368   0.00000  Uiso   1.00
N318   N     0.09725   0.93368   0.07627   0.00000  Uiso   1.00
N319   N     0.78874   0.99467   0.79815   0.00000  Uiso   1.00
N320   N     0.72974   0.74636   0.00124   0.00000  Uiso   1.00
N321   N     0.01981   0.89723   0.98383   0.00000  Uiso   1.00
N322   N     0.71130   0.95822   0.70570   0.00000  Uiso   1.00
C323   C     0.85737   0.40274   0.15465   0.00000  Uiso   1.00
C324   C     0.80319   0.36422   0.18773   0.00000  Uiso   1.00
C325   C     0.70265   0.34151   0.15712   0.00000  Uiso   1.00
C326   C     0.66736   0.30726   0.19591   0.00000  Uiso   1.00
C327   C     0.57369   0.24912   0.23707   0.00000  Uiso   1.00
C328   C     0.00423   0.39601   0.14412   0.00000  Uiso   1.00
C329   C     0.07272   0.40004   0.07685   0.00000  Uiso   1.00
C330   C     0.20668   0.39255   0.07894   0.00000  Uiso   1.00
C331   C     0.42513   0.38380   0.05241   0.00000  Uiso   1.00
C332   C     0.84427   0.43397   0.21661   0.00000  Uiso   1.00
C333   C     0.77830   0.46994   0.21028   0.00000  Uiso   1.00
C334   C     0.77760   0.49442   0.27339   0.00000  Uiso   1.00
C335   C     0.74769   0.54462   0.35940   0.00000  Uiso   1.00
C336   C     0.97348   0.38227   0.27797   0.00000  Uiso   1.00
C337   C     0.86626   0.35310   0.25471   0.00000  Uiso   1.00
C338   C     0.83111   0.31887   0.29356   0.00000  Uiso   1.00
C339   C     0.73054   0.29612   0.26302   0.00000  Uiso   1.00
C340   C     0.06730   0.38489   0.21110   0.00000  Uiso   1.00
C341   C     0.20118   0.37740   0.21330   0.00000  Uiso   1.00
C342   C     0.26986   0.38142   0.14605   0.00000  Uiso   1.00
C343   C     0.90733   0.42286   0.28359   0.00000  Uiso   1.00
C344   C     0.90675   0.44729   0.34672   0.00000  Uiso   1.00
C345   C     0.84078   0.48329   0.34050   0.00000  Uiso   1.00
H346   H     0.80828   0.41140   0.10250   0.00000  Uiso   1.00
H347   H     0.65388   0.35013   0.10528   0.00000  Uiso   1.00
H348   H     0.02389   0.40865   0.02503   0.00000  Uiso   1.00
H349   H     0.72951   0.47853   0.15844   0.00000  Uiso   1.00
H350   H     0.51054   0.27729   0.13788   0.00000  Uiso   1.00
H351   H     0.29074   0.40069   0.96868   0.00000  Uiso   1.00
H352   H     0.66997   0.54806   0.24999   0.00000  Uiso   1.00
H353   H     0.02258   0.37362   0.33013   0.00000  Uiso   1.00
H354   H     0.87993   0.31027   0.34540   0.00000  Uiso   1.00
H355   H     0.24995   0.36880   0.26514   0.00000  Uiso   1.00
H356   H     0.95556   0.43868   0.39855   0.00000  Uiso   1.00
H357   H     0.69402   0.24494   0.33277   0.00000  Uiso   1.00
H358   H     0.47423   0.36835   0.16356   0.00000  Uiso   1.00
H359   H     0.85345   0.51572   0.44488   0.00000  Uiso   1.00
O360   O     0.50461   0.22012   0.24125   0.00000  Uiso   1.00
O361   O     0.52820   0.38203   0.01926   0.00000  Uiso   1.00
O362   O     0.71376   0.57537   0.38834   0.00000  Uiso   1.00
N363   N     0.57328   0.27837   0.18166   0.00000  Uiso   1.00
N364   N     0.30272   0.39374   0.02346   0.00000  Uiso   1.00
N365   N     0.72238   0.53153   0.28646   0.00000  Uiso   1.00
N366   N     0.67201   0.26097   0.28653   0.00000  Uiso   1.00
N367   N     0.40145   0.37634   0.12833   0.00000  Uiso   1.00
N368   N     0.82111   0.51412   0.39133   0.00000  Uiso   1.00
