data_job_04141
_audit_creation_date              2018-12-19
_audit_creation_method            'Materials Studio'
_symmetry_space_group_name_H-M    'P1'
_symmetry_Int_Tables_number       1
_symmetry_cell_setting            triclinic
loop_
_symmetry_equiv_pos_as_xyz
  x,y,z
_cell_length_a                    17.4201
_cell_length_b                    10.6166
_cell_length_c                    16.3173
_cell_angle_alpha                 90.0000
_cell_angle_beta                  112.1788
_cell_angle_gamma                 90.0000
loop_
_atom_site_label
_atom_site_type_symbol
_atom_site_fract_x
_atom_site_fract_y
_atom_site_fract_z
_atom_site_U_iso_or_equiv
_atom_site_adp_type
_atom_site_occupancy
C1     C     0.66680   0.88581   0.36087   0.00000  Uiso   1.00
C2     C     0.66778   0.81727   0.27914   0.00000  Uiso   1.00
C3     C     0.60049   0.75806   0.21563   0.00000  Uiso   1.00
C4     C     0.61409   0.70064   0.14585   0.00000  Uiso   1.00
C5     C     0.60374   0.59390   0.01988   0.00000  Uiso   1.00
C6     C     0.73361   0.82342   0.43998   0.00000  Uiso   1.00
C7     C     0.72167   0.76940   0.51172   0.00000  Uiso   1.00
C8     C     0.79069   0.71717   0.57735   0.00000  Uiso   1.00
C9     C     0.88256   0.62006   0.70112   0.00000  Uiso   1.00
C10    C     0.69755   0.01899   0.35596   0.00000  Uiso   1.00
C11    C     0.65531   0.12941   0.35707   0.00000  Uiso   1.00
C12    C     0.69399   0.24184   0.35197   0.00000  Uiso   1.00
C13    C     0.72987   0.44838   0.34528   0.00000  Uiso   1.00
C14    C     0.81060   0.88914   0.34988   0.00000  Uiso   1.00
C15    C     0.74589   0.81908   0.27317   0.00000  Uiso   1.00
C16    C     0.75959   0.76174   0.20347   0.00000  Uiso   1.00
C17    C     0.69233   0.70246   0.13987   0.00000  Uiso   1.00
C18    C     0.81171   0.82523   0.43401   0.00000  Uiso   1.00
C19    C     0.88077   0.77308   0.49956   0.00000  Uiso   1.00
C20    C     0.86894   0.71898   0.57137   0.00000  Uiso   1.00
C21    C     0.77566   0.02080   0.34998   0.00000  Uiso   1.00
C22    C     0.81441   0.13309   0.34490   0.00000  Uiso   1.00
C23    C     0.77223   0.24365   0.34600   0.00000  Uiso   1.00
H24    H     0.60599   0.88440   0.36552   0.00000  Uiso   1.00
H25    H     0.54006   0.75667   0.22028   0.00000  Uiso   1.00
H26    H     0.66122   0.76803   0.51632   0.00000  Uiso   1.00
H27    H     0.59487   0.12797   0.36169   0.00000  Uiso   1.00
H28    H     0.50141   0.61582   0.05663   0.00000  Uiso   1.00
H29    H     0.75690   0.63980   0.68088   0.00000  Uiso   1.00
H30    H     0.61699   0.39882   0.35480   0.00000  Uiso   1.00
H31    H     0.87141   0.89054   0.34523   0.00000  Uiso   1.00
H32    H     0.82004   0.76316   0.19887   0.00000  Uiso   1.00
H33    H     0.94120   0.77450   0.49492   0.00000  Uiso   1.00
H34    H     0.87485   0.13445   0.34028   0.00000  Uiso   1.00
H35    H     0.72865   0.62108   0.03926   0.00000  Uiso   1.00
H36    H     0.98414   0.64506   0.66351   0.00000  Uiso   1.00
H37    H     0.84423   0.40408   0.33743   0.00000  Uiso   1.00
O38    O     0.57645   0.53450   0.95205   0.00000  Uiso   1.00
O39    O     0.91165   0.56598   0.77104   0.00000  Uiso   1.00
O40    O     0.72808   0.56180   0.34323   0.00000  Uiso   1.00
N41    N     0.56193   0.63456   0.07262   0.00000  Uiso   1.00
N42    N     0.80080   0.65696   0.65625   0.00000  Uiso   1.00
N43    N     0.67000   0.36659   0.35142   0.00000  Uiso   1.00
N44    N     0.68421   0.63739   0.06327   0.00000  Uiso   1.00
N45    N     0.92308   0.65979   0.64689   0.00000  Uiso   1.00
N46    N     0.79228   0.36942   0.34207   0.00000  Uiso   1.00
C47    C     0.33320   0.88581   0.13913   0.00000  Uiso   1.00
C48    C     0.33222   0.81727   0.22086   0.00000  Uiso   1.00
C49    C     0.39951   0.75806   0.28437   0.00000  Uiso   1.00
C50    C     0.38591   0.70064   0.35415   0.00000  Uiso   1.00
C51    C     0.39626   0.59390   0.48012   0.00000  Uiso   1.00
C52    C     0.26639   0.82342   0.06002   0.00000  Uiso   1.00
C53    C     0.27833   0.76940   0.98828   0.00000  Uiso   1.00
C54    C     0.20931   0.71717   0.92265   0.00000  Uiso   1.00
C55    C     0.11744   0.62006   0.79888   0.00000  Uiso   1.00
C56    C     0.30245   0.01899   0.14404   0.00000  Uiso   1.00
C57    C     0.34469   0.12941   0.14293   0.00000  Uiso   1.00
C58    C     0.30601   0.24184   0.14803   0.00000  Uiso   1.00
C59    C     0.27013   0.44838   0.15472   0.00000  Uiso   1.00
C60    C     0.18940   0.88914   0.15012   0.00000  Uiso   1.00
C61    C     0.25411   0.81908   0.22683   0.00000  Uiso   1.00
C62    C     0.24041   0.76174   0.29653   0.00000  Uiso   1.00
C63    C     0.30767   0.70246   0.36013   0.00000  Uiso   1.00
C64    C     0.18829   0.82523   0.06599   0.00000  Uiso   1.00
C65    C     0.11923   0.77308   0.00044   0.00000  Uiso   1.00
C66    C     0.13106   0.71898   0.92863   0.00000  Uiso   1.00
C67    C     0.22434   0.02080   0.15002   0.00000  Uiso   1.00
C68    C     0.18559   0.13309   0.15510   0.00000  Uiso   1.00
C69    C     0.22777   0.24365   0.15400   0.00000  Uiso   1.00
H70    H     0.39401   0.88440   0.13448   0.00000  Uiso   1.00
H71    H     0.45994   0.75667   0.27972   0.00000  Uiso   1.00
H72    H     0.33878   0.76803   0.98368   0.00000  Uiso   1.00
H73    H     0.40513   0.12797   0.13831   0.00000  Uiso   1.00
H74    H     0.49859   0.61582   0.44337   0.00000  Uiso   1.00
H75    H     0.24310   0.63980   0.81912   0.00000  Uiso   1.00
H76    H     0.38301   0.39882   0.14520   0.00000  Uiso   1.00
H77    H     0.12859   0.89054   0.15477   0.00000  Uiso   1.00
H78    H     0.17996   0.76316   0.30113   0.00000  Uiso   1.00
H79    H     0.05880   0.77450   0.00508   0.00000  Uiso   1.00
H80    H     0.12515   0.13445   0.15972   0.00000  Uiso   1.00
H81    H     0.27135   0.62108   0.46074   0.00000  Uiso   1.00
H82    H     0.01586   0.64506   0.83649   0.00000  Uiso   1.00
H83    H     0.15577   0.40408   0.16257   0.00000  Uiso   1.00
O84    O     0.42355   0.53450   0.54795   0.00000  Uiso   1.00
O85    O     0.08835   0.56598   0.72896   0.00000  Uiso   1.00
O86    O     0.27192   0.56180   0.15677   0.00000  Uiso   1.00
N87    N     0.43807   0.63456   0.42738   0.00000  Uiso   1.00
N88    N     0.19920   0.65696   0.84375   0.00000  Uiso   1.00
N89    N     0.33000   0.36659   0.14858   0.00000  Uiso   1.00
N90    N     0.31579   0.63739   0.43673   0.00000  Uiso   1.00
N91    N     0.07692   0.65979   0.85311   0.00000  Uiso   1.00
N92    N     0.20772   0.36942   0.15793   0.00000  Uiso   1.00
C93    C     0.33320   0.11419   0.63913   0.00000  Uiso   1.00
C94    C     0.33222   0.18273   0.72086   0.00000  Uiso   1.00
C95    C     0.39951   0.24194   0.78437   0.00000  Uiso   1.00
C96    C     0.38591   0.29936   0.85415   0.00000  Uiso   1.00
C97    C     0.39626   0.40610   0.98012   0.00000  Uiso   1.00
C98    C     0.26639   0.17658   0.56002   0.00000  Uiso   1.00
C99    C     0.27833   0.23060   0.48828   0.00000  Uiso   1.00
C100   C     0.20931   0.28283   0.42265   0.00000  Uiso   1.00
C101   C     0.11744   0.37994   0.29888   0.00000  Uiso   1.00
C102   C     0.30245   0.98101   0.64404   0.00000  Uiso   1.00
C103   C     0.34469   0.87059   0.64293   0.00000  Uiso   1.00
C104   C     0.30601   0.75816   0.64803   0.00000  Uiso   1.00
C105   C     0.27013   0.55162   0.65472   0.00000  Uiso   1.00
C106   C     0.18940   0.11086   0.65012   0.00000  Uiso   1.00
C107   C     0.25411   0.18092   0.72683   0.00000  Uiso   1.00
C108   C     0.24041   0.23826   0.79653   0.00000  Uiso   1.00
C109   C     0.30767   0.29754   0.86013   0.00000  Uiso   1.00
C110   C     0.18829   0.17477   0.56599   0.00000  Uiso   1.00
C111   C     0.11923   0.22692   0.50044   0.00000  Uiso   1.00
C112   C     0.13106   0.28102   0.42863   0.00000  Uiso   1.00
C113   C     0.22434   0.97920   0.65002   0.00000  Uiso   1.00
C114   C     0.18559   0.86691   0.65510   0.00000  Uiso   1.00
C115   C     0.22777   0.75635   0.65400   0.00000  Uiso   1.00
H116   H     0.39401   0.11560   0.63448   0.00000  Uiso   1.00
H117   H     0.45994   0.24333   0.77972   0.00000  Uiso   1.00
H118   H     0.33878   0.23197   0.48368   0.00000  Uiso   1.00
H119   H     0.40513   0.87203   0.63831   0.00000  Uiso   1.00
H120   H     0.49859   0.38418   0.94337   0.00000  Uiso   1.00
H121   H     0.24310   0.36020   0.31912   0.00000  Uiso   1.00
H122   H     0.38301   0.60118   0.64520   0.00000  Uiso   1.00
H123   H     0.12859   0.10946   0.65477   0.00000  Uiso   1.00
H124   H     0.17996   0.23684   0.80113   0.00000  Uiso   1.00
H125   H     0.05880   0.22550   0.50508   0.00000  Uiso   1.00
H126   H     0.12515   0.86555   0.65972   0.00000  Uiso   1.00
H127   H     0.27135   0.37892   0.96074   0.00000  Uiso   1.00
H128   H     0.01586   0.35494   0.33649   0.00000  Uiso   1.00
H129   H     0.15577   0.59592   0.66257   0.00000  Uiso   1.00
O130   O     0.42355   0.46550   0.04795   0.00000  Uiso   1.00
O131   O     0.08835   0.43402   0.22896   0.00000  Uiso   1.00
O132   O     0.27192   0.43820   0.65677   0.00000  Uiso   1.00
N133   N     0.43807   0.36544   0.92738   0.00000  Uiso   1.00
N134   N     0.19920   0.34304   0.34375   0.00000  Uiso   1.00
N135   N     0.33000   0.63341   0.64858   0.00000  Uiso   1.00
N136   N     0.31579   0.36261   0.93673   0.00000  Uiso   1.00
N137   N     0.07692   0.34021   0.35311   0.00000  Uiso   1.00
N138   N     0.20772   0.63058   0.65793   0.00000  Uiso   1.00
C139   C     0.66680   0.11419   0.86087   0.00000  Uiso   1.00
C140   C     0.66778   0.18273   0.77914   0.00000  Uiso   1.00
C141   C     0.60049   0.24194   0.71563   0.00000  Uiso   1.00
C142   C     0.61409   0.29936   0.64585   0.00000  Uiso   1.00
C143   C     0.60374   0.40610   0.51988   0.00000  Uiso   1.00
C144   C     0.73361   0.17658   0.93998   0.00000  Uiso   1.00
C145   C     0.72167   0.23060   0.01172   0.00000  Uiso   1.00
C146   C     0.79069   0.28283   0.07735   0.00000  Uiso   1.00
C147   C     0.88256   0.37994   0.20112   0.00000  Uiso   1.00
C148   C     0.69755   0.98101   0.85596   0.00000  Uiso   1.00
C149   C     0.65531   0.87059   0.85707   0.00000  Uiso   1.00
C150   C     0.69399   0.75816   0.85197   0.00000  Uiso   1.00
C151   C     0.72987   0.55162   0.84528   0.00000  Uiso   1.00
C152   C     0.81060   0.11086   0.84988   0.00000  Uiso   1.00
C153   C     0.74589   0.18092   0.77317   0.00000  Uiso   1.00
C154   C     0.75959   0.23826   0.70347   0.00000  Uiso   1.00
C155   C     0.69233   0.29754   0.63987   0.00000  Uiso   1.00
C156   C     0.81171   0.17477   0.93401   0.00000  Uiso   1.00
C157   C     0.88077   0.22692   0.99956   0.00000  Uiso   1.00
C158   C     0.86894   0.28102   0.07137   0.00000  Uiso   1.00
C159   C     0.77566   0.97920   0.84998   0.00000  Uiso   1.00
C160   C     0.81441   0.86691   0.84490   0.00000  Uiso   1.00
C161   C     0.77223   0.75635   0.84600   0.00000  Uiso   1.00
H162   H     0.60599   0.11560   0.86552   0.00000  Uiso   1.00
H163   H     0.54006   0.24333   0.72028   0.00000  Uiso   1.00
H164   H     0.66122   0.23197   0.01632   0.00000  Uiso   1.00
H165   H     0.59487   0.87203   0.86169   0.00000  Uiso   1.00
H166   H     0.50141   0.38418   0.55663   0.00000  Uiso   1.00
H167   H     0.75690   0.36020   0.18088   0.00000  Uiso   1.00
H168   H     0.61699   0.60118   0.85480   0.00000  Uiso   1.00
H169   H     0.87141   0.10946   0.84523   0.00000  Uiso   1.00
H170   H     0.82004   0.23684   0.69887   0.00000  Uiso   1.00
H171   H     0.94120   0.22550   0.99492   0.00000  Uiso   1.00
H172   H     0.87485   0.86555   0.84028   0.00000  Uiso   1.00
H173   H     0.72865   0.37892   0.53926   0.00000  Uiso   1.00
H174   H     0.98414   0.35494   0.16351   0.00000  Uiso   1.00
H175   H     0.84423   0.59592   0.83743   0.00000  Uiso   1.00
O176   O     0.57645   0.46550   0.45205   0.00000  Uiso   1.00
O177   O     0.91165   0.43402   0.27104   0.00000  Uiso   1.00
O178   O     0.72808   0.43820   0.84323   0.00000  Uiso   1.00
N179   N     0.56193   0.36544   0.57262   0.00000  Uiso   1.00
N180   N     0.80080   0.34304   0.15625   0.00000  Uiso   1.00
N181   N     0.67000   0.63341   0.85142   0.00000  Uiso   1.00
N182   N     0.68421   0.36261   0.56327   0.00000  Uiso   1.00
N183   N     0.92308   0.34021   0.14689   0.00000  Uiso   1.00
N184   N     0.79228   0.63058   0.84207   0.00000  Uiso   1.00
