data_job_03007
_audit_creation_date              2018-12-19
_audit_creation_method            'Materials Studio'
_symmetry_space_group_name_H-M    'P1'
_symmetry_Int_Tables_number       1
_symmetry_cell_setting            triclinic
loop_
_symmetry_equiv_pos_as_xyz
  x,y,z
_cell_length_a                    34.2274
_cell_length_b                    14.9173
_cell_length_c                    21.7586
_cell_angle_alpha                 90.0000
_cell_angle_beta                  146.1230
_cell_angle_gamma                 90.0000
loop_
_atom_site_label
_atom_site_type_symbol
_atom_site_fract_x
_atom_site_fract_y
_atom_site_fract_z
_atom_site_U_iso_or_equiv
_atom_site_adp_type
_atom_site_occupancy
C1     C     0.77181   0.41384   0.24791   0.00000  Uiso   1.00
C2     C     0.72758   0.36356   0.23726   0.00000  Uiso   1.00
C3     C     0.72067   0.27114   0.23230   0.00000  Uiso   1.00
C4     C     0.67775   0.23820   0.22256   0.00000  Uiso   1.00
C5     C     0.61433   0.15138   0.20667   0.00000  Uiso   1.00
C6     C     0.72195   0.47812   0.15026   0.00000  Uiso   1.00
C7     C     0.71032   0.48202   0.07216   0.00000  Uiso   1.00
C8     C     0.66267   0.54554   0.98920   0.00000  Uiso   1.00
C9     C     0.59055   0.63662   0.83828   0.00000  Uiso   1.00
C10    C     0.82207   0.47239   0.35040   0.00000  Uiso   1.00
C11    C     0.89462   0.47151   0.44057   0.00000  Uiso   1.00
C12    C     0.93126   0.53022   0.52610   0.00000  Uiso   1.00
C13    C     0.01460   0.61241   0.68593   0.00000  Uiso   1.00
C14    C     0.70787   0.51970   0.23945   0.00000  Uiso   1.00
C15    C     0.69285   0.42106   0.23266   0.00000  Uiso   1.00
C16    C     0.64993   0.38826   0.22294   0.00000  Uiso   1.00
C17    C     0.64296   0.29580   0.21796   0.00000  Uiso   1.00
C18    C     0.68722   0.53562   0.14566   0.00000  Uiso   1.00
C19    C     0.63958   0.59915   0.06280   0.00000  Uiso   1.00
C20    C     0.62787   0.60314   0.98459   0.00000  Uiso   1.00
C21    C     0.78735   0.52989   0.34581   0.00000  Uiso   1.00
C22    C     0.82388   0.58863   0.43121   0.00000  Uiso   1.00
C23    C     0.89647   0.58783   0.52149   0.00000  Uiso   1.00
H24    H     0.79885   0.36908   0.25149   0.00000  Uiso   1.00
H25    H     0.74755   0.22666   0.23585   0.00000  Uiso   1.00
H26    H     0.73721   0.43752   0.07575   0.00000  Uiso   1.00
H27    H     0.92148   0.42700   0.44410   0.00000  Uiso   1.00
H28    H     0.67535   0.09412   0.21645   0.00000  Uiso   1.00
H29    H     0.65355   0.53876   0.87888   0.00000  Uiso   1.00
H30    H     0.04213   0.51658   0.65563   0.00000  Uiso   1.00
H31    H     0.68083   0.56447   0.23587   0.00000  Uiso   1.00
H32    H     0.62306   0.43277   0.21938   0.00000  Uiso   1.00
H33    H     0.61272   0.64363   0.05927   0.00000  Uiso   1.00
H34    H     0.79699   0.63311   0.42762   0.00000  Uiso   1.00
H35    H     0.57431   0.26141   0.20307   0.00000  Uiso   1.00
H36    H     0.55251   0.70605   0.86551   0.00000  Uiso   1.00
H37    H     0.94109   0.68387   0.64225   0.00000  Uiso   1.00
O38    O     0.58894   0.08760   0.19916   0.00000  Uiso   1.00
O39    O     0.56035   0.67096   0.75630   0.00000  Uiso   1.00
O40    O     0.07015   0.64186   0.77537   0.00000  Uiso   1.00
N41    N     0.65951   0.15157   0.21559   0.00000  Uiso   1.00
N42    N     0.63912   0.56726   0.89997   0.00000  Uiso   1.00
N43    N     0.00241   0.54655   0.62615   0.00000  Uiso   1.00
N44    N     0.60514   0.24158   0.20839   0.00000  Uiso   1.00
N45    N     0.58475   0.65728   0.89277   0.00000  Uiso   1.00
N46    N     0.94804   0.63656   0.61895   0.00000  Uiso   1.00
C47    C     0.27181   0.91384   0.24791   0.00000  Uiso   1.00
C48    C     0.22758   0.86356   0.23726   0.00000  Uiso   1.00
C49    C     0.22067   0.77114   0.23230   0.00000  Uiso   1.00
C50    C     0.17775   0.73820   0.22256   0.00000  Uiso   1.00
C51    C     0.11433   0.65138   0.20667   0.00000  Uiso   1.00
C52    C     0.22195   0.97812   0.15026   0.00000  Uiso   1.00
C53    C     0.21032   0.98202   0.07216   0.00000  Uiso   1.00
C54    C     0.16267   0.04554   0.98920   0.00000  Uiso   1.00
C55    C     0.09055   0.13662   0.83828   0.00000  Uiso   1.00
C56    C     0.32207   0.97239   0.35040   0.00000  Uiso   1.00
C57    C     0.39462   0.97151   0.44057   0.00000  Uiso   1.00
C58    C     0.43126   0.03022   0.52610   0.00000  Uiso   1.00
C59    C     0.51460   0.11241   0.68593   0.00000  Uiso   1.00
C60    C     0.20787   0.01970   0.23945   0.00000  Uiso   1.00
C61    C     0.19285   0.92106   0.23266   0.00000  Uiso   1.00
C62    C     0.14993   0.88826   0.22294   0.00000  Uiso   1.00
C63    C     0.14296   0.79580   0.21796   0.00000  Uiso   1.00
C64    C     0.18722   0.03562   0.14566   0.00000  Uiso   1.00
C65    C     0.13958   0.09915   0.06280   0.00000  Uiso   1.00
C66    C     0.12787   0.10314   0.98459   0.00000  Uiso   1.00
C67    C     0.28735   0.02989   0.34581   0.00000  Uiso   1.00
C68    C     0.32388   0.08863   0.43121   0.00000  Uiso   1.00
C69    C     0.39647   0.08783   0.52149   0.00000  Uiso   1.00
H70    H     0.29885   0.86908   0.25149   0.00000  Uiso   1.00
H71    H     0.24755   0.72666   0.23585   0.00000  Uiso   1.00
H72    H     0.23721   0.93752   0.07575   0.00000  Uiso   1.00
H73    H     0.42148   0.92700   0.44410   0.00000  Uiso   1.00
H74    H     0.17535   0.59412   0.21645   0.00000  Uiso   1.00
H75    H     0.15355   0.03876   0.87888   0.00000  Uiso   1.00
H76    H     0.54213   0.01658   0.65563   0.00000  Uiso   1.00
H77    H     0.18083   0.06447   0.23587   0.00000  Uiso   1.00
H78    H     0.12306   0.93277   0.21938   0.00000  Uiso   1.00
H79    H     0.11272   0.14363   0.05927   0.00000  Uiso   1.00
H80    H     0.29699   0.13311   0.42762   0.00000  Uiso   1.00
H81    H     0.07431   0.76141   0.20307   0.00000  Uiso   1.00
H82    H     0.05251   0.20605   0.86551   0.00000  Uiso   1.00
H83    H     0.44109   0.18387   0.64225   0.00000  Uiso   1.00
O84    O     0.08894   0.58760   0.19916   0.00000  Uiso   1.00
O85    O     0.06035   0.17096   0.75630   0.00000  Uiso   1.00
O86    O     0.57015   0.14186   0.77537   0.00000  Uiso   1.00
N87    N     0.15951   0.65157   0.21559   0.00000  Uiso   1.00
N88    N     0.13912   0.06726   0.89997   0.00000  Uiso   1.00
N89    N     0.50241   0.04655   0.62615   0.00000  Uiso   1.00
N90    N     0.10514   0.74158   0.20839   0.00000  Uiso   1.00
N91    N     0.08475   0.15728   0.89277   0.00000  Uiso   1.00
N92    N     0.44804   0.13656   0.61895   0.00000  Uiso   1.00
C93    C     0.22819   0.41384   0.25209   0.00000  Uiso   1.00
C94    C     0.27242   0.36356   0.26274   0.00000  Uiso   1.00
C95    C     0.27933   0.27114   0.26770   0.00000  Uiso   1.00
C96    C     0.32225   0.23820   0.27744   0.00000  Uiso   1.00
C97    C     0.38567   0.15138   0.29333   0.00000  Uiso   1.00
C98    C     0.27805   0.47812   0.34974   0.00000  Uiso   1.00
C99    C     0.28968   0.48202   0.42784   0.00000  Uiso   1.00
C100   C     0.33733   0.54554   0.51080   0.00000  Uiso   1.00
C101   C     0.40945   0.63662   0.66172   0.00000  Uiso   1.00
C102   C     0.17793   0.47239   0.14960   0.00000  Uiso   1.00
C103   C     0.10538   0.47151   0.05943   0.00000  Uiso   1.00
C104   C     0.06874   0.53022   0.97390   0.00000  Uiso   1.00
C105   C     0.98540   0.61241   0.81407   0.00000  Uiso   1.00
C106   C     0.29213   0.51970   0.26055   0.00000  Uiso   1.00
C107   C     0.30715   0.42106   0.26734   0.00000  Uiso   1.00
C108   C     0.35007   0.38826   0.27706   0.00000  Uiso   1.00
C109   C     0.35704   0.29580   0.28204   0.00000  Uiso   1.00
C110   C     0.31278   0.53562   0.35434   0.00000  Uiso   1.00
C111   C     0.36042   0.59915   0.43720   0.00000  Uiso   1.00
C112   C     0.37213   0.60314   0.51541   0.00000  Uiso   1.00
C113   C     0.21265   0.52989   0.15419   0.00000  Uiso   1.00
C114   C     0.17612   0.58863   0.06879   0.00000  Uiso   1.00
C115   C     0.10353   0.58783   0.97851   0.00000  Uiso   1.00
H116   H     0.20115   0.36908   0.24851   0.00000  Uiso   1.00
H117   H     0.25245   0.22666   0.26415   0.00000  Uiso   1.00
H118   H     0.26279   0.43752   0.42425   0.00000  Uiso   1.00
H119   H     0.07852   0.42700   0.05590   0.00000  Uiso   1.00
H120   H     0.32465   0.09412   0.28355   0.00000  Uiso   1.00
H121   H     0.34645   0.53876   0.62112   0.00000  Uiso   1.00
H122   H     0.95787   0.51658   0.84437   0.00000  Uiso   1.00
H123   H     0.31917   0.56447   0.26413   0.00000  Uiso   1.00
H124   H     0.37694   0.43277   0.28062   0.00000  Uiso   1.00
H125   H     0.38728   0.64363   0.44073   0.00000  Uiso   1.00
H126   H     0.20301   0.63311   0.07238   0.00000  Uiso   1.00
H127   H     0.42569   0.26141   0.29693   0.00000  Uiso   1.00
H128   H     0.44749   0.70605   0.63449   0.00000  Uiso   1.00
H129   H     0.05891   0.68387   0.85775   0.00000  Uiso   1.00
O130   O     0.41106   0.08760   0.30084   0.00000  Uiso   1.00
O131   O     0.43965   0.67096   0.74370   0.00000  Uiso   1.00
O132   O     0.92985   0.64186   0.72463   0.00000  Uiso   1.00
N133   N     0.34049   0.15157   0.28441   0.00000  Uiso   1.00
N134   N     0.36088   0.56726   0.60003   0.00000  Uiso   1.00
N135   N     0.99759   0.54655   0.87385   0.00000  Uiso   1.00
N136   N     0.39486   0.24158   0.29161   0.00000  Uiso   1.00
N137   N     0.41525   0.65728   0.60723   0.00000  Uiso   1.00
N138   N     0.05196   0.63656   0.88105   0.00000  Uiso   1.00
C139   C     0.72819   0.91384   0.25209   0.00000  Uiso   1.00
C140   C     0.77242   0.86356   0.26274   0.00000  Uiso   1.00
C141   C     0.77933   0.77114   0.26770   0.00000  Uiso   1.00
C142   C     0.82225   0.73820   0.27744   0.00000  Uiso   1.00
C143   C     0.88567   0.65138   0.29333   0.00000  Uiso   1.00
C144   C     0.77805   0.97812   0.34974   0.00000  Uiso   1.00
C145   C     0.78968   0.98202   0.42784   0.00000  Uiso   1.00
C146   C     0.83733   0.04554   0.51080   0.00000  Uiso   1.00
C147   C     0.90945   0.13662   0.66172   0.00000  Uiso   1.00
C148   C     0.67793   0.97239   0.14960   0.00000  Uiso   1.00
C149   C     0.60538   0.97151   0.05943   0.00000  Uiso   1.00
C150   C     0.56874   0.03022   0.97390   0.00000  Uiso   1.00
C151   C     0.48540   0.11241   0.81407   0.00000  Uiso   1.00
C152   C     0.79213   0.01970   0.26055   0.00000  Uiso   1.00
C153   C     0.80715   0.92106   0.26734   0.00000  Uiso   1.00
C154   C     0.85007   0.88826   0.27706   0.00000  Uiso   1.00
C155   C     0.85704   0.79580   0.28204   0.00000  Uiso   1.00
C156   C     0.81278   0.03562   0.35434   0.00000  Uiso   1.00
C157   C     0.86042   0.09915   0.43720   0.00000  Uiso   1.00
C158   C     0.87213   0.10314   0.51541   0.00000  Uiso   1.00
C159   C     0.71265   0.02989   0.15419   0.00000  Uiso   1.00
C160   C     0.67612   0.08863   0.06879   0.00000  Uiso   1.00
C161   C     0.60353   0.08783   0.97851   0.00000  Uiso   1.00
H162   H     0.70115   0.86908   0.24851   0.00000  Uiso   1.00
H163   H     0.75245   0.72666   0.26415   0.00000  Uiso   1.00
H164   H     0.76279   0.93752   0.42425   0.00000  Uiso   1.00
H165   H     0.57852   0.92700   0.05590   0.00000  Uiso   1.00
H166   H     0.82465   0.59412   0.28355   0.00000  Uiso   1.00
H167   H     0.84645   0.03876   0.62112   0.00000  Uiso   1.00
H168   H     0.45787   0.01658   0.84437   0.00000  Uiso   1.00
H169   H     0.81917   0.06447   0.26413   0.00000  Uiso   1.00
H170   H     0.87694   0.93277   0.28062   0.00000  Uiso   1.00
H171   H     0.88728   0.14363   0.44073   0.00000  Uiso   1.00
H172   H     0.70301   0.13311   0.07238   0.00000  Uiso   1.00
H173   H     0.92569   0.76141   0.29693   0.00000  Uiso   1.00
H174   H     0.94749   0.20605   0.63449   0.00000  Uiso   1.00
H175   H     0.55891   0.18387   0.85775   0.00000  Uiso   1.00
O176   O     0.91106   0.58760   0.30084   0.00000  Uiso   1.00
O177   O     0.93965   0.17096   0.74370   0.00000  Uiso   1.00
O178   O     0.42985   0.14186   0.72463   0.00000  Uiso   1.00
N179   N     0.84049   0.65157   0.28441   0.00000  Uiso   1.00
N180   N     0.86088   0.06726   0.60003   0.00000  Uiso   1.00
N181   N     0.49759   0.04655   0.87385   0.00000  Uiso   1.00
N182   N     0.89486   0.74158   0.29161   0.00000  Uiso   1.00
N183   N     0.91525   0.15728   0.60723   0.00000  Uiso   1.00
N184   N     0.55196   0.13656   0.88105   0.00000  Uiso   1.00
C185   C     0.22819   0.58616   0.75209   0.00000  Uiso   1.00
C186   C     0.27242   0.63644   0.76274   0.00000  Uiso   1.00
C187   C     0.27933   0.72886   0.76770   0.00000  Uiso   1.00
C188   C     0.32225   0.76180   0.77744   0.00000  Uiso   1.00
C189   C     0.38567   0.84862   0.79333   0.00000  Uiso   1.00
C190   C     0.27805   0.52188   0.84974   0.00000  Uiso   1.00
C191   C     0.28968   0.51798   0.92784   0.00000  Uiso   1.00
C192   C     0.33733   0.45446   0.01080   0.00000  Uiso   1.00
C193   C     0.40945   0.36338   0.16172   0.00000  Uiso   1.00
C194   C     0.17793   0.52761   0.64960   0.00000  Uiso   1.00
C195   C     0.10538   0.52849   0.55943   0.00000  Uiso   1.00
C196   C     0.06874   0.46978   0.47390   0.00000  Uiso   1.00
C197   C     0.98540   0.38759   0.31407   0.00000  Uiso   1.00
C198   C     0.29213   0.48030   0.76055   0.00000  Uiso   1.00
C199   C     0.30715   0.57894   0.76734   0.00000  Uiso   1.00
C200   C     0.35007   0.61174   0.77706   0.00000  Uiso   1.00
C201   C     0.35704   0.70420   0.78204   0.00000  Uiso   1.00
C202   C     0.31278   0.46438   0.85434   0.00000  Uiso   1.00
C203   C     0.36042   0.40085   0.93720   0.00000  Uiso   1.00
C204   C     0.37213   0.39686   0.01541   0.00000  Uiso   1.00
C205   C     0.21265   0.47011   0.65419   0.00000  Uiso   1.00
C206   C     0.17612   0.41137   0.56879   0.00000  Uiso   1.00
C207   C     0.10353   0.41217   0.47851   0.00000  Uiso   1.00
H208   H     0.20115   0.63092   0.74851   0.00000  Uiso   1.00
H209   H     0.25245   0.77334   0.76415   0.00000  Uiso   1.00
H210   H     0.26279   0.56248   0.92425   0.00000  Uiso   1.00
H211   H     0.07852   0.57300   0.55590   0.00000  Uiso   1.00
H212   H     0.32465   0.90588   0.78355   0.00000  Uiso   1.00
H213   H     0.34645   0.46124   0.12112   0.00000  Uiso   1.00
H214   H     0.95787   0.48342   0.34437   0.00000  Uiso   1.00
H215   H     0.31917   0.43553   0.76413   0.00000  Uiso   1.00
H216   H     0.37694   0.56723   0.78062   0.00000  Uiso   1.00
H217   H     0.38728   0.35637   0.94073   0.00000  Uiso   1.00
H218   H     0.20301   0.36689   0.57238   0.00000  Uiso   1.00
H219   H     0.42569   0.73859   0.79693   0.00000  Uiso   1.00
H220   H     0.44749   0.29395   0.13449   0.00000  Uiso   1.00
H221   H     0.05891   0.31613   0.35775   0.00000  Uiso   1.00
O222   O     0.41106   0.91240   0.80084   0.00000  Uiso   1.00
O223   O     0.43965   0.32904   0.24370   0.00000  Uiso   1.00
O224   O     0.92985   0.35814   0.22463   0.00000  Uiso   1.00
N225   N     0.34049   0.84843   0.78441   0.00000  Uiso   1.00
N226   N     0.36088   0.43274   0.10003   0.00000  Uiso   1.00
N227   N     0.99759   0.45345   0.37385   0.00000  Uiso   1.00
N228   N     0.39486   0.75842   0.79161   0.00000  Uiso   1.00
N229   N     0.41525   0.34272   0.10723   0.00000  Uiso   1.00
N230   N     0.05196   0.36344   0.38105   0.00000  Uiso   1.00
C231   C     0.72819   0.08616   0.75209   0.00000  Uiso   1.00
C232   C     0.77242   0.13644   0.76274   0.00000  Uiso   1.00
C233   C     0.77933   0.22886   0.76770   0.00000  Uiso   1.00
C234   C     0.82225   0.26180   0.77744   0.00000  Uiso   1.00
C235   C     0.88567   0.34862   0.79333   0.00000  Uiso   1.00
C236   C     0.77805   0.02188   0.84974   0.00000  Uiso   1.00
C237   C     0.78968   0.01798   0.92784   0.00000  Uiso   1.00
C238   C     0.83733   0.95446   0.01080   0.00000  Uiso   1.00
C239   C     0.90945   0.86338   0.16172   0.00000  Uiso   1.00
C240   C     0.67793   0.02761   0.64960   0.00000  Uiso   1.00
C241   C     0.60538   0.02849   0.55943   0.00000  Uiso   1.00
C242   C     0.56874   0.96978   0.47390   0.00000  Uiso   1.00
C243   C     0.48540   0.88759   0.31407   0.00000  Uiso   1.00
C244   C     0.79213   0.98030   0.76055   0.00000  Uiso   1.00
C245   C     0.80715   0.07894   0.76734   0.00000  Uiso   1.00
C246   C     0.85007   0.11174   0.77706   0.00000  Uiso   1.00
C247   C     0.85704   0.20420   0.78204   0.00000  Uiso   1.00
C248   C     0.81278   0.96438   0.85434   0.00000  Uiso   1.00
C249   C     0.86042   0.90085   0.93720   0.00000  Uiso   1.00
C250   C     0.87213   0.89686   0.01541   0.00000  Uiso   1.00
C251   C     0.71265   0.97011   0.65419   0.00000  Uiso   1.00
C252   C     0.67612   0.91137   0.56879   0.00000  Uiso   1.00
C253   C     0.60353   0.91217   0.47851   0.00000  Uiso   1.00
H254   H     0.70115   0.13092   0.74851   0.00000  Uiso   1.00
H255   H     0.75245   0.27334   0.76415   0.00000  Uiso   1.00
H256   H     0.76279   0.06248   0.92425   0.00000  Uiso   1.00
H257   H     0.57852   0.07300   0.55590   0.00000  Uiso   1.00
H258   H     0.82465   0.40588   0.78355   0.00000  Uiso   1.00
H259   H     0.84645   0.96124   0.12112   0.00000  Uiso   1.00
H260   H     0.45787   0.98342   0.34437   0.00000  Uiso   1.00
H261   H     0.81917   0.93553   0.76413   0.00000  Uiso   1.00
H262   H     0.87694   0.06723   0.78062   0.00000  Uiso   1.00
H263   H     0.88728   0.85637   0.94073   0.00000  Uiso   1.00
H264   H     0.70301   0.86689   0.57238   0.00000  Uiso   1.00
H265   H     0.92569   0.23859   0.79693   0.00000  Uiso   1.00
H266   H     0.94749   0.79395   0.13449   0.00000  Uiso   1.00
H267   H     0.55891   0.81613   0.35775   0.00000  Uiso   1.00
O268   O     0.91106   0.41240   0.80084   0.00000  Uiso   1.00
O269   O     0.93965   0.82904   0.24370   0.00000  Uiso   1.00
O270   O     0.42985   0.85814   0.22463   0.00000  Uiso   1.00
N271   N     0.84049   0.34843   0.78441   0.00000  Uiso   1.00
N272   N     0.86088   0.93274   0.10003   0.00000  Uiso   1.00
N273   N     0.49759   0.95345   0.37385   0.00000  Uiso   1.00
N274   N     0.89486   0.25842   0.79161   0.00000  Uiso   1.00
N275   N     0.91525   0.84272   0.10723   0.00000  Uiso   1.00
N276   N     0.55196   0.86344   0.38105   0.00000  Uiso   1.00
C277   C     0.77181   0.58616   0.74791   0.00000  Uiso   1.00
C278   C     0.72758   0.63644   0.73726   0.00000  Uiso   1.00
C279   C     0.72067   0.72886   0.73230   0.00000  Uiso   1.00
C280   C     0.67775   0.76180   0.72256   0.00000  Uiso   1.00
C281   C     0.61433   0.84862   0.70667   0.00000  Uiso   1.00
C282   C     0.72195   0.52188   0.65026   0.00000  Uiso   1.00
C283   C     0.71032   0.51798   0.57216   0.00000  Uiso   1.00
C284   C     0.66267   0.45446   0.48920   0.00000  Uiso   1.00
C285   C     0.59055   0.36338   0.33828   0.00000  Uiso   1.00
C286   C     0.82207   0.52761   0.85040   0.00000  Uiso   1.00
C287   C     0.89462   0.52849   0.94057   0.00000  Uiso   1.00
C288   C     0.93126   0.46978   0.02610   0.00000  Uiso   1.00
C289   C     0.01460   0.38759   0.18593   0.00000  Uiso   1.00
C290   C     0.70787   0.48030   0.73945   0.00000  Uiso   1.00
C291   C     0.69285   0.57894   0.73266   0.00000  Uiso   1.00
C292   C     0.64993   0.61174   0.72294   0.00000  Uiso   1.00
C293   C     0.64296   0.70420   0.71796   0.00000  Uiso   1.00
C294   C     0.68722   0.46438   0.64566   0.00000  Uiso   1.00
C295   C     0.63958   0.40085   0.56280   0.00000  Uiso   1.00
C296   C     0.62787   0.39686   0.48459   0.00000  Uiso   1.00
C297   C     0.78735   0.47011   0.84581   0.00000  Uiso   1.00
C298   C     0.82388   0.41137   0.93121   0.00000  Uiso   1.00
C299   C     0.89647   0.41217   0.02149   0.00000  Uiso   1.00
H300   H     0.79885   0.63092   0.75149   0.00000  Uiso   1.00
H301   H     0.74755   0.77334   0.73585   0.00000  Uiso   1.00
H302   H     0.73721   0.56248   0.57575   0.00000  Uiso   1.00
H303   H     0.92148   0.57300   0.94410   0.00000  Uiso   1.00
H304   H     0.67535   0.90588   0.71645   0.00000  Uiso   1.00
H305   H     0.65355   0.46124   0.37888   0.00000  Uiso   1.00
H306   H     0.04213   0.48342   0.15563   0.00000  Uiso   1.00
H307   H     0.68083   0.43553   0.73587   0.00000  Uiso   1.00
H308   H     0.62306   0.56723   0.71938   0.00000  Uiso   1.00
H309   H     0.61272   0.35637   0.55927   0.00000  Uiso   1.00
H310   H     0.79699   0.36689   0.92762   0.00000  Uiso   1.00
H311   H     0.57431   0.73859   0.70307   0.00000  Uiso   1.00
H312   H     0.55251   0.29395   0.36551   0.00000  Uiso   1.00
H313   H     0.94109   0.31613   0.14225   0.00000  Uiso   1.00
O314   O     0.58894   0.91240   0.69916   0.00000  Uiso   1.00
O315   O     0.56035   0.32904   0.25630   0.00000  Uiso   1.00
O316   O     0.07015   0.35814   0.27537   0.00000  Uiso   1.00
N317   N     0.65951   0.84843   0.71559   0.00000  Uiso   1.00
N318   N     0.63912   0.43274   0.39997   0.00000  Uiso   1.00
N319   N     0.00241   0.45345   0.12615   0.00000  Uiso   1.00
N320   N     0.60514   0.75842   0.70839   0.00000  Uiso   1.00
N321   N     0.58475   0.34272   0.39277   0.00000  Uiso   1.00
N322   N     0.94804   0.36344   0.11895   0.00000  Uiso   1.00
C323   C     0.27181   0.08616   0.74791   0.00000  Uiso   1.00
C324   C     0.22758   0.13644   0.73726   0.00000  Uiso   1.00
C325   C     0.22067   0.22886   0.73230   0.00000  Uiso   1.00
C326   C     0.17775   0.26180   0.72256   0.00000  Uiso   1.00
C327   C     0.11433   0.34862   0.70667   0.00000  Uiso   1.00
C328   C     0.22195   0.02188   0.65026   0.00000  Uiso   1.00
C329   C     0.21032   0.01798   0.57216   0.00000  Uiso   1.00
C330   C     0.16267   0.95446   0.48920   0.00000  Uiso   1.00
C331   C     0.09055   0.86338   0.33828   0.00000  Uiso   1.00
C332   C     0.32207   0.02761   0.85040   0.00000  Uiso   1.00
C333   C     0.39462   0.02849   0.94057   0.00000  Uiso   1.00
C334   C     0.43126   0.96978   0.02610   0.00000  Uiso   1.00
C335   C     0.51460   0.88759   0.18593   0.00000  Uiso   1.00
C336   C     0.20787   0.98030   0.73945   0.00000  Uiso   1.00
C337   C     0.19285   0.07894   0.73266   0.00000  Uiso   1.00
C338   C     0.14993   0.11174   0.72294   0.00000  Uiso   1.00
C339   C     0.14296   0.20420   0.71796   0.00000  Uiso   1.00
C340   C     0.18722   0.96438   0.64566   0.00000  Uiso   1.00
C341   C     0.13958   0.90085   0.56280   0.00000  Uiso   1.00
C342   C     0.12787   0.89686   0.48459   0.00000  Uiso   1.00
C343   C     0.28735   0.97011   0.84581   0.00000  Uiso   1.00
C344   C     0.32388   0.91137   0.93121   0.00000  Uiso   1.00
C345   C     0.39647   0.91217   0.02149   0.00000  Uiso   1.00
H346   H     0.29885   0.13092   0.75149   0.00000  Uiso   1.00
H347   H     0.24755   0.27334   0.73585   0.00000  Uiso   1.00
H348   H     0.23721   0.06248   0.57575   0.00000  Uiso   1.00
H349   H     0.42148   0.07300   0.94410   0.00000  Uiso   1.00
H350   H     0.17535   0.40588   0.71645   0.00000  Uiso   1.00
H351   H     0.15355   0.96124   0.37888   0.00000  Uiso   1.00
H352   H     0.54213   0.98342   0.15563   0.00000  Uiso   1.00
H353   H     0.18083   0.93553   0.73587   0.00000  Uiso   1.00
H354   H     0.12306   0.06723   0.71938   0.00000  Uiso   1.00
H355   H     0.11272   0.85637   0.55927   0.00000  Uiso   1.00
H356   H     0.29699   0.86689   0.92762   0.00000  Uiso   1.00
H357   H     0.07431   0.23859   0.70307   0.00000  Uiso   1.00
H358   H     0.05251   0.79395   0.36551   0.00000  Uiso   1.00
H359   H     0.44109   0.81613   0.14225   0.00000  Uiso   1.00
O360   O     0.08894   0.41240   0.69916   0.00000  Uiso   1.00
O361   O     0.06035   0.82904   0.25630   0.00000  Uiso   1.00
O362   O     0.57015   0.85814   0.27537   0.00000  Uiso   1.00
N363   N     0.15951   0.34843   0.71559   0.00000  Uiso   1.00
N364   N     0.13912   0.93274   0.39997   0.00000  Uiso   1.00
N365   N     0.50241   0.95345   0.12615   0.00000  Uiso   1.00
N366   N     0.10514   0.25842   0.70839   0.00000  Uiso   1.00
N367   N     0.08475   0.84272   0.39277   0.00000  Uiso   1.00
N368   N     0.44804   0.86344   0.11895   0.00000  Uiso   1.00
