data_job_06903
_audit_creation_date              2018-12-19
_audit_creation_method            'Materials Studio'
_symmetry_space_group_name_H-M    'P1'
_symmetry_Int_Tables_number       1
_symmetry_cell_setting            triclinic
loop_
_symmetry_equiv_pos_as_xyz
  x,y,z
_cell_length_a                    19.9187
_cell_length_b                    22.6127
_cell_length_c                    18.5837
_cell_angle_alpha                 88.6420
_cell_angle_beta                  96.1352
_cell_angle_gamma                 76.1484
loop_
_atom_site_label
_atom_site_type_symbol
_atom_site_fract_x
_atom_site_fract_y
_atom_site_fract_z
_atom_site_U_iso_or_equiv
_atom_site_adp_type
_atom_site_occupancy
C1     C     0.51605   0.47471   0.27844   0.00000  Uiso   1.00
C2     C     0.51073   0.52283   0.21783   0.00000  Uiso   1.00
C3     C     0.55267   0.56363   0.21534   0.00000  Uiso   1.00
C4     C     0.53948   0.60409   0.15523   0.00000  Uiso   1.00
C5     C     0.53930   0.67889   0.06959   0.00000  Uiso   1.00
C6     C     0.44439   0.48699   0.30500   0.00000  Uiso   1.00
C7     C     0.43055   0.49764   0.37580   0.00000  Uiso   1.00
C8     C     0.36152   0.50793   0.38907   0.00000  Uiso   1.00
C9     C     0.25834   0.52704   0.43878   0.00000  Uiso   1.00
C10    C     0.52588   0.41383   0.24237   0.00000  Uiso   1.00
C11    C     0.58054   0.36296   0.26054   0.00000  Uiso   1.00
C12    C     0.58010   0.31164   0.22109   0.00000  Uiso   1.00
C13    C     0.60345   0.21716   0.17356   0.00000  Uiso   1.00
C14    C     0.41807   0.47402   0.17612   0.00000  Uiso   1.00
C15    C     0.45751   0.52246   0.16225   0.00000  Uiso   1.00
C16    C     0.44426   0.56287   0.10213   0.00000  Uiso   1.00
C17    C     0.48617   0.60372   0.09955   0.00000  Uiso   1.00
C18    C     0.39117   0.48662   0.24942   0.00000  Uiso   1.00
C19    C     0.32214   0.49689   0.26260   0.00000  Uiso   1.00
C20    C     0.30820   0.50755   0.33340   0.00000  Uiso   1.00
C21    C     0.47266   0.41346   0.18680   0.00000  Uiso   1.00
C22    C     0.47213   0.36220   0.14733   0.00000  Uiso   1.00
C23    C     0.52679   0.31126   0.16542   0.00000  Uiso   1.00
H24    H     0.55748   0.47500   0.32171   0.00000  Uiso   1.00
H25    H     0.59384   0.56391   0.25836   0.00000  Uiso   1.00
H26    H     0.47174   0.49792   0.41880   0.00000  Uiso   1.00
H27    H     0.62171   0.36326   0.30355   0.00000  Uiso   1.00
H28    H     0.61067   0.66233   0.16363   0.00000  Uiso   1.00
H29    H     0.35322   0.52318   0.50193   0.00000  Uiso   1.00
H30    H     0.66946   0.23922   0.25890   0.00000  Uiso   1.00
H31    H     0.37663   0.47373   0.13285   0.00000  Uiso   1.00
H32    H     0.40307   0.56257   0.05913   0.00000  Uiso   1.00
H33    H     0.28097   0.49659   0.21957   0.00000  Uiso   1.00
H34    H     0.43094   0.36193   0.10432   0.00000  Uiso   1.00
H35    H     0.45583   0.66124   0.00193   0.00000  Uiso   1.00
H36    H     0.19838   0.52210   0.34023   0.00000  Uiso   1.00
H37    H     0.51462   0.23814   0.09720   0.00000  Uiso   1.00
O38    O     0.55389   0.72026   0.03771   0.00000  Uiso   1.00
O39    O     0.21614   0.53770   0.48155   0.00000  Uiso   1.00
O40    O     0.63103   0.16515   0.16269   0.00000  Uiso   1.00
N41    N     0.57061   0.64987   0.13568   0.00000  Uiso   1.00
N42    N     0.32991   0.51979   0.45197   0.00000  Uiso   1.00
N43    N     0.62556   0.25430   0.22477   0.00000  Uiso   1.00
N44    N     0.48729   0.64929   0.04867   0.00000  Uiso   1.00
N45    N     0.24659   0.51921   0.36496   0.00000  Uiso   1.00
N46    N     0.54224   0.25372   0.13776   0.00000  Uiso   1.00
C47    C     0.14448   0.37713   0.34388   0.00000  Uiso   1.00
C48    C     0.12440   0.31803   0.32436   0.00000  Uiso   1.00
C49    C     0.07152   0.29679   0.35091   0.00000  Uiso   1.00
C50    C     0.06138   0.24170   0.32643   0.00000  Uiso   1.00
C51    C     0.02394   0.15488   0.30363   0.00000  Uiso   1.00
C52    C     0.22156   0.35895   0.37277   0.00000  Uiso   1.00
C53    C     0.25036   0.37212   0.44003   0.00000  Uiso   1.00
C54    C     0.32200   0.35148   0.45629   0.00000  Uiso   1.00
C55    C     0.43541   0.32824   0.50864   0.00000  Uiso   1.00
C56    C     0.13958   0.41325   0.27237   0.00000  Uiso   1.00
C57    C     0.09947   0.47207   0.25521   0.00000  Uiso   1.00
C58    C     0.10211   0.49715   0.18695   0.00000  Uiso   1.00
C59    C     0.08823   0.55820   0.08341   0.00000  Uiso   1.00
C60    C     0.22049   0.31707   0.25318   0.00000  Uiso   1.00
C61    C     0.16569   0.28541   0.27509   0.00000  Uiso   1.00
C62    C     0.15562   0.23034   0.25056   0.00000  Uiso   1.00
C63    C     0.10273   0.20902   0.27707   0.00000  Uiso   1.00
C64    C     0.26285   0.32633   0.32351   0.00000  Uiso   1.00
C65    C     0.33446   0.30567   0.33968   0.00000  Uiso   1.00
C66    C     0.36337   0.31880   0.40694   0.00000  Uiso   1.00
C67    C     0.18087   0.38062   0.22310   0.00000  Uiso   1.00
C68    C     0.18357   0.40562   0.15486   0.00000  Uiso   1.00
C69    C     0.14347   0.46447   0.13760   0.00000  Uiso   1.00
H70    H     0.11234   0.40253   0.38224   0.00000  Uiso   1.00
H71    H     0.03958   0.32205   0.38904   0.00000  Uiso   1.00
H72    H     0.21840   0.39737   0.47814   0.00000  Uiso   1.00
H73    H     0.06753   0.49731   0.29335   0.00000  Uiso   1.00
H74    H     0.97715   0.21842   0.37488   0.00000  Uiso   1.00
H75    H     0.35419   0.37727   0.56273   0.00000  Uiso   1.00
H76    H     0.03605   0.58800   0.17307   0.00000  Uiso   1.00
H77    H     0.25264   0.29167   0.21483   0.00000  Uiso   1.00
H78    H     0.18758   0.20510   0.21244   0.00000  Uiso   1.00
H79    H     0.36640   0.28043   0.30154   0.00000  Uiso   1.00
H80    H     0.21553   0.38036   0.11675   0.00000  Uiso   1.00
H81    H     0.09727   0.12350   0.23154   0.00000  Uiso   1.00
H82    H     0.47431   0.28235   0.41939   0.00000  Uiso   1.00
H83    H     0.15617   0.49308   0.02974   0.00000  Uiso   1.00
O84    O     0.99189   0.11600   0.30468   0.00000  Uiso   1.00
O85    O     0.48655   0.32442   0.55112   0.00000  Uiso   1.00
O86    O     0.06916   0.60088   0.03991   0.00000  Uiso   1.00
N87    N     0.01434   0.20796   0.34146   0.00000  Uiso   1.00
N88    N     0.36684   0.35647   0.51709   0.00000  Uiso   1.00
N89    N     0.06943   0.55349   0.15281   0.00000  Uiso   1.00
N90    N     0.07897   0.15689   0.26433   0.00000  Uiso   1.00
N91    N     0.43148   0.30540   0.43997   0.00000  Uiso   1.00
N92    N     0.13406   0.50242   0.07568   0.00000  Uiso   1.00
C93    C     0.47032   0.07547   0.57815   0.00000  Uiso   1.00
C94    C     0.50095   0.00699   0.57640   0.00000  Uiso   1.00
C95    C     0.53130   0.96797   0.63600   0.00000  Uiso   1.00
C96    C     0.55625   0.90685   0.62307   0.00000  Uiso   1.00
C97    C     0.60465   0.80376   0.63099   0.00000  Uiso   1.00
C98    C     0.50818   0.10557   0.52643   0.00000  Uiso   1.00
C99    C     0.54460   0.14943   0.54402   0.00000  Uiso   1.00
C100   C     0.57562   0.17129   0.48903   0.00000  Uiso   1.00
C101   C     0.63520   0.22127   0.41937   0.00000  Uiso   1.00
C102   C     0.39519   0.08701   0.54326   0.00000  Uiso   1.00
C103   C     0.33661   0.11529   0.57499   0.00000  Uiso   1.00
C104   C     0.27250   0.12154   0.53415   0.00000  Uiso   1.00
C105   C     0.15665   0.14272   0.49062   0.00000  Uiso   1.00
C106   C     0.46064   0.03630   0.44921   0.00000  Uiso   1.00
C107   C     0.49570   0.98572   0.50636   0.00000  Uiso   1.00
C108   C     0.52060   0.92463   0.49333   0.00000  Uiso   1.00
C109   C     0.55098   0.88553   0.55291   0.00000  Uiso   1.00
C110   C     0.50293   0.08429   0.45640   0.00000  Uiso   1.00
C111   C     0.53390   0.10609   0.40136   0.00000  Uiso   1.00
C112   C     0.57035   0.14997   0.41886   0.00000  Uiso   1.00
C113   C     0.38994   0.06573   0.47322   0.00000  Uiso   1.00
C114   C     0.32591   0.07195   0.43233   0.00000  Uiso   1.00
C115   C     0.26724   0.10023   0.46399   0.00000  Uiso   1.00
H116   H     0.47441   0.09204   0.63268   0.00000  Uiso   1.00
H117   H     0.53536   0.98446   0.69019   0.00000  Uiso   1.00
H118   H     0.54865   0.16589   0.59823   0.00000  Uiso   1.00
H119   H     0.34070   0.13175   0.62919   0.00000  Uiso   1.00
H120   H     0.60065   0.85581   0.72306   0.00000  Uiso   1.00
H121   H     0.62864   0.23838   0.52915   0.00000  Uiso   1.00
H122   H     0.19013   0.16640   0.59444   0.00000  Uiso   1.00
H123   H     0.45655   0.01974   0.39467   0.00000  Uiso   1.00
H124   H     0.51653   0.90818   0.43913   0.00000  Uiso   1.00
H125   H     0.52982   0.08962   0.34717   0.00000  Uiso   1.00
H126   H     0.32186   0.05548   0.37813   0.00000  Uiso   1.00
H127   H     0.58537   0.79390   0.51929   0.00000  Uiso   1.00
H128   H     0.61336   0.17648   0.32538   0.00000  Uiso   1.00
H129   H     0.17484   0.10449   0.39067   0.00000  Uiso   1.00
O130   O     0.63280   0.75278   0.65471   0.00000  Uiso   1.00
O131   O     0.66952   0.25471   0.40030   0.00000  Uiso   1.00
O132   O     0.09420   0.16026   0.48596   0.00000  Uiso   1.00
N133   N     0.58881   0.85654   0.66901   0.00000  Uiso   1.00
N134   N     0.61499   0.21422   0.48771   0.00000  Uiso   1.00
N135   N     0.20502   0.14694   0.54874   0.00000  Uiso   1.00
N136   N     0.58058   0.82323   0.55936   0.00000  Uiso   1.00
N137   N     0.60677   0.18091   0.37806   0.00000  Uiso   1.00
N138   N     0.19679   0.11362   0.43910   0.00000  Uiso   1.00
C139   C     0.98058   0.56693   0.88564   0.00000  Uiso   1.00
C140   C     0.92501   0.53245   0.89636   0.00000  Uiso   1.00
C141   C     0.92362   0.49573   0.95681   0.00000  Uiso   1.00
C142   C     0.86834   0.46816   0.95620   0.00000  Uiso   1.00
C143   C     0.78995   0.41330   0.98183   0.00000  Uiso   1.00
C144   C     0.94202   0.63372   0.87099   0.00000  Uiso   1.00
C145   C     0.95494   0.68214   0.91010   0.00000  Uiso   1.00
C146   C     0.91398   0.73982   0.88813   0.00000  Uiso   1.00
C147   C     0.86204   0.84219   0.87434   0.00000  Uiso   1.00
C148   C     0.00911   0.54582   0.81515   0.00000  Uiso   1.00
C149   C     0.07844   0.52035   0.80732   0.00000  Uiso   1.00
C150   C     0.09396   0.50404   0.73833   0.00000  Uiso   1.00
C151   C     0.14618   0.46994   0.63786   0.00000  Uiso   1.00
C152   C     0.88488   0.58327   0.77705   0.00000  Uiso   1.00
C153   C     0.87303   0.54133   0.83738   0.00000  Uiso   1.00
C154   C     0.81774   0.51381   0.83667   0.00000  Uiso   1.00
C155   C     0.81626   0.47705   0.89711   0.00000  Uiso   1.00
C156   C     0.89004   0.64260   0.81201   0.00000  Uiso   1.00
C157   C     0.84906   0.70022   0.78997   0.00000  Uiso   1.00
C158   C     0.86191   0.74872   0.82904   0.00000  Uiso   1.00
C159   C     0.95713   0.55470   0.75617   0.00000  Uiso   1.00
C160   C     0.97255   0.53843   0.68718   0.00000  Uiso   1.00
C161   C     0.04189   0.51294   0.67924   0.00000  Uiso   1.00
H162   H     0.02105   0.56002   0.93155   0.00000  Uiso   1.00
H163   H     0.96386   0.48887   0.00245   0.00000  Uiso   1.00
H164   H     0.99518   0.67525   0.95574   0.00000  Uiso   1.00
H165   H     0.11865   0.51349   0.85297   0.00000  Uiso   1.00
H166   H     0.87751   0.41392   0.05504   0.00000  Uiso   1.00
H167   H     0.94357   0.80692   0.95655   0.00000  Uiso   1.00
H168   H     0.20394   0.46581   0.73984   0.00000  Uiso   1.00
H169   H     0.84440   0.59019   0.73113   0.00000  Uiso   1.00
H170   H     0.77752   0.52069   0.79102   0.00000  Uiso   1.00
H171   H     0.80884   0.70708   0.74432   0.00000  Uiso   1.00
H172   H     0.93231   0.54531   0.64155   0.00000  Uiso   1.00
H173   H     0.72627   0.43975   0.88345   0.00000  Uiso   1.00
H174   H     0.79233   0.83276   0.78495   0.00000  Uiso   1.00
H175   H     0.05270   0.49164   0.56824   0.00000  Uiso   1.00
O176   O     0.76107   0.38059   0.01227   0.00000  Uiso   1.00
O177   O     0.84774   0.89620   0.88304   0.00000  Uiso   1.00
O178   O     0.18934   0.44866   0.59873   0.00000  Uiso   1.00
N179   N     0.85110   0.42953   0.00643   0.00000  Uiso   1.00
N180   N     0.91286   0.79696   0.91435   0.00000  Uiso   1.00
N181   N     0.15628   0.47807   0.71175   0.00000  Uiso   1.00
N182   N     0.76972   0.44343   0.91410   0.00000  Uiso   1.00
N183   N     0.83147   0.81086   0.82202   0.00000  Uiso   1.00
N184   N     0.07490   0.49196   0.61941   0.00000  Uiso   1.00
C185   C     0.60081   0.04721   0.03551   0.00000  Uiso   1.00
C186   C     0.52300   0.07651   0.03073   0.00000  Uiso   1.00
C187   C     0.49186   0.12364   0.07180   0.00000  Uiso   1.00
C188   C     0.41993   0.14410   0.05931   0.00000  Uiso   1.00
C189   C     0.30508   0.19354   0.05972   0.00000  Uiso   1.00
C190   C     0.62085   0.05338   0.95925   0.00000  Uiso   1.00
C191   C     0.67200   0.08105   0.94023   0.00000  Uiso   1.00
C192   C     0.68244   0.08203   0.86757   0.00000  Uiso   1.00
C193   C     0.71956   0.09551   0.75703   0.00000  Uiso   1.00
C194   C     0.60898   0.97922   0.05130   0.00000  Uiso   1.00
C195   C     0.65016   0.94452   0.10967   0.00000  Uiso   1.00
C196   C     0.65061   0.88305   0.11450   0.00000  Uiso   1.00
C197   C     0.66929   0.78139   0.14688   0.00000  Uiso   1.00
C198   C     0.52842   0.99974   0.94030   0.00000  Uiso   1.00
C199   C     0.48368   0.05073   0.97901   0.00000  Uiso   1.00
C200   C     0.41177   0.07112   0.96646   0.00000  Uiso   1.00
C201   C     0.38053   0.11827   0.00750   0.00000  Uiso   1.00
C202   C     0.58153   0.02760   0.90754   0.00000  Uiso   1.00
C203   C     0.59191   0.02853   0.83489   0.00000  Uiso   1.00
C204   C     0.64305   0.05620   0.81576   0.00000  Uiso   1.00
C205   C     0.56966   0.95343   0.99959   0.00000  Uiso   1.00
C206   C     0.57005   0.89201   0.00433   0.00000  Uiso   1.00
C207   C     0.61122   0.85723   0.06269   0.00000  Uiso   1.00
H208   H     0.63143   0.06728   0.07577   0.00000  Uiso   1.00
H209   H     0.52231   0.14358   0.11181   0.00000  Uiso   1.00
H210   H     0.70243   0.10099   0.98026   0.00000  Uiso   1.00
H211   H     0.68058   0.96449   0.14967   0.00000  Uiso   1.00
H212   H     0.38400   0.21682   0.12894   0.00000  Uiso   1.00
H213   H     0.76380   0.12699   0.85157   0.00000  Uiso   1.00
H214   H     0.71773   0.83915   0.20881   0.00000  Uiso   1.00
H215   H     0.49780   0.97967   0.90004   0.00000  Uiso   1.00
H216   H     0.38135   0.05116   0.92644   0.00000  Uiso   1.00
H217   H     0.56147   0.00858   0.79489   0.00000  Uiso   1.00
H218   H     0.53962   0.87207   0.96430   0.00000  Uiso   1.00
H219   H     0.26959   0.14181   0.97848   0.00000  Uiso   1.00
H220   H     0.64939   0.05199   0.70111   0.00000  Uiso   1.00
H221   H     0.60332   0.76414   0.05835   0.00000  Uiso   1.00
O222   O     0.25260   0.22794   0.07423   0.00000  Uiso   1.00
O223   O     0.75089   0.11008   0.71034   0.00000  Uiso   1.00
O224   O     0.69045   0.73244   0.17902   0.00000  Uiso   1.00
N225   N     0.37305   0.18934   0.08992   0.00000  Uiso   1.00
N226   N     0.72814   0.10537   0.83059   0.00000  Uiso   1.00
N227   N     0.68508   0.83626   0.16457   0.00000  Uiso   1.00
N228   N     0.31149   0.14898   0.00896   0.00000  Uiso   1.00
N229   N     0.66657   0.06501   0.74963   0.00000  Uiso   1.00
N230   N     0.62351   0.79590   0.08361   0.00000  Uiso   1.00
C231   C     0.99240   0.81029   0.56879   0.00000  Uiso   1.00
C232   C     0.98519   0.76233   0.51410   0.00000  Uiso   1.00
C233   C     0.01137   0.75762   0.44765   0.00000  Uiso   1.00
C234   C     0.99927   0.71055   0.40545   0.00000  Uiso   1.00
C235   C     0.99373   0.64227   0.31698   0.00000  Uiso   1.00
C236   C     0.02686   0.77514   0.63948   0.00000  Uiso   1.00
C237   C     0.08808   0.78121   0.67844   0.00000  Uiso   1.00
C238   C     0.11105   0.74493   0.74180   0.00000  Uiso   1.00
C239   C     0.17019   0.69657   0.84800   0.00000  Uiso   1.00
C240   C     0.91851   0.84187   0.58242   0.00000  Uiso   1.00
C241   C     0.88862   0.90405   0.57343   0.00000  Uiso   1.00
C242   C     0.82037   0.92395   0.58876   0.00000  Uiso   1.00
C243   C     0.71127   0.97920   0.60637   0.00000  Uiso   1.00
C244   C     0.92434   0.73508   0.61203   0.00000  Uiso   1.00
C245   C     0.94822   0.72148   0.53759   0.00000  Uiso   1.00
C246   C     0.93607   0.67441   0.49548   0.00000  Uiso   1.00
C247   C     0.96224   0.66963   0.42898   0.00000  Uiso   1.00
C248   C     0.98990   0.73429   0.66297   0.00000  Uiso   1.00
C249   C     0.01278   0.69800   0.72628   0.00000  Uiso   1.00
C250   C     0.07402   0.70400   0.76533   0.00000  Uiso   1.00
C251   C     0.88154   0.80102   0.60591   0.00000  Uiso   1.00
C252   C     0.81332   0.82083   0.62126   0.00000  Uiso   1.00
C253   C     0.78334   0.88303   0.61229   0.00000  Uiso   1.00
H254   H     0.02118   0.84209   0.55051   0.00000  Uiso   1.00
H255   H     0.03998   0.78924   0.42950   0.00000  Uiso   1.00
H256   H     0.11667   0.81283   0.66026   0.00000  Uiso   1.00
H257   H     0.91724   0.93564   0.55525   0.00000  Uiso   1.00
H258   H     0.04455   0.71261   0.30570   0.00000  Uiso   1.00
H259   H     0.20624   0.76236   0.79228   0.00000  Uiso   1.00
H260   H     0.78571   0.02135   0.57087   0.00000  Uiso   1.00
H261   H     0.89556   0.70328   0.63031   0.00000  Uiso   1.00
H262   H     0.90747   0.64280   0.51367   0.00000  Uiso   1.00
H263   H     0.98416   0.66639   0.74444   0.00000  Uiso   1.00
H264   H     0.78473   0.78921   0.63943   0.00000  Uiso   1.00
H265   H     0.93700   0.59375   0.37402   0.00000  Uiso   1.00
H266   H     0.09869   0.64351   0.86061   0.00000  Uiso   1.00
H267   H     0.67816   0.90249   0.63919   0.00000  Uiso   1.00
O268   O     0.00090   0.61589   0.26170   0.00000  Uiso   1.00
O269   O     0.21302   0.68117   0.90009   0.00000  Uiso   1.00
O270   O     0.66129   0.02096   0.60959   0.00000  Uiso   1.00
N271   N     0.01759   0.69294   0.33778   0.00000  Uiso   1.00
N272   N     0.16877   0.73945   0.79270   0.00000  Uiso   1.00
N273   N     0.77561   0.98158   0.58571   0.00000  Uiso   1.00
N274   N     0.95972   0.62899   0.37454   0.00000  Uiso   1.00
N275   N     0.11090   0.67550   0.82947   0.00000  Uiso   1.00
N276   N     0.71774   0.91763   0.62248   0.00000  Uiso   1.00
C277   C     0.55356   0.51950   0.92836   0.00000  Uiso   1.00
C278   C     0.61531   0.53524   0.97270   0.00000  Uiso   1.00
C279   C     0.63573   0.52083   0.04603   0.00000  Uiso   1.00
C280   C     0.69364   0.53925   0.07659   0.00000  Uiso   1.00
C281   C     0.78405   0.55883   0.15171   0.00000  Uiso   1.00
C282   C     0.58300   0.48344   0.86574   0.00000  Uiso   1.00
C283   C     0.57624   0.42547   0.84913   0.00000  Uiso   1.00
C284   C     0.60694   0.40029   0.78965   0.00000  Uiso   1.00
C285   C     0.64714   0.33947   0.69868   0.00000  Uiso   1.00
C286   C     0.50795   0.57981   0.89448   0.00000  Uiso   1.00
C287   C     0.43809   0.60287   0.90203   0.00000  Uiso   1.00
C288   C     0.40560   0.65883   0.86673   0.00000  Uiso   1.00
C289   C     0.32928   0.74764   0.82040   0.00000  Uiso   1.00
C290   C     0.62008   0.57785   0.85223   0.00000  Uiso   1.00
C291   C     0.65145   0.56693   0.93134   0.00000  Uiso   1.00
C292   C     0.70934   0.58538   0.96180   0.00000  Uiso   1.00
C293   C     0.72984   0.57100   0.03517   0.00000  Uiso   1.00
C294   C     0.61913   0.51513   0.82438   0.00000  Uiso   1.00
C295   C     0.64984   0.49003   0.76491   0.00000  Uiso   1.00
C296   C     0.64313   0.43204   0.74822   0.00000  Uiso   1.00
C297   C     0.54409   0.61150   0.85313   0.00000  Uiso   1.00
C298   C     0.51169   0.66743   0.81781   0.00000  Uiso   1.00
C299   C     0.44179   0.69057   0.82531   0.00000  Uiso   1.00
H300   H     0.52543   0.49483   0.96055   0.00000  Uiso   1.00
H301   H     0.60776   0.49629   0.07801   0.00000  Uiso   1.00
H302   H     0.54827   0.40096   0.88114   0.00000  Uiso   1.00
H303   H     0.41014   0.57834   0.93404   0.00000  Uiso   1.00
H304   H     0.71499   0.51188   0.18999   0.00000  Uiso   1.00
H305   H     0.58953   0.31087   0.77487   0.00000  Uiso   1.00
H306   H     0.29826   0.68490   0.88640   0.00000  Uiso   1.00
H307   H     0.64822   0.60252   0.82004   0.00000  Uiso   1.00
H308   H     0.73729   0.60990   0.92979   0.00000  Uiso   1.00
H309   H     0.67780   0.51457   0.73292   0.00000  Uiso   1.00
H310   H     0.53967   0.69194   0.78581   0.00000  Uiso   1.00
H311   H     0.82012   0.60408   0.06969   0.00000  Uiso   1.00
H312   H     0.69466   0.40308   0.65456   0.00000  Uiso   1.00
H313   H     0.40339   0.77710   0.76610   0.00000  Uiso   1.00
O314   O     0.82395   0.56087   0.20457   0.00000  Uiso   1.00
O315   O     0.65934   0.29717   0.65993   0.00000  Uiso   1.00
O316   O     0.27720   0.78788   0.80627   0.00000  Uiso   1.00
N317   N     0.72750   0.53258   0.14662   0.00000  Uiso   1.00
N318   N     0.61021   0.34464   0.75851   0.00000  Uiso   1.00
N319   N     0.33790   0.69432   0.86277   0.00000  Uiso   1.00
N320   N     0.78407   0.58219   0.08189   0.00000  Uiso   1.00
N321   N     0.66678   0.39426   0.69378   0.00000  Uiso   1.00
N322   N     0.39447   0.74394   0.79804   0.00000  Uiso   1.00
C323   C     0.80220   0.33397   0.49266   0.00000  Uiso   1.00
C324   C     0.82533   0.35897   0.42505   0.00000  Uiso   1.00
C325   C     0.83570   0.32879   0.36150   0.00000  Uiso   1.00
C326   C     0.85687   0.35944   0.30584   0.00000  Uiso   1.00
C327   C     0.89118   0.38934   0.19968   0.00000  Uiso   1.00
C328   C     0.73657   0.38037   0.50785   0.00000  Uiso   1.00
C329   C     0.67230   0.36816   0.51394   0.00000  Uiso   1.00
C330   C     0.61876   0.41682   0.52799   0.00000  Uiso   1.00
C331   C     0.51527   0.47992   0.55044   0.00000  Uiso   1.00
C332   C     0.85781   0.33667   0.55476   0.00000  Uiso   1.00
C333   C     0.89548   0.28773   0.60029   0.00000  Uiso   1.00
C334   C     0.94400   0.29961   0.65384   0.00000  Uiso   1.00
C335   C     0.02877   0.29487   0.74911   0.00000  Uiso   1.00
C336   C     0.82137   0.44209   0.50680   0.00000  Uiso   1.00
C337   C     0.83574   0.41770   0.43273   0.00000  Uiso   1.00
C338   C     0.85691   0.44841   0.37715   0.00000  Uiso   1.00
C339   C     0.86730   0.41827   0.31353   0.00000  Uiso   1.00
C340   C     0.74698   0.43909   0.51554   0.00000  Uiso   1.00
C341   C     0.69351   0.48778   0.52959   0.00000  Uiso   1.00
C342   C     0.62918   0.47565   0.53568   0.00000  Uiso   1.00
C343   C     0.86823   0.39539   0.56244   0.00000  Uiso   1.00
C344   C     0.91669   0.40735   0.61593   0.00000  Uiso   1.00
C345   C     0.95443   0.35844   0.66154   0.00000  Uiso   1.00
H346   H     0.79409   0.28826   0.48668   0.00000  Uiso   1.00
H347   H     0.82763   0.28335   0.35558   0.00000  Uiso   1.00
H348   H     0.66426   0.32271   0.50800   0.00000  Uiso   1.00
H349   H     0.88741   0.24230   0.59433   0.00000  Uiso   1.00
H350   H     0.86938   0.30381   0.21361   0.00000  Uiso   1.00
H351   H     0.52493   0.38681   0.53502   0.00000  Uiso   1.00
H352   H     0.99548   0.21724   0.71707   0.00000  Uiso   1.00
H353   H     0.82947   0.48781   0.51278   0.00000  Uiso   1.00
H354   H     0.86496   0.49385   0.38311   0.00000  Uiso   1.00
H355   H     0.70159   0.53321   0.53553   0.00000  Uiso   1.00
H356   H     0.92474   0.45280   0.62186   0.00000  Uiso   1.00
H357   H     0.89968   0.47466   0.23595   0.00000  Uiso   1.00
H358   H     0.55522   0.55766   0.55737   0.00000  Uiso   1.00
H359   H     0.02577   0.38809   0.73941   0.00000  Uiso   1.00
O360   O     0.90722   0.38962   0.13900   0.00000  Uiso   1.00
O361   O     0.45531   0.49850   0.56069   0.00000  Uiso   1.00
O362   O     0.07266   0.27603   0.79953   0.00000  Uiso   1.00
N363   N     0.87166   0.34319   0.23667   0.00000  Uiso   1.00
N364   N     0.54961   0.42078   0.53716   0.00000  Uiso   1.00
N365   N     0.98952   0.26225   0.70737   0.00000  Uiso   1.00
N366   N     0.88796   0.43512   0.24869   0.00000  Uiso   1.00
N367   N     0.56591   0.51272   0.54918   0.00000  Uiso   1.00
N368   N     0.00582   0.35419   0.71939   0.00000  Uiso   1.00
C369   C     0.37018   0.71878   0.51208   0.00000  Uiso   1.00
C370   C     0.37167   0.77444   0.55642   0.00000  Uiso   1.00
C371   C     0.32328   0.83029   0.54672   0.00000  Uiso   1.00
C372   C     0.33383   0.87545   0.59286   0.00000  Uiso   1.00
C373   C     0.32747   0.96344   0.65353   0.00000  Uiso   1.00
C374   C     0.37080   0.66701   0.56644   0.00000  Uiso   1.00
C375   C     0.32169   0.63254   0.56517   0.00000  Uiso   1.00
C376   C     0.33152   0.58725   0.61974   0.00000  Uiso   1.00
C377   C     0.32383   0.50843   0.69594   0.00000  Uiso   1.00
C378   C     0.43987   0.70178   0.48135   0.00000  Uiso   1.00
C379   C     0.44884   0.69652   0.40854   0.00000  Uiso   1.00
C380   C     0.51682   0.68050   0.39148   0.00000  Uiso   1.00
C381   C     0.61638   0.65566   0.33558   0.00000  Uiso   1.00
C382   C     0.47496   0.69964   0.61125   0.00000  Uiso   1.00
C383   C     0.42858   0.76404   0.61028   0.00000  Uiso   1.00
C384   C     0.43921   0.80912   0.65645   0.00000  Uiso   1.00
C385   C     0.39085   0.86504   0.64682   0.00000  Uiso   1.00
C386   C     0.42771   0.65661   0.62030   0.00000  Uiso   1.00
C387   C     0.43762   0.61137   0.67489   0.00000  Uiso   1.00
C388   C     0.38853   0.57684   0.67370   0.00000  Uiso   1.00
C389   C     0.49679   0.69139   0.53522   0.00000  Uiso   1.00
C390   C     0.56477   0.67536   0.51827   0.00000  Uiso   1.00
C391   C     0.57384   0.67008   0.44545   0.00000  Uiso   1.00
H392   H     0.32587   0.72687   0.47015   0.00000  Uiso   1.00
H393   H     0.27924   0.83832   0.50504   0.00000  Uiso   1.00
H394   H     0.27765   0.64059   0.52347   0.00000  Uiso   1.00
H395   H     0.40478   0.70457   0.36687   0.00000  Uiso   1.00
H396   H     0.25263   0.95729   0.56749   0.00000  Uiso   1.00
H397   H     0.24930   0.54035   0.60635   0.00000  Uiso   1.00
H398   H     0.51738   0.67527   0.27613   0.00000  Uiso   1.00
H399   H     0.51927   0.69155   0.65319   0.00000  Uiso   1.00
H400   H     0.48326   0.80106   0.69813   0.00000  Uiso   1.00
H401   H     0.48167   0.60333   0.71656   0.00000  Uiso   1.00
H402   H     0.60880   0.66732   0.55997   0.00000  Uiso   1.00
H403   H     0.41821   0.92705   0.72421   0.00000  Uiso   1.00
H404   H     0.41489   0.51011   0.76307   0.00000  Uiso   1.00
H405   H     0.68296   0.64503   0.43285   0.00000  Uiso   1.00
O406   O     0.30823   0.01484   0.67212   0.00000  Uiso   1.00
O407   O     0.30387   0.46783   0.72309   0.00000  Uiso   1.00
O408   O     0.65558   0.64484   0.28986   0.00000  Uiso   1.00
N409   N     0.29655   0.93514   0.59820   0.00000  Uiso   1.00
N410   N     0.29343   0.54534   0.63453   0.00000  Uiso   1.00
N411   N     0.54406   0.67146   0.32581   0.00000  Uiso   1.00
N412   N     0.38565   0.91888   0.68253   0.00000  Uiso   1.00
N413   N     0.38253   0.52907   0.71886   0.00000  Uiso   1.00
N414   N     0.63316   0.65519   0.41014   0.00000  Uiso   1.00
C415   C     0.90055   0.23992   0.94381   0.00000  Uiso   1.00
C416   C     0.96548   0.26470   0.95512   0.00000  Uiso   1.00
C417   C     0.97051   0.32197   0.93140   0.00000  Uiso   1.00
C418   C     0.03447   0.33599   0.94715   0.00000  Uiso   1.00
C419   C     0.12666   0.38080   0.95889   0.00000  Uiso   1.00
C420   C     0.92166   0.18068   0.90524   0.00000  Uiso   1.00
C421   C     0.88983   0.16730   0.83959   0.00000  Uiso   1.00
C422   C     0.91690   0.11059   0.81335   0.00000  Uiso   1.00
C423   C     0.94102   0.02495   0.74767   0.00000  Uiso   1.00
C424   C     0.88622   0.22166   0.01912   0.00000  Uiso   1.00
C425   C     0.82459   0.24274   0.04922   0.00000  Uiso   1.00
C426   C     0.82183   0.22052   0.11886   0.00000  Uiso   1.00
C427   C     0.79093   0.19852   0.23000   0.00000  Uiso   1.00
C428   C     0.00521   0.16298   0.01396   0.00000  Uiso   1.00
C429   C     0.02233   0.22290   0.99323   0.00000  Uiso   1.00
C430   C     0.08630   0.23684   0.00902   0.00000  Uiso   1.00
C431   C     0.09142   0.29412   0.98532   0.00000  Uiso   1.00
C432   C     0.97851   0.13889   0.94334   0.00000  Uiso   1.00
C433   C     0.00563   0.08218   0.91720   0.00000  Uiso   1.00
C434   C     0.97385   0.06873   0.85152   0.00000  Uiso   1.00
C435   C     0.94307   0.17987   0.05723   0.00000  Uiso   1.00
C436   C     0.94040   0.15762   0.12683   0.00000  Uiso   1.00
C437   C     0.87878   0.17866   0.15703   0.00000  Uiso   1.00
H438   H     0.85629   0.27245   0.91414   0.00000  Uiso   1.00
H439   H     0.92650   0.35429   0.90191   0.00000  Uiso   1.00
H440   H     0.84583   0.19965   0.81011   0.00000  Uiso   1.00
H441   H     0.78061   0.27508   0.01971   0.00000  Uiso   1.00
H442   H     0.02943   0.42659   0.90513   0.00000  Uiso   1.00
H443   H     0.85932   0.10051   0.71159   0.00000  Uiso   1.00
H444   H     0.72178   0.25956   0.15357   0.00000  Uiso   1.00
H445   H     0.04947   0.13044   0.04363   0.00000  Uiso   1.00
H446   H     0.13029   0.20449   0.03850   0.00000  Uiso   1.00
H447   H     0.04962   0.04985   0.94670   0.00000  Uiso   1.00
H448   H     0.98440   0.12528   0.15630   0.00000  Uiso   1.00
H449   H     0.19483   0.30500   0.01599   0.00000  Uiso   1.00
H450   H     0.02471   0.97893   0.82245   0.00000  Uiso   1.00
H451   H     0.88719   0.13798   0.26443   0.00000  Uiso   1.00
O452   O     0.16181   0.41706   0.95483   0.00000  Uiso   1.00
O453   O     0.93862   0.98926   0.70092   0.00000  Uiso   1.00
O454   O     0.75819   0.19793   0.28079   0.00000  Uiso   1.00
N455   N     0.05726   0.38781   0.93194   0.00000  Uiso   1.00
N456   N     0.89822   0.08296   0.75098   0.00000  Uiso   1.00
N457   N     0.76964   0.23164   0.16419   0.00000  Uiso   1.00
N458   N     0.14626   0.32239   0.99159   0.00000  Uiso   1.00
N459   N     0.98722   0.01753   0.81063   0.00000  Uiso   1.00
N460   N     0.85864   0.16622   0.22384   0.00000  Uiso   1.00
C461   C     0.28402   0.94773   0.95941   0.00000  Uiso   1.00
C462   C     0.31843   0.96724   0.02914   0.00000  Uiso   1.00
C463   C     0.38782   0.94610   0.05698   0.00000  Uiso   1.00
C464   C     0.40921   0.96955   0.12146   0.00000  Uiso   1.00
C465   C     0.46969   0.99327   0.22437   0.00000  Uiso   1.00
C466   C     0.22300   0.92410   0.98083   0.00000  Uiso   1.00
C467   C     0.21215   0.86669   0.96804   0.00000  Uiso   1.00
C468   C     0.15319   0.85384   0.99184   0.00000  Uiso   1.00
C469   C     0.06549   0.81060   0.01971   0.00000  Uiso   1.00
C470   C     0.25208   0.00614   0.91282   0.00000  Uiso   1.00
C471   C     0.26567   0.01772   0.84284   0.00000  Uiso   1.00
C472   C     0.23119   0.07394   0.80938   0.00000  Uiso   1.00
C473   C     0.18864   0.15810   0.73165   0.00000  Uiso   1.00
C474   C     0.19859   0.02697   0.02441   0.00000  Uiso   1.00
C475   C     0.27202   0.01028   0.06444   0.00000  Uiso   1.00
C476   C     0.29331   0.03377   0.12889   0.00000  Uiso   1.00
C477   C     0.36272   0.01267   0.15682   0.00000  Uiso   1.00
C478   C     0.17660   0.96714   0.01613   0.00000  Uiso   1.00
C479   C     0.11764   0.95437   0.03995   0.00000  Uiso   1.00
C480   C     0.10671   0.89696   0.02721   0.00000  Uiso   1.00
C481   C     0.20568   0.04919   0.94812   0.00000  Uiso   1.00
C482   C     0.17116   0.10540   0.91476   0.00000  Uiso   1.00
C483   C     0.18470   0.11706   0.84474   0.00000  Uiso   1.00
H484   H     0.32014   0.91421   0.93193   0.00000  Uiso   1.00
H485   H     0.42372   0.91278   0.02965   0.00000  Uiso   1.00
H486   H     0.24807   0.83339   0.94071   0.00000  Uiso   1.00
H487   H     0.30158   0.98440   0.81554   0.00000  Uiso   1.00
H488   H     0.51808   0.93016   0.15357   0.00000  Uiso   1.00
H489   H     0.14770   0.76277   0.96603   0.00000  Uiso   1.00
H490   H     0.26055   0.08120   0.70207   0.00000  Uiso   1.00
H491   H     0.16246   0.06048   0.05189   0.00000  Uiso   1.00
H492   H     0.25739   0.06708   0.15620   0.00000  Uiso   1.00
H493   H     0.08174   0.98769   0.06727   0.00000  Uiso   1.00
H494   H     0.13525   0.13870   0.94209   0.00000  Uiso   1.00
H495   H     0.38308   0.05539   0.25628   0.00000  Uiso   1.00
H496   H     0.01270   0.88801   0.06874   0.00000  Uiso   1.00
H497   H     0.12555   0.20644   0.80478   0.00000  Uiso   1.00
O498   O     0.51587   0.99446   0.27139   0.00000  Uiso   1.00
O499   O     0.02994   0.77486   0.02533   0.00000  Uiso   1.00
O500   O     0.17800   0.19263   0.67902   0.00000  Uiso   1.00
N501   N     0.47328   0.95874   0.16342   0.00000  Uiso   1.00
N502   N     0.12701   0.80224   0.98809   0.00000  Uiso   1.00
N503   N     0.23250   0.09994   0.74130   0.00000  Uiso   1.00
N504   N     0.40064   0.02613   0.21869   0.00000  Uiso   1.00
N505   N     0.05437   0.86963   0.04336   0.00000  Uiso   1.00
N506   N     0.15986   0.16732   0.79657   0.00000  Uiso   1.00
C507   C     0.93712   0.80471   0.17498   0.00000  Uiso   1.00
C508   C     0.89511   0.80439   0.23889   0.00000  Uiso   1.00
C509   C     0.84940   0.76781   0.24767   0.00000  Uiso   1.00
C510   C     0.81597   0.77435   0.30989   0.00000  Uiso   1.00
C511   C     0.74891   0.76754   0.40126   0.00000  Uiso   1.00
C512   C     0.91813   0.87033   0.14375   0.00000  Uiso   1.00
C513   C     0.89178   0.88920   0.07254   0.00000  Uiso   1.00
C514   C     0.87774   0.95125   0.05468   0.00000  Uiso   1.00
C515   C     0.84646   0.04681   0.99833   0.00000  Uiso   1.00
C516   C     0.01313   0.79195   0.20732   0.00000  Uiso   1.00
C517   C     0.06667   0.74492   0.18956   0.00000  Uiso   1.00
C518   C     0.13262   0.74100   0.22520   0.00000  Uiso   1.00
C519   C     0.24885   0.71486   0.26757   0.00000  Uiso   1.00
C520   C     0.95905   0.88137   0.26986   0.00000  Uiso   1.00
C521   C     0.90702   0.84603   0.29042   0.00000  Uiso   1.00
C522   C     0.87366   0.85263   0.35264   0.00000  Uiso   1.00
C523   C     0.82791   0.81606   0.36152   0.00000  Uiso   1.00
C524   C     0.93004   0.91197   0.19528   0.00000  Uiso   1.00
C525   C     0.91604   0.97401   0.17751   0.00000  Uiso   1.00
C526   C     0.88967   0.99297   0.10630   0.00000  Uiso   1.00
C527   C     0.02505   0.83359   0.25886   0.00000  Uiso   1.00
C528   C     0.09093   0.82974   0.29453   0.00000  Uiso   1.00
C529   C     0.14456   0.78271   0.27683   0.00000  Uiso   1.00
H530   H     0.92784   0.77229   0.13486   0.00000  Uiso   1.00
H531   H     0.84019   0.73559   0.20778   0.00000  Uiso   1.00
H532   H     0.88257   0.85696   0.03268   0.00000  Uiso   1.00
H533   H     0.05743   0.71271   0.14968   0.00000  Uiso   1.00
H534   H     0.74824   0.71328   0.31133   0.00000  Uiso   1.00
H535   H     0.83763   0.96919   0.94212   0.00000  Uiso   1.00
H536   H     0.20636   0.66501   0.18883   0.00000  Uiso   1.00
H537   H     0.96832   0.91379   0.30998   0.00000  Uiso   1.00
H538   H     0.88289   0.88485   0.39251   0.00000  Uiso   1.00
H539   H     0.92527   0.00622   0.21741   0.00000  Uiso   1.00
H540   H     0.10013   0.86197   0.33441   0.00000  Uiso   1.00
H541   H     0.78289   0.83443   0.46127   0.00000  Uiso   1.00
H542   H     0.87229   0.09034   0.09205   0.00000  Uiso   1.00
H543   H     0.24102   0.78615   0.33877   0.00000  Uiso   1.00
O544   O     0.70862   0.75228   0.43742   0.00000  Uiso   1.00
O545   O     0.82591   0.08802   0.95302   0.00000  Uiso   1.00
O546   O     0.30967   0.68894   0.27670   0.00000  Uiso   1.00
N547   N     0.76813   0.74576   0.33530   0.00000  Uiso   1.00
N548   N     0.85170   0.98502   0.99011   0.00000  Uiso   1.00
N549   N     0.19643   0.70064   0.22075   0.00000  Uiso   1.00
N550   N     0.78678   0.81095   0.41598   0.00000  Uiso   1.00
N551   N     0.87034   0.05021   0.07079   0.00000  Uiso   1.00
N552   N     0.21508   0.76583   0.30143   0.00000  Uiso   1.00
