data_job_02095
_audit_creation_date              2018-12-19
_audit_creation_method            'Materials Studio'
_symmetry_space_group_name_H-M    'P1'
_symmetry_Int_Tables_number       1
_symmetry_cell_setting            triclinic
loop_
_symmetry_equiv_pos_as_xyz
  x,y,z
_cell_length_a                    30.3737
_cell_length_b                    7.3468
_cell_length_c                    26.5278
_cell_angle_alpha                 90.0000
_cell_angle_beta                  156.0075
_cell_angle_gamma                 90.0000
loop_
_atom_site_label
_atom_site_type_symbol
_atom_site_fract_x
_atom_site_fract_y
_atom_site_fract_z
_atom_site_U_iso_or_equiv
_atom_site_adp_type
_atom_site_occupancy
C1     C     0.20918   0.71021   0.58355   0.00000  Uiso   1.00
C2     C     0.13199   0.56530   0.52286   0.00000  Uiso   1.00
C3     C     0.04366   0.59647   0.46163   0.00000  Uiso   1.00
C4     C     0.98308   0.44578   0.41247   0.00000  Uiso   1.00
C5     C     0.85917   0.24744   0.31650   0.00000  Uiso   1.00
C6     C     0.32225   0.65194   0.71835   0.00000  Uiso   1.00
C7     C     0.39389   0.75597   0.82147   0.00000  Uiso   1.00
C8     C     0.49348   0.67822   0.93687   0.00000  Uiso   1.00
C9     C     0.66497   0.61444   0.14440   0.00000  Uiso   1.00
C10    C     0.20722   0.69202   0.52424   0.00000  Uiso   1.00
C11    C     0.18217   0.82977   0.46420   0.00000  Uiso   1.00
C12    C     0.18493   0.78576   0.41620   0.00000  Uiso   1.00
C13    C     0.17783   0.78422   0.32235   0.00000  Uiso   1.00
C14    C     0.25866   0.38716   0.60513   0.00000  Uiso   1.00
C15    C     0.15887   0.38983   0.53459   0.00000  Uiso   1.00
C16    C     0.09840   0.23905   0.48550   0.00000  Uiso   1.00
C17    C     0.01000   0.26999   0.42420   0.00000  Uiso   1.00
C18    C     0.34913   0.47647   0.73007   0.00000  Uiso   1.00
C19    C     0.44863   0.39855   0.84534   0.00000  Uiso   1.00
C20    C     0.52040   0.50243   0.94861   0.00000  Uiso   1.00
C21    C     0.23409   0.51655   0.53596   0.00000  Uiso   1.00
C22    C     0.23691   0.47233   0.48806   0.00000  Uiso   1.00
C23    C     0.21186   0.60998   0.42794   0.00000  Uiso   1.00
H24    H     0.18827   0.84683   0.57444   0.00000  Uiso   1.00
H25    H     0.02290   0.73229   0.45259   0.00000  Uiso   1.00
H26    H     0.37308   0.89176   0.81238   0.00000  Uiso   1.00
H27    H     0.16138   0.96553   0.45515   0.00000  Uiso   1.00
H28    H     0.85143   0.52790   0.32271   0.00000  Uiso   1.00
H29    H     0.58981   0.86420   0.08133   0.00000  Uiso   1.00
H30    H     0.14342   0.01977   0.32805   0.00000  Uiso   1.00
H31    H     0.27959   0.25054   0.61425   0.00000  Uiso   1.00
H32    H     0.11922   0.10327   0.49458   0.00000  Uiso   1.00
H33    H     0.46940   0.26276   0.85437   0.00000  Uiso   1.00
H34    H     0.25771   0.33653   0.49714   0.00000  Uiso   1.00
H35    H     0.92961   0.01737   0.35680   0.00000  Uiso   1.00
H36    H     0.66800   0.35368   0.11543   0.00000  Uiso   1.00
H37    H     0.22160   0.50924   0.36214   0.00000  Uiso   1.00
O38    O     0.78341   0.18651   0.26035   0.00000  Uiso   1.00
O39    O     0.75214   0.62774   0.25563   0.00000  Uiso   1.00
O40    O     0.16647   0.83184   0.26734   0.00000  Uiso   1.00
N41    N     0.89183   0.42796   0.34713   0.00000  Uiso   1.00
N42    N     0.58216   0.74237   0.05640   0.00000  Uiso   1.00
N43    N     0.16485   0.88783   0.35217   0.00000  Uiso   1.00
N44    N     0.93390   0.15325   0.36547   0.00000  Uiso   1.00
N45    N     0.62423   0.46766   0.07474   0.00000  Uiso   1.00
N46    N     0.20691   0.61312   0.37052   0.00000  Uiso   1.00
C47    C     0.79082   0.71021   0.91645   0.00000  Uiso   1.00
C48    C     0.86801   0.56530   0.97714   0.00000  Uiso   1.00
C49    C     0.95634   0.59647   0.03837   0.00000  Uiso   1.00
C50    C     0.01692   0.44578   0.08753   0.00000  Uiso   1.00
C51    C     0.14083   0.24744   0.18350   0.00000  Uiso   1.00
C52    C     0.67775   0.65194   0.78165   0.00000  Uiso   1.00
C53    C     0.60611   0.75597   0.67853   0.00000  Uiso   1.00
C54    C     0.50652   0.67822   0.56313   0.00000  Uiso   1.00
C55    C     0.33503   0.61444   0.35560   0.00000  Uiso   1.00
C56    C     0.79278   0.69202   0.97576   0.00000  Uiso   1.00
C57    C     0.81783   0.82977   0.03580   0.00000  Uiso   1.00
C58    C     0.81507   0.78576   0.08380   0.00000  Uiso   1.00
C59    C     0.82217   0.78422   0.17765   0.00000  Uiso   1.00
C60    C     0.74134   0.38716   0.89487   0.00000  Uiso   1.00
C61    C     0.84113   0.38983   0.96541   0.00000  Uiso   1.00
C62    C     0.90160   0.23905   0.01450   0.00000  Uiso   1.00
C63    C     0.99000   0.26999   0.07580   0.00000  Uiso   1.00
C64    C     0.65087   0.47647   0.76993   0.00000  Uiso   1.00
C65    C     0.55137   0.39855   0.65466   0.00000  Uiso   1.00
C66    C     0.47960   0.50243   0.55139   0.00000  Uiso   1.00
C67    C     0.76591   0.51655   0.96404   0.00000  Uiso   1.00
C68    C     0.76309   0.47233   0.01194   0.00000  Uiso   1.00
C69    C     0.78814   0.60998   0.07206   0.00000  Uiso   1.00
H70    H     0.81173   0.84683   0.92556   0.00000  Uiso   1.00
H71    H     0.97710   0.73229   0.04741   0.00000  Uiso   1.00
H72    H     0.62692   0.89176   0.68762   0.00000  Uiso   1.00
H73    H     0.83862   0.96553   0.04485   0.00000  Uiso   1.00
H74    H     0.14857   0.52790   0.17729   0.00000  Uiso   1.00
H75    H     0.41019   0.86420   0.41867   0.00000  Uiso   1.00
H76    H     0.85658   0.01977   0.17195   0.00000  Uiso   1.00
H77    H     0.72041   0.25054   0.88575   0.00000  Uiso   1.00
H78    H     0.88078   0.10327   0.00542   0.00000  Uiso   1.00
H79    H     0.53060   0.26276   0.64563   0.00000  Uiso   1.00
H80    H     0.74229   0.33653   0.00286   0.00000  Uiso   1.00
H81    H     0.07039   0.01737   0.14320   0.00000  Uiso   1.00
H82    H     0.33200   0.35368   0.38457   0.00000  Uiso   1.00
H83    H     0.77840   0.50924   0.13786   0.00000  Uiso   1.00
O84    O     0.21659   0.18651   0.23965   0.00000  Uiso   1.00
O85    O     0.24786   0.62774   0.24437   0.00000  Uiso   1.00
O86    O     0.83353   0.83184   0.23266   0.00000  Uiso   1.00
N87    N     0.10817   0.42796   0.15287   0.00000  Uiso   1.00
N88    N     0.41784   0.74237   0.44360   0.00000  Uiso   1.00
N89    N     0.83515   0.88783   0.14783   0.00000  Uiso   1.00
N90    N     0.06610   0.15325   0.13453   0.00000  Uiso   1.00
N91    N     0.37577   0.46766   0.42526   0.00000  Uiso   1.00
N92    N     0.79309   0.61312   0.12948   0.00000  Uiso   1.00
C93    C     0.79082   0.28979   0.41645   0.00000  Uiso   1.00
C94    C     0.86801   0.43470   0.47714   0.00000  Uiso   1.00
C95    C     0.95634   0.40353   0.53837   0.00000  Uiso   1.00
C96    C     0.01692   0.55422   0.58753   0.00000  Uiso   1.00
C97    C     0.14083   0.75256   0.68350   0.00000  Uiso   1.00
C98    C     0.67775   0.34806   0.28165   0.00000  Uiso   1.00
C99    C     0.60611   0.24403   0.17853   0.00000  Uiso   1.00
C100   C     0.50652   0.32178   0.06313   0.00000  Uiso   1.00
C101   C     0.33503   0.38556   0.85560   0.00000  Uiso   1.00
C102   C     0.79278   0.30798   0.47576   0.00000  Uiso   1.00
C103   C     0.81783   0.17023   0.53580   0.00000  Uiso   1.00
C104   C     0.81507   0.21424   0.58380   0.00000  Uiso   1.00
C105   C     0.82217   0.21578   0.67765   0.00000  Uiso   1.00
C106   C     0.74134   0.61284   0.39487   0.00000  Uiso   1.00
C107   C     0.84113   0.61017   0.46541   0.00000  Uiso   1.00
C108   C     0.90160   0.76095   0.51450   0.00000  Uiso   1.00
C109   C     0.99000   0.73001   0.57580   0.00000  Uiso   1.00
C110   C     0.65087   0.52353   0.26993   0.00000  Uiso   1.00
C111   C     0.55137   0.60145   0.15466   0.00000  Uiso   1.00
C112   C     0.47960   0.49757   0.05139   0.00000  Uiso   1.00
C113   C     0.76591   0.48345   0.46404   0.00000  Uiso   1.00
C114   C     0.76309   0.52767   0.51194   0.00000  Uiso   1.00
C115   C     0.78814   0.39002   0.57206   0.00000  Uiso   1.00
H116   H     0.81173   0.15317   0.42556   0.00000  Uiso   1.00
H117   H     0.97710   0.26771   0.54741   0.00000  Uiso   1.00
H118   H     0.62692   0.10824   0.18762   0.00000  Uiso   1.00
H119   H     0.83862   0.03447   0.54485   0.00000  Uiso   1.00
H120   H     0.14857   0.47210   0.67729   0.00000  Uiso   1.00
H121   H     0.41019   0.13580   0.91867   0.00000  Uiso   1.00
H122   H     0.85658   0.98023   0.67195   0.00000  Uiso   1.00
H123   H     0.72041   0.74946   0.38575   0.00000  Uiso   1.00
H124   H     0.88078   0.89673   0.50542   0.00000  Uiso   1.00
H125   H     0.53060   0.73724   0.14563   0.00000  Uiso   1.00
H126   H     0.74229   0.66347   0.50286   0.00000  Uiso   1.00
H127   H     0.07039   0.98263   0.64320   0.00000  Uiso   1.00
H128   H     0.33200   0.64632   0.88457   0.00000  Uiso   1.00
H129   H     0.77840   0.49076   0.63786   0.00000  Uiso   1.00
O130   O     0.21659   0.81349   0.73965   0.00000  Uiso   1.00
O131   O     0.24786   0.37226   0.74437   0.00000  Uiso   1.00
O132   O     0.83353   0.16816   0.73266   0.00000  Uiso   1.00
N133   N     0.10817   0.57204   0.65287   0.00000  Uiso   1.00
N134   N     0.41784   0.25763   0.94360   0.00000  Uiso   1.00
N135   N     0.83515   0.11217   0.64783   0.00000  Uiso   1.00
N136   N     0.06610   0.84675   0.63453   0.00000  Uiso   1.00
N137   N     0.37577   0.53234   0.92526   0.00000  Uiso   1.00
N138   N     0.79309   0.38688   0.62948   0.00000  Uiso   1.00
C139   C     0.20918   0.28979   0.08355   0.00000  Uiso   1.00
C140   C     0.13199   0.43470   0.02286   0.00000  Uiso   1.00
C141   C     0.04366   0.40353   0.96163   0.00000  Uiso   1.00
C142   C     0.98308   0.55422   0.91247   0.00000  Uiso   1.00
C143   C     0.85917   0.75256   0.81650   0.00000  Uiso   1.00
C144   C     0.32225   0.34806   0.21835   0.00000  Uiso   1.00
C145   C     0.39389   0.24403   0.32147   0.00000  Uiso   1.00
C146   C     0.49348   0.32178   0.43687   0.00000  Uiso   1.00
C147   C     0.66497   0.38556   0.64440   0.00000  Uiso   1.00
C148   C     0.20722   0.30798   0.02424   0.00000  Uiso   1.00
C149   C     0.18217   0.17023   0.96420   0.00000  Uiso   1.00
C150   C     0.18493   0.21424   0.91620   0.00000  Uiso   1.00
C151   C     0.17783   0.21578   0.82235   0.00000  Uiso   1.00
C152   C     0.25866   0.61284   0.10513   0.00000  Uiso   1.00
C153   C     0.15887   0.61017   0.03459   0.00000  Uiso   1.00
C154   C     0.09840   0.76095   0.98550   0.00000  Uiso   1.00
C155   C     0.01000   0.73001   0.92420   0.00000  Uiso   1.00
C156   C     0.34913   0.52353   0.23007   0.00000  Uiso   1.00
C157   C     0.44863   0.60145   0.34534   0.00000  Uiso   1.00
C158   C     0.52040   0.49757   0.44861   0.00000  Uiso   1.00
C159   C     0.23409   0.48345   0.03596   0.00000  Uiso   1.00
C160   C     0.23691   0.52767   0.98806   0.00000  Uiso   1.00
C161   C     0.21186   0.39002   0.92794   0.00000  Uiso   1.00
H162   H     0.18827   0.15317   0.07444   0.00000  Uiso   1.00
H163   H     0.02290   0.26771   0.95259   0.00000  Uiso   1.00
H164   H     0.37308   0.10824   0.31238   0.00000  Uiso   1.00
H165   H     0.16138   0.03447   0.95515   0.00000  Uiso   1.00
H166   H     0.85143   0.47210   0.82271   0.00000  Uiso   1.00
H167   H     0.58981   0.13580   0.58133   0.00000  Uiso   1.00
H168   H     0.14342   0.98023   0.82805   0.00000  Uiso   1.00
H169   H     0.27959   0.74946   0.11425   0.00000  Uiso   1.00
H170   H     0.11922   0.89673   0.99458   0.00000  Uiso   1.00
H171   H     0.46940   0.73724   0.35437   0.00000  Uiso   1.00
H172   H     0.25771   0.66347   0.99714   0.00000  Uiso   1.00
H173   H     0.92961   0.98263   0.85680   0.00000  Uiso   1.00
H174   H     0.66800   0.64632   0.61543   0.00000  Uiso   1.00
H175   H     0.22160   0.49076   0.86214   0.00000  Uiso   1.00
O176   O     0.78341   0.81349   0.76035   0.00000  Uiso   1.00
O177   O     0.75214   0.37226   0.75563   0.00000  Uiso   1.00
O178   O     0.16647   0.16816   0.76734   0.00000  Uiso   1.00
N179   N     0.89183   0.57204   0.84713   0.00000  Uiso   1.00
N180   N     0.58216   0.25763   0.55640   0.00000  Uiso   1.00
N181   N     0.16485   0.11217   0.85217   0.00000  Uiso   1.00
N182   N     0.93390   0.84675   0.86547   0.00000  Uiso   1.00
N183   N     0.62423   0.53234   0.57474   0.00000  Uiso   1.00
N184   N     0.20691   0.38688   0.87052   0.00000  Uiso   1.00
