data_job_03215
_audit_creation_date              2018-12-19
_audit_creation_method            'Materials Studio'
_symmetry_space_group_name_H-M    'P1'
_symmetry_Int_Tables_number       1
_symmetry_cell_setting            triclinic
loop_
_symmetry_equiv_pos_as_xyz
  x,y,z
_cell_length_a                    12.2208
_cell_length_b                    11.6038
_cell_length_c                    21.9122
_cell_angle_alpha                 90.0000
_cell_angle_beta                  90.0000
_cell_angle_gamma                 90.0000
loop_
_atom_site_label
_atom_site_type_symbol
_atom_site_fract_x
_atom_site_fract_y
_atom_site_fract_z
_atom_site_U_iso_or_equiv
_atom_site_adp_type
_atom_site_occupancy
C1     C     0.85276   0.79444   0.61803   0.00000  Uiso   1.00
C2     C     0.76640   0.80974   0.56845   0.00000  Uiso   1.00
C3     C     0.78456   0.85418   0.51053   0.00000  Uiso   1.00
C4     C     0.69484   0.86117   0.47185   0.00000  Uiso   1.00
C5     C     0.57656   0.89049   0.39205   0.00000  Uiso   1.00
C6     C     0.81085   0.86056   0.67344   0.00000  Uiso   1.00
C7     C     0.86641   0.94771   0.70380   0.00000  Uiso   1.00
C8     C     0.81411   0.99747   0.75350   0.00000  Uiso   1.00
C9     C     0.76489   0.10563   0.83672   0.00000  Uiso   1.00
C10    C     0.84968   0.66737   0.63569   0.00000  Uiso   1.00
C11    C     0.93789   0.59208   0.63432   0.00000  Uiso   1.00
C12    C     0.91828   0.47919   0.65225   0.00000  Uiso   1.00
C13    C     0.92935   0.28739   0.67685   0.00000  Uiso   1.00
C14    C     0.66110   0.72783   0.65232   0.00000  Uiso   1.00
C15    C     0.66230   0.77356   0.58708   0.00000  Uiso   1.00
C16    C     0.57252   0.78048   0.54847   0.00000  Uiso   1.00
C17    C     0.59055   0.82492   0.49050   0.00000  Uiso   1.00
C18    C     0.70676   0.82439   0.69207   0.00000  Uiso   1.00
C19    C     0.65437   0.87402   0.74174   0.00000  Uiso   1.00
C20    C     0.70982   0.96123   0.77216   0.00000  Uiso   1.00
C21    C     0.74558   0.63119   0.65431   0.00000  Uiso   1.00
C22    C     0.72584   0.51839   0.67225   0.00000  Uiso   1.00
C23    C     0.81399   0.44294   0.67091   0.00000  Uiso   1.00
H24    H     0.93380   0.82261   0.60353   0.00000  Uiso   1.00
H25    H     0.86513   0.88218   0.49614   0.00000  Uiso   1.00
H26    H     0.94697   0.97569   0.68938   0.00000  Uiso   1.00
H27    H     0.01843   0.62011   0.61991   0.00000  Uiso   1.00
H28    H     0.74309   0.93231   0.38530   0.00000  Uiso   1.00
H29    H     0.91566   0.12945   0.79277   0.00000  Uiso   1.00
H30    H     0.06635   0.37965   0.64627   0.00000  Uiso   1.00
H31    H     0.58005   0.69966   0.66682   0.00000  Uiso   1.00
H32    H     0.49197   0.75248   0.56290   0.00000  Uiso   1.00
H33    H     0.57381   0.84599   0.75614   0.00000  Uiso   1.00
H34    H     0.64527   0.49042   0.68666   0.00000  Uiso   1.00
H35    H     0.44021   0.82704   0.43948   0.00000  Uiso   1.00
H36    H     0.61279   0.02419   0.84695   0.00000  Uiso   1.00
H37    H     0.76348   0.27439   0.70045   0.00000  Uiso   1.00
O38    O     0.54008   0.91668   0.34289   0.00000  Uiso   1.00
O39    O     0.76650   0.17530   0.87748   0.00000  Uiso   1.00
O40    O     0.96420   0.19159   0.68527   0.00000  Uiso   1.00
N41    N     0.68390   0.90026   0.41231   0.00000  Uiso   1.00
N42    N     0.84524   0.08459   0.79326   0.00000  Uiso   1.00
N43    N     0.98613   0.38360   0.65631   0.00000  Uiso   1.00
N44    N     0.52092   0.84362   0.44146   0.00000  Uiso   1.00
N45    N     0.68226   0.02795   0.82242   0.00000  Uiso   1.00
N46    N     0.82315   0.32696   0.68547   0.00000  Uiso   1.00
C47    C     0.14724   0.20556   0.11803   0.00000  Uiso   1.00
C48    C     0.23360   0.19026   0.06845   0.00000  Uiso   1.00
C49    C     0.21544   0.14582   0.01053   0.00000  Uiso   1.00
C50    C     0.30516   0.13883   0.97185   0.00000  Uiso   1.00
C51    C     0.42344   0.10951   0.89205   0.00000  Uiso   1.00
C52    C     0.18915   0.13944   0.17344   0.00000  Uiso   1.00
C53    C     0.13359   0.05229   0.20380   0.00000  Uiso   1.00
C54    C     0.18589   0.00253   0.25350   0.00000  Uiso   1.00
C55    C     0.23511   0.89437   0.33672   0.00000  Uiso   1.00
C56    C     0.15032   0.33263   0.13569   0.00000  Uiso   1.00
C57    C     0.06211   0.40792   0.13432   0.00000  Uiso   1.00
C58    C     0.08172   0.52081   0.15225   0.00000  Uiso   1.00
C59    C     0.07065   0.71261   0.17685   0.00000  Uiso   1.00
C60    C     0.33890   0.27217   0.15232   0.00000  Uiso   1.00
C61    C     0.33770   0.22644   0.08708   0.00000  Uiso   1.00
C62    C     0.42748   0.21952   0.04847   0.00000  Uiso   1.00
C63    C     0.40945   0.17508   0.99050   0.00000  Uiso   1.00
C64    C     0.29324   0.17561   0.19207   0.00000  Uiso   1.00
C65    C     0.34563   0.12598   0.24174   0.00000  Uiso   1.00
C66    C     0.29018   0.03877   0.27216   0.00000  Uiso   1.00
C67    C     0.25442   0.36881   0.15431   0.00000  Uiso   1.00
C68    C     0.27416   0.48161   0.17225   0.00000  Uiso   1.00
C69    C     0.18601   0.55706   0.17091   0.00000  Uiso   1.00
H70    H     0.06620   0.17739   0.10353   0.00000  Uiso   1.00
H71    H     0.13487   0.11782   0.99614   0.00000  Uiso   1.00
H72    H     0.05303   0.02431   0.18938   0.00000  Uiso   1.00
H73    H     0.98157   0.37989   0.11991   0.00000  Uiso   1.00
H74    H     0.25691   0.06769   0.88530   0.00000  Uiso   1.00
H75    H     0.08434   0.87055   0.29277   0.00000  Uiso   1.00
H76    H     0.93365   0.62035   0.14627   0.00000  Uiso   1.00
H77    H     0.41995   0.30034   0.16682   0.00000  Uiso   1.00
H78    H     0.50803   0.24752   0.06290   0.00000  Uiso   1.00
H79    H     0.42619   0.15401   0.25614   0.00000  Uiso   1.00
H80    H     0.35473   0.50958   0.18666   0.00000  Uiso   1.00
H81    H     0.55979   0.17296   0.93948   0.00000  Uiso   1.00
H82    H     0.38721   0.97581   0.34695   0.00000  Uiso   1.00
H83    H     0.23652   0.72561   0.20045   0.00000  Uiso   1.00
O84    O     0.45992   0.08332   0.84289   0.00000  Uiso   1.00
O85    O     0.23350   0.82470   0.37748   0.00000  Uiso   1.00
O86    O     0.03580   0.80841   0.18527   0.00000  Uiso   1.00
N87    N     0.31610   0.09974   0.91231   0.00000  Uiso   1.00
N88    N     0.15476   0.91541   0.29326   0.00000  Uiso   1.00
N89    N     0.01387   0.61640   0.15631   0.00000  Uiso   1.00
N90    N     0.47908   0.15638   0.94146   0.00000  Uiso   1.00
N91    N     0.31774   0.97205   0.32242   0.00000  Uiso   1.00
N92    N     0.17685   0.67304   0.18547   0.00000  Uiso   1.00
C93    C     0.14724   0.79444   0.88197   0.00000  Uiso   1.00
C94    C     0.23360   0.80974   0.93155   0.00000  Uiso   1.00
C95    C     0.21544   0.85418   0.98947   0.00000  Uiso   1.00
C96    C     0.30516   0.86117   0.02815   0.00000  Uiso   1.00
C97    C     0.42344   0.89049   0.10795   0.00000  Uiso   1.00
C98    C     0.18915   0.86056   0.82656   0.00000  Uiso   1.00
C99    C     0.13359   0.94771   0.79620   0.00000  Uiso   1.00
C100   C     0.18589   0.99747   0.74650   0.00000  Uiso   1.00
C101   C     0.23511   0.10563   0.66328   0.00000  Uiso   1.00
C102   C     0.15032   0.66737   0.86431   0.00000  Uiso   1.00
C103   C     0.06211   0.59208   0.86568   0.00000  Uiso   1.00
C104   C     0.08172   0.47919   0.84775   0.00000  Uiso   1.00
C105   C     0.07065   0.28739   0.82315   0.00000  Uiso   1.00
C106   C     0.33890   0.72783   0.84768   0.00000  Uiso   1.00
C107   C     0.33770   0.77356   0.91292   0.00000  Uiso   1.00
C108   C     0.42748   0.78048   0.95153   0.00000  Uiso   1.00
C109   C     0.40945   0.82492   0.00950   0.00000  Uiso   1.00
C110   C     0.29324   0.82439   0.80793   0.00000  Uiso   1.00
C111   C     0.34563   0.87402   0.75826   0.00000  Uiso   1.00
C112   C     0.29018   0.96123   0.72784   0.00000  Uiso   1.00
C113   C     0.25442   0.63119   0.84569   0.00000  Uiso   1.00
C114   C     0.27416   0.51839   0.82775   0.00000  Uiso   1.00
C115   C     0.18601   0.44294   0.82909   0.00000  Uiso   1.00
H116   H     0.06620   0.82261   0.89647   0.00000  Uiso   1.00
H117   H     0.13487   0.88218   0.00386   0.00000  Uiso   1.00
H118   H     0.05303   0.97569   0.81062   0.00000  Uiso   1.00
H119   H     0.98157   0.62011   0.88009   0.00000  Uiso   1.00
H120   H     0.25691   0.93231   0.11470   0.00000  Uiso   1.00
H121   H     0.08434   0.12945   0.70723   0.00000  Uiso   1.00
H122   H     0.93365   0.37965   0.85373   0.00000  Uiso   1.00
H123   H     0.41995   0.69966   0.83318   0.00000  Uiso   1.00
H124   H     0.50803   0.75248   0.93710   0.00000  Uiso   1.00
H125   H     0.42619   0.84599   0.74386   0.00000  Uiso   1.00
H126   H     0.35473   0.49042   0.81334   0.00000  Uiso   1.00
H127   H     0.55979   0.82704   0.06052   0.00000  Uiso   1.00
H128   H     0.38721   0.02419   0.65305   0.00000  Uiso   1.00
H129   H     0.23652   0.27439   0.79955   0.00000  Uiso   1.00
O130   O     0.45992   0.91668   0.15711   0.00000  Uiso   1.00
O131   O     0.23350   0.17530   0.62252   0.00000  Uiso   1.00
O132   O     0.03580   0.19159   0.81473   0.00000  Uiso   1.00
N133   N     0.31610   0.90026   0.08769   0.00000  Uiso   1.00
N134   N     0.15476   0.08459   0.70674   0.00000  Uiso   1.00
N135   N     0.01387   0.38360   0.84369   0.00000  Uiso   1.00
N136   N     0.47908   0.84362   0.05854   0.00000  Uiso   1.00
N137   N     0.31774   0.02795   0.67758   0.00000  Uiso   1.00
N138   N     0.17685   0.32696   0.81453   0.00000  Uiso   1.00
C139   C     0.85276   0.20556   0.38197   0.00000  Uiso   1.00
C140   C     0.76640   0.19026   0.43155   0.00000  Uiso   1.00
C141   C     0.78456   0.14582   0.48947   0.00000  Uiso   1.00
C142   C     0.69484   0.13883   0.52815   0.00000  Uiso   1.00
C143   C     0.57656   0.10951   0.60795   0.00000  Uiso   1.00
C144   C     0.81085   0.13944   0.32656   0.00000  Uiso   1.00
C145   C     0.86641   0.05229   0.29620   0.00000  Uiso   1.00
C146   C     0.81411   0.00253   0.24650   0.00000  Uiso   1.00
C147   C     0.76489   0.89437   0.16328   0.00000  Uiso   1.00
C148   C     0.84968   0.33263   0.36431   0.00000  Uiso   1.00
C149   C     0.93789   0.40792   0.36568   0.00000  Uiso   1.00
C150   C     0.91828   0.52081   0.34775   0.00000  Uiso   1.00
C151   C     0.92935   0.71261   0.32315   0.00000  Uiso   1.00
C152   C     0.66110   0.27217   0.34768   0.00000  Uiso   1.00
C153   C     0.66230   0.22644   0.41292   0.00000  Uiso   1.00
C154   C     0.57252   0.21952   0.45153   0.00000  Uiso   1.00
C155   C     0.59055   0.17508   0.50950   0.00000  Uiso   1.00
C156   C     0.70676   0.17561   0.30793   0.00000  Uiso   1.00
C157   C     0.65437   0.12598   0.25826   0.00000  Uiso   1.00
C158   C     0.70982   0.03877   0.22784   0.00000  Uiso   1.00
C159   C     0.74558   0.36881   0.34569   0.00000  Uiso   1.00
C160   C     0.72584   0.48161   0.32775   0.00000  Uiso   1.00
C161   C     0.81399   0.55706   0.32909   0.00000  Uiso   1.00
H162   H     0.93380   0.17739   0.39647   0.00000  Uiso   1.00
H163   H     0.86513   0.11782   0.50386   0.00000  Uiso   1.00
H164   H     0.94697   0.02431   0.31062   0.00000  Uiso   1.00
H165   H     0.01843   0.37989   0.38009   0.00000  Uiso   1.00
H166   H     0.74309   0.06769   0.61470   0.00000  Uiso   1.00
H167   H     0.91566   0.87055   0.20723   0.00000  Uiso   1.00
H168   H     0.06635   0.62035   0.35373   0.00000  Uiso   1.00
H169   H     0.58005   0.30034   0.33318   0.00000  Uiso   1.00
H170   H     0.49197   0.24752   0.43710   0.00000  Uiso   1.00
H171   H     0.57381   0.15401   0.24386   0.00000  Uiso   1.00
H172   H     0.64527   0.50958   0.31334   0.00000  Uiso   1.00
H173   H     0.44021   0.17296   0.56052   0.00000  Uiso   1.00
H174   H     0.61279   0.97581   0.15305   0.00000  Uiso   1.00
H175   H     0.76348   0.72561   0.29955   0.00000  Uiso   1.00
O176   O     0.54008   0.08332   0.65711   0.00000  Uiso   1.00
O177   O     0.76650   0.82470   0.12252   0.00000  Uiso   1.00
O178   O     0.96420   0.80841   0.31473   0.00000  Uiso   1.00
N179   N     0.68390   0.09974   0.58769   0.00000  Uiso   1.00
N180   N     0.84524   0.91541   0.20674   0.00000  Uiso   1.00
N181   N     0.98613   0.61640   0.34369   0.00000  Uiso   1.00
N182   N     0.52092   0.15638   0.55854   0.00000  Uiso   1.00
N183   N     0.68226   0.97205   0.17758   0.00000  Uiso   1.00
N184   N     0.82315   0.67304   0.31453   0.00000  Uiso   1.00
