data_job_03767
_audit_creation_date              2018-12-19
_audit_creation_method            'Materials Studio'
_symmetry_space_group_name_H-M    'P1'
_symmetry_Int_Tables_number       1
_symmetry_cell_setting            triclinic
loop_
_symmetry_equiv_pos_as_xyz
  x,y,z
_cell_length_a                    14.9577
_cell_length_b                    12.4663
_cell_length_c                    42.8643
_cell_angle_alpha                 90.0000
_cell_angle_beta                  109.0335
_cell_angle_gamma                 90.0000
loop_
_atom_site_label
_atom_site_type_symbol
_atom_site_fract_x
_atom_site_fract_y
_atom_site_fract_z
_atom_site_U_iso_or_equiv
_atom_site_adp_type
_atom_site_occupancy
C1     C     0.87915   0.26399   0.35846   0.00000  Uiso   1.00
C2     C     0.98351   0.27597   0.37861   0.00000  Uiso   1.00
C3     C     0.02290   0.25961   0.41236   0.00000  Uiso   1.00
C4     C     0.11982   0.27467   0.42617   0.00000  Uiso   1.00
C5     C     0.27342   0.28871   0.46038   0.00000  Uiso   1.00
C6     C     0.84893   0.37122   0.34111   0.00000  Uiso   1.00
C7     C     0.77516   0.43493   0.34333   0.00000  Uiso   1.00
C8     C     0.75878   0.53017   0.32556   0.00000  Uiso   1.00
C9     C     0.70340   0.69205   0.30154   0.00000  Uiso   1.00
C10    C     0.87497   0.18306   0.33135   0.00000  Uiso   1.00
C11    C     0.82307   0.08857   0.32535   0.00000  Uiso   1.00
C12    C     0.82860   0.02540   0.29937   0.00000  Uiso   1.00
C13    C     0.81366   0.89514   0.26019   0.00000  Uiso   1.00
C14    C     0.98125   0.31983   0.32296   0.00000  Uiso   1.00
C15    C     0.03896   0.30631   0.35932   0.00000  Uiso   1.00
C16    C     0.13585   0.32139   0.37308   0.00000  Uiso   1.00
C17    C     0.17537   0.30505   0.40685   0.00000  Uiso   1.00
C18    C     0.90438   0.40156   0.32182   0.00000  Uiso   1.00
C19    C     0.88811   0.49672   0.30405   0.00000  Uiso   1.00
C20    C     0.81434   0.56056   0.30624   0.00000  Uiso   1.00
C21    C     0.93043   0.21339   0.31207   0.00000  Uiso   1.00
C22    C     0.93603   0.15036   0.28608   0.00000  Uiso   1.00
C23    C     0.88416   0.05579   0.28005   0.00000  Uiso   1.00
H24    H     0.83598   0.24038   0.37347   0.00000  Uiso   1.00
H25    H     0.97996   0.23614   0.42727   0.00000  Uiso   1.00
H26    H     0.73225   0.41143   0.35825   0.00000  Uiso   1.00
H27    H     0.78017   0.06513   0.34028   0.00000  Uiso   1.00
H28    H     0.16403   0.24486   0.47842   0.00000  Uiso   1.00
H29    H     0.64171   0.61445   0.33287   0.00000  Uiso   1.00
H30    H     0.74275   0.88420   0.29498   0.00000  Uiso   1.00
H31    H     0.02442   0.34345   0.30795   0.00000  Uiso   1.00
H32    H     0.17875   0.34487   0.35816   0.00000  Uiso   1.00
H33    H     0.93104   0.52016   0.28913   0.00000  Uiso   1.00
H34    H     0.97895   0.17386   0.27116   0.00000  Uiso   1.00
H35    H     0.32538   0.33311   0.42232   0.00000  Uiso   1.00
H36    H     0.80305   0.70270   0.27677   0.00000  Uiso   1.00
H37    H     0.90409   0.97245   0.23888   0.00000  Uiso   1.00
O38    O     0.34282   0.28809   0.48458   0.00000  Uiso   1.00
O39    O     0.65754   0.77296   0.29362   0.00000  Uiso   1.00
O40    O     0.79010   0.81490   0.24391   0.00000  Uiso   1.00
N41    N     0.18083   0.26541   0.45832   0.00000  Uiso   1.00
N42    N     0.69250   0.61097   0.32225   0.00000  Uiso   1.00
N43    N     0.78694   0.92826   0.28682   0.00000  Uiso   1.00
N44    N     0.26765   0.31290   0.42814   0.00000  Uiso   1.00
N45    N     0.77932   0.65845   0.29206   0.00000  Uiso   1.00
N46    N     0.87376   0.97575   0.25663   0.00000  Uiso   1.00
C47    C     0.37915   0.76399   0.35846   0.00000  Uiso   1.00
C48    C     0.48351   0.77597   0.37861   0.00000  Uiso   1.00
C49    C     0.52290   0.75961   0.41236   0.00000  Uiso   1.00
C50    C     0.61982   0.77467   0.42617   0.00000  Uiso   1.00
C51    C     0.77342   0.78871   0.46038   0.00000  Uiso   1.00
C52    C     0.34893   0.87122   0.34111   0.00000  Uiso   1.00
C53    C     0.27516   0.93493   0.34333   0.00000  Uiso   1.00
C54    C     0.25878   0.03017   0.32556   0.00000  Uiso   1.00
C55    C     0.20340   0.19205   0.30154   0.00000  Uiso   1.00
C56    C     0.37497   0.68306   0.33135   0.00000  Uiso   1.00
C57    C     0.32307   0.58857   0.32535   0.00000  Uiso   1.00
C58    C     0.32860   0.52540   0.29937   0.00000  Uiso   1.00
C59    C     0.31366   0.39514   0.26019   0.00000  Uiso   1.00
C60    C     0.48125   0.81983   0.32296   0.00000  Uiso   1.00
C61    C     0.53896   0.80631   0.35932   0.00000  Uiso   1.00
C62    C     0.63585   0.82139   0.37308   0.00000  Uiso   1.00
C63    C     0.67537   0.80505   0.40685   0.00000  Uiso   1.00
C64    C     0.40438   0.90156   0.32182   0.00000  Uiso   1.00
C65    C     0.38811   0.99672   0.30405   0.00000  Uiso   1.00
C66    C     0.31434   0.06056   0.30624   0.00000  Uiso   1.00
C67    C     0.43043   0.71339   0.31207   0.00000  Uiso   1.00
C68    C     0.43603   0.65036   0.28608   0.00000  Uiso   1.00
C69    C     0.38416   0.55579   0.28005   0.00000  Uiso   1.00
H70    H     0.33598   0.74038   0.37347   0.00000  Uiso   1.00
H71    H     0.47996   0.73614   0.42727   0.00000  Uiso   1.00
H72    H     0.23225   0.91143   0.35825   0.00000  Uiso   1.00
H73    H     0.28017   0.56513   0.34028   0.00000  Uiso   1.00
H74    H     0.66403   0.74486   0.47842   0.00000  Uiso   1.00
H75    H     0.14171   0.11445   0.33287   0.00000  Uiso   1.00
H76    H     0.24275   0.38420   0.29498   0.00000  Uiso   1.00
H77    H     0.52442   0.84345   0.30795   0.00000  Uiso   1.00
H78    H     0.67875   0.84487   0.35816   0.00000  Uiso   1.00
H79    H     0.43104   0.02016   0.28913   0.00000  Uiso   1.00
H80    H     0.47895   0.67386   0.27116   0.00000  Uiso   1.00
H81    H     0.82538   0.83311   0.42232   0.00000  Uiso   1.00
H82    H     0.30305   0.20270   0.27677   0.00000  Uiso   1.00
H83    H     0.40409   0.47245   0.23888   0.00000  Uiso   1.00
O84    O     0.84282   0.78809   0.48458   0.00000  Uiso   1.00
O85    O     0.15754   0.27296   0.29362   0.00000  Uiso   1.00
O86    O     0.29010   0.31490   0.24391   0.00000  Uiso   1.00
N87    N     0.68083   0.76541   0.45832   0.00000  Uiso   1.00
N88    N     0.19250   0.11097   0.32225   0.00000  Uiso   1.00
N89    N     0.28694   0.42826   0.28682   0.00000  Uiso   1.00
N90    N     0.76765   0.81290   0.42814   0.00000  Uiso   1.00
N91    N     0.27932   0.15845   0.29206   0.00000  Uiso   1.00
N92    N     0.37376   0.47575   0.25663   0.00000  Uiso   1.00
C93    C     0.12085   0.26399   0.14154   0.00000  Uiso   1.00
C94    C     0.01649   0.27597   0.12139   0.00000  Uiso   1.00
C95    C     0.97710   0.25961   0.08764   0.00000  Uiso   1.00
C96    C     0.88018   0.27467   0.07383   0.00000  Uiso   1.00
C97    C     0.72658   0.28871   0.03962   0.00000  Uiso   1.00
C98    C     0.15107   0.37122   0.15889   0.00000  Uiso   1.00
C99    C     0.22484   0.43493   0.15667   0.00000  Uiso   1.00
C100   C     0.24122   0.53017   0.17444   0.00000  Uiso   1.00
C101   C     0.29660   0.69205   0.19846   0.00000  Uiso   1.00
C102   C     0.12503   0.18306   0.16865   0.00000  Uiso   1.00
C103   C     0.17693   0.08857   0.17465   0.00000  Uiso   1.00
C104   C     0.17140   0.02540   0.20063   0.00000  Uiso   1.00
C105   C     0.18634   0.89514   0.23981   0.00000  Uiso   1.00
C106   C     0.01875   0.31983   0.17704   0.00000  Uiso   1.00
C107   C     0.96104   0.30631   0.14068   0.00000  Uiso   1.00
C108   C     0.86415   0.32139   0.12692   0.00000  Uiso   1.00
C109   C     0.82463   0.30505   0.09315   0.00000  Uiso   1.00
C110   C     0.09562   0.40156   0.17818   0.00000  Uiso   1.00
C111   C     0.11189   0.49672   0.19595   0.00000  Uiso   1.00
C112   C     0.18566   0.56056   0.19376   0.00000  Uiso   1.00
C113   C     0.06957   0.21339   0.18793   0.00000  Uiso   1.00
C114   C     0.06397   0.15036   0.21392   0.00000  Uiso   1.00
C115   C     0.11584   0.05579   0.21995   0.00000  Uiso   1.00
H116   H     0.16402   0.24038   0.12653   0.00000  Uiso   1.00
H117   H     0.02004   0.23614   0.07273   0.00000  Uiso   1.00
H118   H     0.26775   0.41143   0.14175   0.00000  Uiso   1.00
H119   H     0.21983   0.06513   0.15972   0.00000  Uiso   1.00
H120   H     0.83597   0.24486   0.02158   0.00000  Uiso   1.00
H121   H     0.35829   0.61445   0.16713   0.00000  Uiso   1.00
H122   H     0.25725   0.88420   0.20502   0.00000  Uiso   1.00
H123   H     0.97558   0.34345   0.19205   0.00000  Uiso   1.00
H124   H     0.82125   0.34487   0.14184   0.00000  Uiso   1.00
H125   H     0.06896   0.52016   0.21087   0.00000  Uiso   1.00
H126   H     0.02105   0.17386   0.22884   0.00000  Uiso   1.00
H127   H     0.67462   0.33311   0.07768   0.00000  Uiso   1.00
H128   H     0.19695   0.70270   0.22323   0.00000  Uiso   1.00
H129   H     0.09591   0.97245   0.26112   0.00000  Uiso   1.00
O130   O     0.65718   0.28809   0.01542   0.00000  Uiso   1.00
O131   O     0.34246   0.77296   0.20638   0.00000  Uiso   1.00
O132   O     0.20990   0.81490   0.25609   0.00000  Uiso   1.00
N133   N     0.81917   0.26541   0.04168   0.00000  Uiso   1.00
N134   N     0.30750   0.61097   0.17775   0.00000  Uiso   1.00
N135   N     0.21306   0.92826   0.21318   0.00000  Uiso   1.00
N136   N     0.73235   0.31290   0.07186   0.00000  Uiso   1.00
N137   N     0.22068   0.65845   0.20794   0.00000  Uiso   1.00
N138   N     0.12624   0.97575   0.24337   0.00000  Uiso   1.00
C139   C     0.62085   0.76399   0.14154   0.00000  Uiso   1.00
C140   C     0.51649   0.77597   0.12139   0.00000  Uiso   1.00
C141   C     0.47710   0.75961   0.08764   0.00000  Uiso   1.00
C142   C     0.38018   0.77467   0.07383   0.00000  Uiso   1.00
C143   C     0.22658   0.78871   0.03962   0.00000  Uiso   1.00
C144   C     0.65107   0.87122   0.15889   0.00000  Uiso   1.00
C145   C     0.72484   0.93493   0.15667   0.00000  Uiso   1.00
C146   C     0.74122   0.03017   0.17444   0.00000  Uiso   1.00
C147   C     0.79660   0.19205   0.19846   0.00000  Uiso   1.00
C148   C     0.62503   0.68306   0.16865   0.00000  Uiso   1.00
C149   C     0.67693   0.58857   0.17465   0.00000  Uiso   1.00
C150   C     0.67140   0.52540   0.20063   0.00000  Uiso   1.00
C151   C     0.68634   0.39514   0.23981   0.00000  Uiso   1.00
C152   C     0.51875   0.81983   0.17704   0.00000  Uiso   1.00
C153   C     0.46104   0.80631   0.14068   0.00000  Uiso   1.00
C154   C     0.36415   0.82139   0.12692   0.00000  Uiso   1.00
C155   C     0.32463   0.80505   0.09315   0.00000  Uiso   1.00
C156   C     0.59562   0.90156   0.17818   0.00000  Uiso   1.00
C157   C     0.61189   0.99672   0.19595   0.00000  Uiso   1.00
C158   C     0.68566   0.06056   0.19376   0.00000  Uiso   1.00
C159   C     0.56957   0.71339   0.18793   0.00000  Uiso   1.00
C160   C     0.56397   0.65036   0.21392   0.00000  Uiso   1.00
C161   C     0.61584   0.55579   0.21995   0.00000  Uiso   1.00
H162   H     0.66402   0.74038   0.12653   0.00000  Uiso   1.00
H163   H     0.52004   0.73614   0.07273   0.00000  Uiso   1.00
H164   H     0.76775   0.91143   0.14175   0.00000  Uiso   1.00
H165   H     0.71983   0.56513   0.15972   0.00000  Uiso   1.00
H166   H     0.33597   0.74486   0.02158   0.00000  Uiso   1.00
H167   H     0.85829   0.11445   0.16713   0.00000  Uiso   1.00
H168   H     0.75725   0.38420   0.20502   0.00000  Uiso   1.00
H169   H     0.47558   0.84345   0.19205   0.00000  Uiso   1.00
H170   H     0.32125   0.84487   0.14184   0.00000  Uiso   1.00
H171   H     0.56896   0.02016   0.21087   0.00000  Uiso   1.00
H172   H     0.52105   0.67386   0.22884   0.00000  Uiso   1.00
H173   H     0.17462   0.83311   0.07768   0.00000  Uiso   1.00
H174   H     0.69695   0.20270   0.22323   0.00000  Uiso   1.00
H175   H     0.59591   0.47245   0.26112   0.00000  Uiso   1.00
O176   O     0.15718   0.78809   0.01542   0.00000  Uiso   1.00
O177   O     0.84246   0.27296   0.20638   0.00000  Uiso   1.00
O178   O     0.70990   0.31490   0.25609   0.00000  Uiso   1.00
N179   N     0.31917   0.76541   0.04168   0.00000  Uiso   1.00
N180   N     0.80750   0.11097   0.17775   0.00000  Uiso   1.00
N181   N     0.71306   0.42826   0.21318   0.00000  Uiso   1.00
N182   N     0.23235   0.81290   0.07186   0.00000  Uiso   1.00
N183   N     0.72068   0.15845   0.20794   0.00000  Uiso   1.00
N184   N     0.62624   0.47575   0.24337   0.00000  Uiso   1.00
C185   C     0.12085   0.73601   0.64154   0.00000  Uiso   1.00
C186   C     0.01649   0.72403   0.62139   0.00000  Uiso   1.00
C187   C     0.97710   0.74039   0.58764   0.00000  Uiso   1.00
C188   C     0.88018   0.72533   0.57383   0.00000  Uiso   1.00
C189   C     0.72658   0.71129   0.53962   0.00000  Uiso   1.00
C190   C     0.15107   0.62878   0.65889   0.00000  Uiso   1.00
C191   C     0.22484   0.56507   0.65667   0.00000  Uiso   1.00
C192   C     0.24122   0.46983   0.67444   0.00000  Uiso   1.00
C193   C     0.29660   0.30795   0.69846   0.00000  Uiso   1.00
C194   C     0.12503   0.81694   0.66865   0.00000  Uiso   1.00
C195   C     0.17693   0.91143   0.67465   0.00000  Uiso   1.00
C196   C     0.17140   0.97460   0.70063   0.00000  Uiso   1.00
C197   C     0.18634   0.10486   0.73981   0.00000  Uiso   1.00
C198   C     0.01875   0.68017   0.67704   0.00000  Uiso   1.00
C199   C     0.96104   0.69369   0.64068   0.00000  Uiso   1.00
C200   C     0.86415   0.67861   0.62692   0.00000  Uiso   1.00
C201   C     0.82463   0.69495   0.59315   0.00000  Uiso   1.00
C202   C     0.09562   0.59844   0.67818   0.00000  Uiso   1.00
C203   C     0.11189   0.50328   0.69595   0.00000  Uiso   1.00
C204   C     0.18566   0.43944   0.69376   0.00000  Uiso   1.00
C205   C     0.06957   0.78661   0.68793   0.00000  Uiso   1.00
C206   C     0.06397   0.84964   0.71392   0.00000  Uiso   1.00
C207   C     0.11584   0.94421   0.71995   0.00000  Uiso   1.00
H208   H     0.16402   0.75962   0.62653   0.00000  Uiso   1.00
H209   H     0.02004   0.76386   0.57273   0.00000  Uiso   1.00
H210   H     0.26775   0.58857   0.64175   0.00000  Uiso   1.00
H211   H     0.21983   0.93487   0.65972   0.00000  Uiso   1.00
H212   H     0.83597   0.75514   0.52158   0.00000  Uiso   1.00
H213   H     0.35829   0.38555   0.66713   0.00000  Uiso   1.00
H214   H     0.25725   0.11580   0.70502   0.00000  Uiso   1.00
H215   H     0.97558   0.65655   0.69205   0.00000  Uiso   1.00
H216   H     0.82125   0.65513   0.64184   0.00000  Uiso   1.00
H217   H     0.06896   0.47984   0.71087   0.00000  Uiso   1.00
H218   H     0.02105   0.82614   0.72884   0.00000  Uiso   1.00
H219   H     0.67462   0.66689   0.57768   0.00000  Uiso   1.00
H220   H     0.19695   0.29730   0.72323   0.00000  Uiso   1.00
H221   H     0.09591   0.02755   0.76112   0.00000  Uiso   1.00
O222   O     0.65718   0.71191   0.51542   0.00000  Uiso   1.00
O223   O     0.34246   0.22704   0.70638   0.00000  Uiso   1.00
O224   O     0.20990   0.18510   0.75609   0.00000  Uiso   1.00
N225   N     0.81917   0.73459   0.54168   0.00000  Uiso   1.00
N226   N     0.30750   0.38903   0.67775   0.00000  Uiso   1.00
N227   N     0.21306   0.07174   0.71318   0.00000  Uiso   1.00
N228   N     0.73235   0.68710   0.57186   0.00000  Uiso   1.00
N229   N     0.22068   0.34155   0.70794   0.00000  Uiso   1.00
N230   N     0.12624   0.02425   0.74337   0.00000  Uiso   1.00
C231   C     0.62085   0.23601   0.64154   0.00000  Uiso   1.00
C232   C     0.51649   0.22403   0.62139   0.00000  Uiso   1.00
C233   C     0.47710   0.24039   0.58764   0.00000  Uiso   1.00
C234   C     0.38018   0.22533   0.57383   0.00000  Uiso   1.00
C235   C     0.22658   0.21129   0.53962   0.00000  Uiso   1.00
C236   C     0.65107   0.12878   0.65889   0.00000  Uiso   1.00
C237   C     0.72484   0.06507   0.65667   0.00000  Uiso   1.00
C238   C     0.74122   0.96983   0.67444   0.00000  Uiso   1.00
C239   C     0.79660   0.80795   0.69846   0.00000  Uiso   1.00
C240   C     0.62503   0.31694   0.66865   0.00000  Uiso   1.00
C241   C     0.67693   0.41143   0.67465   0.00000  Uiso   1.00
C242   C     0.67140   0.47460   0.70063   0.00000  Uiso   1.00
C243   C     0.68634   0.60486   0.73981   0.00000  Uiso   1.00
C244   C     0.51875   0.18017   0.67704   0.00000  Uiso   1.00
C245   C     0.46104   0.19369   0.64068   0.00000  Uiso   1.00
C246   C     0.36415   0.17861   0.62692   0.00000  Uiso   1.00
C247   C     0.32463   0.19495   0.59315   0.00000  Uiso   1.00
C248   C     0.59562   0.09844   0.67818   0.00000  Uiso   1.00
C249   C     0.61189   0.00328   0.69595   0.00000  Uiso   1.00
C250   C     0.68566   0.93944   0.69376   0.00000  Uiso   1.00
C251   C     0.56957   0.28661   0.68793   0.00000  Uiso   1.00
C252   C     0.56397   0.34964   0.71392   0.00000  Uiso   1.00
C253   C     0.61584   0.44421   0.71995   0.00000  Uiso   1.00
H254   H     0.66402   0.25962   0.62653   0.00000  Uiso   1.00
H255   H     0.52004   0.26386   0.57273   0.00000  Uiso   1.00
H256   H     0.76775   0.08857   0.64175   0.00000  Uiso   1.00
H257   H     0.71983   0.43487   0.65972   0.00000  Uiso   1.00
H258   H     0.33597   0.25514   0.52158   0.00000  Uiso   1.00
H259   H     0.85829   0.88555   0.66713   0.00000  Uiso   1.00
H260   H     0.75725   0.61580   0.70502   0.00000  Uiso   1.00
H261   H     0.47558   0.15655   0.69205   0.00000  Uiso   1.00
H262   H     0.32125   0.15513   0.64184   0.00000  Uiso   1.00
H263   H     0.56896   0.97984   0.71087   0.00000  Uiso   1.00
H264   H     0.52105   0.32614   0.72884   0.00000  Uiso   1.00
H265   H     0.17462   0.16689   0.57768   0.00000  Uiso   1.00
H266   H     0.69695   0.79730   0.72323   0.00000  Uiso   1.00
H267   H     0.59591   0.52755   0.76112   0.00000  Uiso   1.00
O268   O     0.15718   0.21191   0.51542   0.00000  Uiso   1.00
O269   O     0.84246   0.72704   0.70638   0.00000  Uiso   1.00
O270   O     0.70990   0.68510   0.75609   0.00000  Uiso   1.00
N271   N     0.31917   0.23459   0.54168   0.00000  Uiso   1.00
N272   N     0.80750   0.88903   0.67775   0.00000  Uiso   1.00
N273   N     0.71306   0.57174   0.71318   0.00000  Uiso   1.00
N274   N     0.23235   0.18710   0.57186   0.00000  Uiso   1.00
N275   N     0.72068   0.84155   0.70794   0.00000  Uiso   1.00
N276   N     0.62624   0.52425   0.74337   0.00000  Uiso   1.00
C277   C     0.87915   0.73601   0.85846   0.00000  Uiso   1.00
C278   C     0.98351   0.72403   0.87861   0.00000  Uiso   1.00
C279   C     0.02290   0.74039   0.91236   0.00000  Uiso   1.00
C280   C     0.11982   0.72533   0.92617   0.00000  Uiso   1.00
C281   C     0.27342   0.71129   0.96038   0.00000  Uiso   1.00
C282   C     0.84893   0.62878   0.84111   0.00000  Uiso   1.00
C283   C     0.77516   0.56507   0.84333   0.00000  Uiso   1.00
C284   C     0.75878   0.46983   0.82556   0.00000  Uiso   1.00
C285   C     0.70340   0.30795   0.80154   0.00000  Uiso   1.00
C286   C     0.87497   0.81694   0.83135   0.00000  Uiso   1.00
C287   C     0.82307   0.91143   0.82535   0.00000  Uiso   1.00
C288   C     0.82860   0.97460   0.79937   0.00000  Uiso   1.00
C289   C     0.81366   0.10486   0.76019   0.00000  Uiso   1.00
C290   C     0.98125   0.68017   0.82296   0.00000  Uiso   1.00
C291   C     0.03896   0.69369   0.85932   0.00000  Uiso   1.00
C292   C     0.13585   0.67861   0.87308   0.00000  Uiso   1.00
C293   C     0.17537   0.69495   0.90685   0.00000  Uiso   1.00
C294   C     0.90438   0.59844   0.82182   0.00000  Uiso   1.00
C295   C     0.88811   0.50328   0.80405   0.00000  Uiso   1.00
C296   C     0.81434   0.43944   0.80624   0.00000  Uiso   1.00
C297   C     0.93043   0.78661   0.81207   0.00000  Uiso   1.00
C298   C     0.93603   0.84964   0.78608   0.00000  Uiso   1.00
C299   C     0.88416   0.94421   0.78005   0.00000  Uiso   1.00
H300   H     0.83598   0.75962   0.87347   0.00000  Uiso   1.00
H301   H     0.97996   0.76386   0.92727   0.00000  Uiso   1.00
H302   H     0.73225   0.58857   0.85825   0.00000  Uiso   1.00
H303   H     0.78017   0.93487   0.84028   0.00000  Uiso   1.00
H304   H     0.16403   0.75514   0.97842   0.00000  Uiso   1.00
H305   H     0.64171   0.38555   0.83287   0.00000  Uiso   1.00
H306   H     0.74275   0.11580   0.79498   0.00000  Uiso   1.00
H307   H     0.02442   0.65655   0.80795   0.00000  Uiso   1.00
H308   H     0.17875   0.65513   0.85816   0.00000  Uiso   1.00
H309   H     0.93104   0.47984   0.78913   0.00000  Uiso   1.00
H310   H     0.97895   0.82614   0.77116   0.00000  Uiso   1.00
H311   H     0.32538   0.66689   0.92232   0.00000  Uiso   1.00
H312   H     0.80305   0.29730   0.77677   0.00000  Uiso   1.00
H313   H     0.90409   0.02755   0.73888   0.00000  Uiso   1.00
O314   O     0.34282   0.71191   0.98458   0.00000  Uiso   1.00
O315   O     0.65754   0.22704   0.79362   0.00000  Uiso   1.00
O316   O     0.79010   0.18510   0.74391   0.00000  Uiso   1.00
N317   N     0.18083   0.73459   0.95832   0.00000  Uiso   1.00
N318   N     0.69250   0.38903   0.82225   0.00000  Uiso   1.00
N319   N     0.78694   0.07174   0.78682   0.00000  Uiso   1.00
N320   N     0.26765   0.68710   0.92814   0.00000  Uiso   1.00
N321   N     0.77932   0.34155   0.79206   0.00000  Uiso   1.00
N322   N     0.87376   0.02425   0.75663   0.00000  Uiso   1.00
C323   C     0.37915   0.23601   0.85846   0.00000  Uiso   1.00
C324   C     0.48351   0.22403   0.87861   0.00000  Uiso   1.00
C325   C     0.52290   0.24039   0.91236   0.00000  Uiso   1.00
C326   C     0.61982   0.22533   0.92617   0.00000  Uiso   1.00
C327   C     0.77342   0.21129   0.96038   0.00000  Uiso   1.00
C328   C     0.34893   0.12878   0.84111   0.00000  Uiso   1.00
C329   C     0.27516   0.06507   0.84333   0.00000  Uiso   1.00
C330   C     0.25878   0.96983   0.82556   0.00000  Uiso   1.00
C331   C     0.20340   0.80795   0.80154   0.00000  Uiso   1.00
C332   C     0.37497   0.31694   0.83135   0.00000  Uiso   1.00
C333   C     0.32307   0.41143   0.82535   0.00000  Uiso   1.00
C334   C     0.32860   0.47460   0.79937   0.00000  Uiso   1.00
C335   C     0.31366   0.60486   0.76019   0.00000  Uiso   1.00
C336   C     0.48125   0.18017   0.82296   0.00000  Uiso   1.00
C337   C     0.53896   0.19369   0.85932   0.00000  Uiso   1.00
C338   C     0.63585   0.17861   0.87308   0.00000  Uiso   1.00
C339   C     0.67537   0.19495   0.90685   0.00000  Uiso   1.00
C340   C     0.40438   0.09844   0.82182   0.00000  Uiso   1.00
C341   C     0.38811   0.00328   0.80405   0.00000  Uiso   1.00
C342   C     0.31434   0.93944   0.80624   0.00000  Uiso   1.00
C343   C     0.43043   0.28661   0.81207   0.00000  Uiso   1.00
C344   C     0.43603   0.34964   0.78608   0.00000  Uiso   1.00
C345   C     0.38416   0.44421   0.78005   0.00000  Uiso   1.00
H346   H     0.33598   0.25962   0.87347   0.00000  Uiso   1.00
H347   H     0.47996   0.26386   0.92727   0.00000  Uiso   1.00
H348   H     0.23225   0.08857   0.85825   0.00000  Uiso   1.00
H349   H     0.28017   0.43487   0.84028   0.00000  Uiso   1.00
H350   H     0.66403   0.25514   0.97842   0.00000  Uiso   1.00
H351   H     0.14171   0.88555   0.83287   0.00000  Uiso   1.00
H352   H     0.24275   0.61580   0.79498   0.00000  Uiso   1.00
H353   H     0.52442   0.15655   0.80795   0.00000  Uiso   1.00
H354   H     0.67875   0.15513   0.85816   0.00000  Uiso   1.00
H355   H     0.43104   0.97984   0.78913   0.00000  Uiso   1.00
H356   H     0.47895   0.32614   0.77116   0.00000  Uiso   1.00
H357   H     0.82538   0.16689   0.92232   0.00000  Uiso   1.00
H358   H     0.30305   0.79730   0.77677   0.00000  Uiso   1.00
H359   H     0.40409   0.52755   0.73888   0.00000  Uiso   1.00
O360   O     0.84282   0.21191   0.98458   0.00000  Uiso   1.00
O361   O     0.15754   0.72704   0.79362   0.00000  Uiso   1.00
O362   O     0.29010   0.68510   0.74391   0.00000  Uiso   1.00
N363   N     0.68083   0.23459   0.95832   0.00000  Uiso   1.00
N364   N     0.19250   0.88903   0.82225   0.00000  Uiso   1.00
N365   N     0.28694   0.57174   0.78682   0.00000  Uiso   1.00
N366   N     0.76765   0.18710   0.92814   0.00000  Uiso   1.00
N367   N     0.27932   0.84155   0.79206   0.00000  Uiso   1.00
N368   N     0.37376   0.52425   0.75663   0.00000  Uiso   1.00
