data_job_06418
_audit_creation_date              2018-12-19
_audit_creation_method            'Materials Studio'
_symmetry_space_group_name_H-M    'P1'
_symmetry_Int_Tables_number       1
_symmetry_cell_setting            triclinic
loop_
_symmetry_equiv_pos_as_xyz
  x,y,z
_cell_length_a                    12.0439
_cell_length_b                    22.3034
_cell_length_c                    22.3308
_cell_angle_alpha                 63.0930
_cell_angle_beta                  100.6147
_cell_angle_gamma                 80.1313
loop_
_atom_site_label
_atom_site_type_symbol
_atom_site_fract_x
_atom_site_fract_y
_atom_site_fract_z
_atom_site_U_iso_or_equiv
_atom_site_adp_type
_atom_site_occupancy
C1     C     0.54504   0.93404   0.36445   0.00000  Uiso   1.00
C2     C     0.55992   0.98688   0.29546   0.00000  Uiso   1.00
C3     C     0.47801   0.05087   0.24548   0.00000  Uiso   1.00
C4     C     0.50824   0.09169   0.18589   0.00000  Uiso   1.00
C5     C     0.51486   0.17714   0.08015   0.00000  Uiso   1.00
C6     C     0.56125   0.86504   0.36377   0.00000  Uiso   1.00
C7     C     0.48046   0.82660   0.37122   0.00000  Uiso   1.00
C8     C     0.51181   0.76485   0.36914   0.00000  Uiso   1.00
C9     C     0.52053   0.66112   0.36950   0.00000  Uiso   1.00
C10    C     0.65053   0.92187   0.42251   0.00000  Uiso   1.00
C11    C     0.64482   0.93118   0.47937   0.00000  Uiso   1.00
C12    C     0.75135   0.91725   0.52675   0.00000  Uiso   1.00
C13    C     0.89868   0.90175   0.61831   0.00000  Uiso   1.00
C14    C     0.74437   0.89273   0.34750   0.00000  Uiso   1.00
C15    C     0.66819   0.96444   0.28626   0.00000  Uiso   1.00
C16    C     0.69855   0.00517   0.22673   0.00000  Uiso   1.00
C17    C     0.61670   0.06921   0.17667   0.00000  Uiso   1.00
C18    C     0.66951   0.84261   0.35456   0.00000  Uiso   1.00
C19    C     0.70100   0.78090   0.35247   0.00000  Uiso   1.00
C20    C     0.62028   0.74237   0.35992   0.00000  Uiso   1.00
C21    C     0.75880   0.89943   0.41330   0.00000  Uiso   1.00
C22    C     0.86536   0.88548   0.46061   0.00000  Uiso   1.00
C23    C     0.85981   0.89477   0.51753   0.00000  Uiso   1.00
H24    H     0.46074   0.95150   0.37162   0.00000  Uiso   1.00
H25    H     0.39423   0.06821   0.25262   0.00000  Uiso   1.00
H26    H     0.39669   0.84397   0.37835   0.00000  Uiso   1.00
H27    H     0.56102   0.94854   0.48647   0.00000  Uiso   1.00
H28    H     0.36822   0.18771   0.11662   0.00000  Uiso   1.00
H29    H     0.37342   0.71487   0.38175   0.00000  Uiso   1.00
H30    H     0.71994   0.93537   0.60975   0.00000  Uiso   1.00
H31    H     0.82866   0.87525   0.34034   0.00000  Uiso   1.00
H32    H     0.78234   0.98779   0.21962   0.00000  Uiso   1.00
H33    H     0.78479   0.76355   0.34535   0.00000  Uiso   1.00
H34    H     0.94912   0.86812   0.45347   0.00000  Uiso   1.00
H35    H     0.68322   0.12243   0.08983   0.00000  Uiso   1.00
H36    H     0.68842   0.64959   0.35497   0.00000  Uiso   1.00
H37    H     0.03494   0.87010   0.58296   0.00000  Uiso   1.00
O38    O     0.48859   0.23047   0.02437   0.00000  Uiso   1.00
O39    O     0.49542   0.61011   0.37223   0.00000  Uiso   1.00
O40    O     0.95005   0.89941   0.67135   0.00000  Uiso   1.00
N41    N     0.44872   0.15691   0.12689   0.00000  Uiso   1.00
N42    N     0.45357   0.71484   0.37476   0.00000  Uiso   1.00
N43    N     0.77754   0.92097   0.58793   0.00000  Uiso   1.00
N44    N     0.61822   0.12179   0.11247   0.00000  Uiso   1.00
N45    N     0.62307   0.67971   0.36035   0.00000  Uiso   1.00
N46    N     0.94704   0.88585   0.57352   0.00000  Uiso   1.00
C47    C     0.48229   0.70205   0.93424   0.00000  Uiso   1.00
C48    C     0.55014   0.71839   0.98702   0.00000  Uiso   1.00
C49    C     0.53222   0.70411   0.05119   0.00000  Uiso   1.00
C50    C     0.60338   0.72313   0.09190   0.00000  Uiso   1.00
C51    C     0.69561   0.74364   0.17729   0.00000  Uiso   1.00
C52    C     0.43031   0.77169   0.86519   0.00000  Uiso   1.00
C53    C     0.31165   0.80222   0.82693   0.00000  Uiso   1.00
C54    C     0.28194   0.86610   0.76508   0.00000  Uiso   1.00
C55    C     0.18815   0.96934   0.66130   0.00000  Uiso   1.00
C56    C     0.57485   0.65663   0.92186   0.00000  Uiso   1.00
C57    C     0.57770   0.59042   0.93123   0.00000  Uiso   1.00
C58    C     0.66967   0.55744   0.91708   0.00000  Uiso   1.00
C59    C     0.80030   0.48204   0.90129   0.00000  Uiso   1.00
C60    C     0.64052   0.76123   0.89243   0.00000  Uiso   1.00
C61    C     0.63608   0.75054   0.96430   0.00000  Uiso   1.00
C62    C     0.70729   0.76958   0.00493   0.00000  Uiso   1.00
C63    C     0.68948   0.75533   0.06916   0.00000  Uiso   1.00
C64    C     0.51625   0.80384   0.84248   0.00000  Uiso   1.00
C65    C     0.48671   0.86769   0.78067   0.00000  Uiso   1.00
C66    C     0.36803   0.89830   0.74233   0.00000  Uiso   1.00
C67    C     0.66080   0.68877   0.89915   0.00000  Uiso   1.00
C68    C     0.75277   0.65590   0.88498   0.00000  Uiso   1.00
C69    C     0.75577   0.58964   0.89433   0.00000  Uiso   1.00
H70    H     0.41537   0.67703   0.95192   0.00000  Uiso   1.00
H71    H     0.46569   0.67924   0.06874   0.00000  Uiso   1.00
H72    H     0.24516   0.77733   0.84451   0.00000  Uiso   1.00
H73    H     0.51118   0.56557   0.94880   0.00000  Uiso   1.00
H74    H     0.55935   0.69589   0.18824   0.00000  Uiso   1.00
H75    H     0.09435   0.90270   0.71543   0.00000  Uiso   1.00
H76    H     0.65530   0.45616   0.93534   0.00000  Uiso   1.00
H77    H     0.70744   0.78625   0.87475   0.00000  Uiso   1.00
H78    H     0.77379   0.79445   0.98735   0.00000  Uiso   1.00
H79    H     0.55325   0.89254   0.76311   0.00000  Uiso   1.00
H80    H     0.81927   0.68078   0.86740   0.00000  Uiso   1.00
H81    H     0.80941   0.78940   0.12217   0.00000  Uiso   1.00
H82    H     0.34440   0.99621   0.64936   0.00000  Uiso   1.00
H83    H     0.90536   0.54967   0.86928   0.00000  Uiso   1.00
O84    O     0.72273   0.74609   0.23066   0.00000  Uiso   1.00
O85    O     0.11266   0.01741   0.61034   0.00000  Uiso   1.00
O86    O     0.84862   0.43156   0.89887   0.00000  Uiso   1.00
N87    N     0.60911   0.71676   0.15724   0.00000  Uiso   1.00
N88    N     0.17436   0.91012   0.71520   0.00000  Uiso   1.00
N89    N     0.69879   0.49265   0.92078   0.00000  Uiso   1.00
N90    N     0.74367   0.76708   0.12170   0.00000  Uiso   1.00
N91    N     0.30891   0.96044   0.67965   0.00000  Uiso   1.00
N92    N     0.83334   0.54297   0.88523   0.00000  Uiso   1.00
C93    C     0.18102   0.36321   0.70129   0.00000  Uiso   1.00
C94    C     0.26425   0.29443   0.71751   0.00000  Uiso   1.00
C95    C     0.23153   0.24440   0.70332   0.00000  Uiso   1.00
C96    C     0.32085   0.18503   0.72220   0.00000  Uiso   1.00
C97    C     0.43215   0.07957   0.74257   0.00000  Uiso   1.00
C98    C     0.19876   0.36252   0.77103   0.00000  Uiso   1.00
C99    C     0.11097   0.36974   0.80182   0.00000  Uiso   1.00
C100   C     0.14516   0.36769   0.86575   0.00000  Uiso   1.00
C101   C     0.15478   0.36800   0.96917   0.00000  Uiso   1.00
C102   C     0.22863   0.42139   0.65563   0.00000  Uiso   1.00
C103   C     0.16595   0.47814   0.58940   0.00000  Uiso   1.00
C104   C     0.22527   0.52567   0.55618   0.00000  Uiso   1.00
C105   C     0.28127   0.61739   0.48042   0.00000  Uiso   1.00
C106   C     0.39782   0.34674   0.76008   0.00000  Uiso   1.00
C107   C     0.38200   0.28549   0.74945   0.00000  Uiso   1.00
C108   C     0.47139   0.22618   0.76836   0.00000  Uiso   1.00
C109   C     0.43881   0.17606   0.75419   0.00000  Uiso   1.00
C110   C     0.31651   0.35357   0.80296   0.00000  Uiso   1.00
C111   C     0.35083   0.35152   0.86686   0.00000  Uiso   1.00
C112   C     0.26312   0.35873   0.89774   0.00000  Uiso   1.00
C113   C     0.34638   0.41245   0.68756   0.00000  Uiso   1.00
C114   C     0.40581   0.45991   0.65444   0.00000  Uiso   1.00
C115   C     0.34324   0.51671   0.58817   0.00000  Uiso   1.00
H116   H     0.08934   0.37018   0.67644   0.00000  Uiso   1.00
H117   H     0.14039   0.25134   0.67861   0.00000  Uiso   1.00
H118   H     0.01985   0.37667   0.77709   0.00000  Uiso   1.00
H119   H     0.07483   0.48504   0.56470   0.00000  Uiso   1.00
H120   H     0.24891   0.11563   0.69513   0.00000  Uiso   1.00
H121   H     0.99474   0.37992   0.90277   0.00000  Uiso   1.00
H122   H     0.11066   0.60845   0.45491   0.00000  Uiso   1.00
H123   H     0.48950   0.33978   0.78494   0.00000  Uiso   1.00
H124   H     0.56251   0.21927   0.79307   0.00000  Uiso   1.00
H125   H     0.44196   0.34460   0.89155   0.00000  Uiso   1.00
H126   H     0.49693   0.45297   0.67916   0.00000  Uiso   1.00
H127   H     0.59151   0.08959   0.78803   0.00000  Uiso   1.00
H128   H     0.33734   0.35389   0.99567   0.00000  Uiso   1.00
H129   H     0.45326   0.58241   0.54781   0.00000  Uiso   1.00
O130   O     0.46102   0.02387   0.74499   0.00000  Uiso   1.00
O131   O     0.12755   0.37063   0.01739   0.00000  Uiso   1.00
O132   O     0.27963   0.67045   0.42981   0.00000  Uiso   1.00
N133   N     0.31953   0.12604   0.71586   0.00000  Uiso   1.00
N134   N     0.08189   0.37313   0.91000   0.00000  Uiso   1.00
N135   N     0.19026   0.58679   0.49129   0.00000  Uiso   1.00
N136   N     0.50388   0.11204   0.76585   0.00000  Uiso   1.00
N137   N     0.26625   0.35912   0.95999   0.00000  Uiso   1.00
N138   N     0.37461   0.57279   0.54128   0.00000  Uiso   1.00
C139   C     0.68098   0.29798   0.63572   0.00000  Uiso   1.00
C140   C     0.76487   0.28187   0.70473   0.00000  Uiso   1.00
C141   C     0.73296   0.29590   0.75474   0.00000  Uiso   1.00
C142   C     0.82278   0.27715   0.81435   0.00000  Uiso   1.00
C143   C     0.93516   0.25692   0.92012   0.00000  Uiso   1.00
C144   C     0.69785   0.22834   0.63635   0.00000  Uiso   1.00
C145   C     0.60958   0.19736   0.62885   0.00000  Uiso   1.00
C146   C     0.64300   0.13355   0.63089   0.00000  Uiso   1.00
C147   C     0.65131   0.03023   0.63044   0.00000  Uiso   1.00
C148   C     0.72843   0.34382   0.57769   0.00000  Uiso   1.00
C149   C     0.66587   0.40994   0.52086   0.00000  Uiso   1.00
C150   C     0.72502   0.44336   0.47349   0.00000  Uiso   1.00
C151   C     0.78081   0.51935   0.38197   0.00000  Uiso   1.00
C152   C     0.89725   0.23974   0.65265   0.00000  Uiso   1.00
C153   C     0.88234   0.25024   0.71392   0.00000  Uiso   1.00
C154   C     0.97223   0.23147   0.77347   0.00000  Uiso   1.00
C155   C     0.94046   0.24547   0.82356   0.00000  Uiso   1.00
C156   C     0.81531   0.19670   0.64554   0.00000  Uiso   1.00
C157   C     0.84886   0.13293   0.64758   0.00000  Uiso   1.00
C158   C     0.76068   0.10186   0.64010   0.00000  Uiso   1.00
C159   C     0.84590   0.31219   0.58688   0.00000  Uiso   1.00
C160   C     0.90515   0.34551   0.53959   0.00000  Uiso   1.00
C161   C     0.84270   0.41167   0.48270   0.00000  Uiso   1.00
H162   H     0.58952   0.32260   0.62856   0.00000  Uiso   1.00
H163   H     0.64204   0.32037   0.74761   0.00000  Uiso   1.00
H164   H     0.51869   0.22186   0.62173   0.00000  Uiso   1.00
H165   H     0.57497   0.43440   0.51376   0.00000  Uiso   1.00
H166   H     0.75206   0.30392   0.88366   0.00000  Uiso   1.00
H167   H     0.49196   0.09621   0.61822   0.00000  Uiso   1.00
H168   H     0.61063   0.54441   0.39053   0.00000  Uiso   1.00
H169   H     0.98871   0.21512   0.65981   0.00000  Uiso   1.00
H170   H     0.06313   0.20699   0.78057   0.00000  Uiso   1.00
H171   H     0.93977   0.10847   0.65469   0.00000  Uiso   1.00
H172   H     0.99605   0.32102   0.54672   0.00000  Uiso   1.00
H173   H     0.09383   0.21190   0.91041   0.00000  Uiso   1.00
H174   H     0.83372   0.00418   0.64497   0.00000  Uiso   1.00
H175   H     0.95240   0.45238   0.41729   0.00000  Uiso   1.00
O176   O     0.96469   0.25448   0.97593   0.00000  Uiso   1.00
O177   O     0.62344   0.98197   0.62766   0.00000  Uiso   1.00
O178   O     0.77914   0.57000   0.32895   0.00000  Uiso   1.00
N179   N     0.82228   0.28339   0.87338   0.00000  Uiso   1.00
N180   N     0.57911   0.08919   0.62522   0.00000  Uiso   1.00
N181   N     0.69005   0.50821   0.41234   0.00000  Uiso   1.00
N182   N     0.00619   0.23388   0.88777   0.00000  Uiso   1.00
N183   N     0.76301   0.03967   0.63961   0.00000  Uiso   1.00
N184   N     0.87395   0.45869   0.42674   0.00000  Uiso   1.00
C185   C     0.04775   0.63663   0.06524   0.00000  Uiso   1.00
C186   C     0.06284   0.70569   0.01250   0.00000  Uiso   1.00
C187   C     0.98075   0.75553   0.94834   0.00000  Uiso   1.00
C188   C     0.01121   0.81522   0.90767   0.00000  Uiso   1.00
C189   C     0.01809   0.92104   0.82234   0.00000  Uiso   1.00
C190   C     0.06484   0.63724   0.13432   0.00000  Uiso   1.00
C191   C     0.98444   0.62953   0.17258   0.00000  Uiso   1.00
C192   C     0.01659   0.63159   0.23446   0.00000  Uiso   1.00
C193   C     0.02660   0.63110   0.33827   0.00000  Uiso   1.00
C194   C     0.15267   0.57885   0.07758   0.00000  Uiso   1.00
C195   C     0.14613   0.52203   0.06816   0.00000  Uiso   1.00
C196   C     0.25224   0.47492   0.08229   0.00000  Uiso   1.00
C197   C     0.39863   0.38377   0.09802   0.00000  Uiso   1.00
C198   C     0.24782   0.65399   0.10710   0.00000  Uiso   1.00
C199   C     0.17151   0.71512   0.03524   0.00000  Uiso   1.00
C200   C     0.20211   0.77475   0.99465   0.00000  Uiso   1.00
C201   C     0.12008   0.82467   0.93044   0.00000  Uiso   1.00
C202   C     0.17350   0.64668   0.15706   0.00000  Uiso   1.00
C203   C     0.20579   0.64875   0.21889   0.00000  Uiso   1.00
C204   C     0.12546   0.64104   0.25723   0.00000  Uiso   1.00
C205   C     0.26134   0.58829   0.10032   0.00000  Uiso   1.00
C206   C     0.36748   0.54125   0.11447   0.00000  Uiso   1.00
C207   C     0.36110   0.48437   0.10507   0.00000  Uiso   1.00
H208   H     0.96315   0.62928   0.04754   0.00000  Uiso   1.00
H209   H     0.89666   0.74822   0.93077   0.00000  Uiso   1.00
H210   H     0.90035   0.62223   0.15497   0.00000  Uiso   1.00
H211   H     0.06202   0.51475   0.05057   0.00000  Uiso   1.00
H212   H     0.87086   0.88425   0.81134   0.00000  Uiso   1.00
H213   H     0.87866   0.61857   0.28410   0.00000  Uiso   1.00
H214   H     0.21956   0.39193   0.06394   0.00000  Uiso   1.00
H215   H     0.33243   0.66134   0.12480   0.00000  Uiso   1.00
H216   H     0.28621   0.78203   0.01226   0.00000  Uiso   1.00
H217   H     0.28989   0.65604   0.23647   0.00000  Uiso   1.00
H218   H     0.45156   0.54857   0.13206   0.00000  Uiso   1.00
H219   H     0.18702   0.91170   0.87749   0.00000  Uiso   1.00
H220   H     0.19482   0.64601   0.35025   0.00000  Uiso   1.00
H221   H     0.53573   0.41938   0.13009   0.00000  Uiso   1.00
O222   O     0.99185   0.97680   0.76900   0.00000  Uiso   1.00
O223   O     0.00209   0.62823   0.38925   0.00000  Uiso   1.00
O224   O     0.44936   0.33088   0.10040   0.00000  Uiso   1.00
N225   N     0.95162   0.87414   0.84235   0.00000  Uiso   1.00
N226   N     0.95890   0.62575   0.28435   0.00000  Uiso   1.00
N227   N     0.27762   0.41385   0.07853   0.00000  Uiso   1.00
N228   N     0.12175   0.88891   0.87794   0.00000  Uiso   1.00
N229   N     0.12903   0.64052   0.31994   0.00000  Uiso   1.00
N230   N     0.44775   0.42862   0.11412   0.00000  Uiso   1.00
C231   C     0.97962   0.06469   0.29903   0.00000  Uiso   1.00
C232   C     0.04660   0.01215   0.28276   0.00000  Uiso   1.00
C233   C     0.02806   0.94795   0.29690   0.00000  Uiso   1.00
C234   C     0.09846   0.90747   0.27798   0.00000  Uiso   1.00
C235   C     0.18937   0.82240   0.25755   0.00000  Uiso   1.00
C236   C     0.92763   0.13368   0.22932   0.00000  Uiso   1.00
C237   C     0.80906   0.17167   0.19854   0.00000  Uiso   1.00
C238   C     0.77932   0.23350   0.13463   0.00000  Uiso   1.00
C239   C     0.68554   0.33714   0.03125   0.00000  Uiso   1.00
C240   C     0.07290   0.07722   0.34473   0.00000  Uiso   1.00
C241   C     0.07647   0.06776   0.41098   0.00000  Uiso   1.00
C242   C     0.16903   0.08208   0.44423   0.00000  Uiso   1.00
C243   C     0.30081   0.09806   0.52004   0.00000  Uiso   1.00
C244   C     0.13764   0.10696   0.24027   0.00000  Uiso   1.00
C245   C     0.13243   0.03511   0.25084   0.00000  Uiso   1.00
C246   C     0.20289   0.99471   0.23190   0.00000  Uiso   1.00
C247   C     0.18445   0.93047   0.24601   0.00000  Uiso   1.00
C248   C     0.01345   0.15663   0.19740   0.00000  Uiso   1.00
C249   C     0.98389   0.21843   0.13353   0.00000  Uiso   1.00
C250   C     0.86531   0.25650   0.10266   0.00000  Uiso   1.00
C251   C     0.15874   0.10018   0.31281   0.00000  Uiso   1.00
C252   C     0.25131   0.11452   0.34597   0.00000  Uiso   1.00
C253   C     0.25502   0.10508   0.41226   0.00000  Uiso   1.00
H254   H     0.91279   0.04682   0.32387   0.00000  Uiso   1.00
H255   H     0.96162   0.93021   0.32160   0.00000  Uiso   1.00
H256   H     0.74266   0.15389   0.22325   0.00000  Uiso   1.00
H257   H     0.01004   0.05000   0.43566   0.00000  Uiso   1.00
H258   H     0.05357   0.81105   0.30498   0.00000  Uiso   1.00
H259   H     0.59189   0.28271   0.09762   0.00000  Uiso   1.00
H260   H     0.15570   0.06364   0.54552   0.00000  Uiso   1.00
H261   H     0.20446   0.12483   0.21542   0.00000  Uiso   1.00
H262   H     0.26930   0.01249   0.20720   0.00000  Uiso   1.00
H263   H     0.05033   0.23618   0.10885   0.00000  Uiso   1.00
H264   H     0.31771   0.13228   0.32126   0.00000  Uiso   1.00
H265   H     0.30329   0.87784   0.21213   0.00000  Uiso   1.00
H266   H     0.84161   0.34950   0.00477   0.00000  Uiso   1.00
H267   H     0.40542   0.13042   0.45267   0.00000  Uiso   1.00
O268   O     0.21579   0.76914   0.25508   0.00000  Uiso   1.00
O269   O     0.61009   0.38795   0.98305   0.00000  Uiso   1.00
O270   O     0.34980   0.10053   0.57068   0.00000  Uiso   1.00
N271   N     0.10346   0.84218   0.28427   0.00000  Uiso   1.00
N272   N     0.67182   0.28315   0.09040   0.00000  Uiso   1.00
N273   N     0.19891   0.07835   0.50914   0.00000  Uiso   1.00
N274   N     0.23784   0.87811   0.23431   0.00000  Uiso   1.00
N275   N     0.80619   0.31909   0.04043   0.00000  Uiso   1.00
N276   N     0.33329   0.11429   0.45918   0.00000  Uiso   1.00
