data_job_01372
_audit_creation_date              2018-12-19
_audit_creation_method            'Materials Studio'
_symmetry_space_group_name_H-M    'P1'
_symmetry_Int_Tables_number       1
_symmetry_cell_setting            triclinic
loop_
_symmetry_equiv_pos_as_xyz
  x,y,z
_cell_length_a                    8.2683
_cell_length_b                    10.3087
_cell_length_c                    14.3009
_cell_angle_alpha                 104.4823
_cell_angle_beta                  91.9727
_cell_angle_gamma                 87.1348
loop_
_atom_site_label
_atom_site_type_symbol
_atom_site_fract_x
_atom_site_fract_y
_atom_site_fract_z
_atom_site_U_iso_or_equiv
_atom_site_adp_type
_atom_site_occupancy
C1     C     0.57958   0.55229   0.76373   0.00000  Uiso   1.00
C2     C     0.58419   0.66030   0.85855   0.00000  Uiso   1.00
C3     C     0.45636   0.70060   0.92113   0.00000  Uiso   1.00
C4     C     0.48492   0.80102   0.00416   0.00000  Uiso   1.00
C5     C     0.46907   0.95996   0.14838   0.00000  Uiso   1.00
C6     C     0.62881   0.61931   0.68592   0.00000  Uiso   1.00
C7     C     0.53850   0.62514   0.60334   0.00000  Uiso   1.00
C8     C     0.60464   0.69104   0.54104   0.00000  Uiso   1.00
C9     C     0.65812   0.78627   0.41719   0.00000  Uiso   1.00
C10    C     0.71628   0.45035   0.77152   0.00000  Uiso   1.00
C11    C     0.69953   0.31411   0.76089   0.00000  Uiso   1.00
C12    C     0.83932   0.23775   0.77065   0.00000  Uiso   1.00
C13    C     0.02861   0.07064   0.77972   0.00000  Uiso   1.00
C14    C     0.85762   0.65893   0.79991   0.00000  Uiso   1.00
C15    C     0.73521   0.71822   0.87820   0.00000  Uiso   1.00
C16    C     0.76397   0.81859   0.96116   0.00000  Uiso   1.00
C17    C     0.63621   0.85904   0.02386   0.00000  Uiso   1.00
C18    C     0.77982   0.67724   0.70556   0.00000  Uiso   1.00
C19    C     0.84612   0.74313   0.64337   0.00000  Uiso   1.00
C20    C     0.75593   0.74907   0.56072   0.00000  Uiso   1.00
C21    C     0.86730   0.50828   0.79118   0.00000  Uiso   1.00
C22    C     0.00714   0.43211   0.80093   0.00000  Uiso   1.00
C23    C     0.99061   0.29578   0.79033   0.00000  Uiso   1.00
H24    H     0.46201   0.50719   0.74843   0.00000  Uiso   1.00
H25    H     0.33950   0.65576   0.90589   0.00000  Uiso   1.00
H26    H     0.42165   0.58030   0.58815   0.00000  Uiso   1.00
H27    H     0.58265   0.26932   0.74569   0.00000  Uiso   1.00
H28    H     0.27026   0.84605   0.08912   0.00000  Uiso   1.00
H29    H     0.44349   0.68690   0.41912   0.00000  Uiso   1.00
H30    H     0.78299   0.03114   0.75132   0.00000  Uiso   1.00
H31    H     0.97520   0.70403   0.81521   0.00000  Uiso   1.00
H32    H     0.88085   0.86340   0.97635   0.00000  Uiso   1.00
H33    H     0.96299   0.78794   0.65860   0.00000  Uiso   1.00
H34    H     0.12399   0.47697   0.81614   0.00000  Uiso   1.00
H35    H     0.70963   0.01459   0.14631   0.00000  Uiso   1.00
H36    H     0.88286   0.85543   0.47629   0.00000  Uiso   1.00
H37    H     0.22236   0.19967   0.80850   0.00000  Uiso   1.00
O38    O     0.41861   0.03164   0.22249   0.00000  Uiso   1.00
O39    O     0.64589   0.82281   0.34346   0.00000  Uiso   1.00
O40    O     0.09130   0.96247   0.77931   0.00000  Uiso   1.00
N41    N     0.38663   0.86383   0.08048   0.00000  Uiso   1.00
N42    N     0.54857   0.71505   0.45407   0.00000  Uiso   1.00
N43    N     0.86598   0.10196   0.76462   0.00000  Uiso   1.00
N44    N     0.62305   0.95451   0.11125   0.00000  Uiso   1.00
N45    N     0.78500   0.80573   0.48484   0.00000  Uiso   1.00
N46    N     0.10241   0.19264   0.79539   0.00000  Uiso   1.00
C47    C     0.42042   0.44771   0.23627   0.00000  Uiso   1.00
C48    C     0.41581   0.33970   0.14145   0.00000  Uiso   1.00
C49    C     0.54364   0.29940   0.07887   0.00000  Uiso   1.00
C50    C     0.51508   0.19898   0.99584   0.00000  Uiso   1.00
C51    C     0.53093   0.04004   0.85162   0.00000  Uiso   1.00
C52    C     0.37119   0.38069   0.31408   0.00000  Uiso   1.00
C53    C     0.46150   0.37486   0.39666   0.00000  Uiso   1.00
C54    C     0.39536   0.30896   0.45896   0.00000  Uiso   1.00
C55    C     0.34188   0.21373   0.58281   0.00000  Uiso   1.00
C56    C     0.28372   0.54965   0.22848   0.00000  Uiso   1.00
C57    C     0.30047   0.68589   0.23911   0.00000  Uiso   1.00
C58    C     0.16068   0.76225   0.22935   0.00000  Uiso   1.00
C59    C     0.97139   0.92936   0.22028   0.00000  Uiso   1.00
C60    C     0.14238   0.34107   0.20009   0.00000  Uiso   1.00
C61    C     0.26479   0.28178   0.12180   0.00000  Uiso   1.00
C62    C     0.23603   0.18141   0.03884   0.00000  Uiso   1.00
C63    C     0.36379   0.14096   0.97614   0.00000  Uiso   1.00
C64    C     0.22018   0.32276   0.29444   0.00000  Uiso   1.00
C65    C     0.15388   0.25687   0.35663   0.00000  Uiso   1.00
C66    C     0.24407   0.25093   0.43928   0.00000  Uiso   1.00
C67    C     0.13270   0.49172   0.20882   0.00000  Uiso   1.00
C68    C     0.99286   0.56789   0.19907   0.00000  Uiso   1.00
C69    C     0.00939   0.70422   0.20967   0.00000  Uiso   1.00
H70    H     0.53799   0.49281   0.25157   0.00000  Uiso   1.00
H71    H     0.66050   0.34424   0.09411   0.00000  Uiso   1.00
H72    H     0.57835   0.41970   0.41185   0.00000  Uiso   1.00
H73    H     0.41735   0.73068   0.25431   0.00000  Uiso   1.00
H74    H     0.72974   0.15395   0.91088   0.00000  Uiso   1.00
H75    H     0.55651   0.31310   0.58088   0.00000  Uiso   1.00
H76    H     0.21701   0.96886   0.24868   0.00000  Uiso   1.00
H77    H     0.02480   0.29597   0.18479   0.00000  Uiso   1.00
H78    H     0.11915   0.13660   0.02365   0.00000  Uiso   1.00
H79    H     0.03701   0.21206   0.34140   0.00000  Uiso   1.00
H80    H     0.87601   0.52303   0.18386   0.00000  Uiso   1.00
H81    H     0.29037   0.98541   0.85369   0.00000  Uiso   1.00
H82    H     0.11714   0.14457   0.52371   0.00000  Uiso   1.00
H83    H     0.77764   0.80033   0.19150   0.00000  Uiso   1.00
O84    O     0.58139   0.96836   0.77751   0.00000  Uiso   1.00
O85    O     0.35411   0.17719   0.65654   0.00000  Uiso   1.00
O86    O     0.90870   0.03753   0.22069   0.00000  Uiso   1.00
N87    N     0.61337   0.13617   0.91952   0.00000  Uiso   1.00
N88    N     0.45143   0.28495   0.54593   0.00000  Uiso   1.00
N89    N     0.13402   0.89804   0.23538   0.00000  Uiso   1.00
N90    N     0.37695   0.04549   0.88875   0.00000  Uiso   1.00
N91    N     0.21500   0.19427   0.51516   0.00000  Uiso   1.00
N92    N     0.89759   0.80736   0.20461   0.00000  Uiso   1.00
