data_job_07068
_audit_creation_date              2018-12-19
_audit_creation_method            'Materials Studio'
_symmetry_space_group_name_H-M    'P1'
_symmetry_Int_Tables_number       1
_symmetry_cell_setting            triclinic
loop_
_symmetry_equiv_pos_as_xyz
  x,y,z
_cell_length_a                    22.5717
_cell_length_b                    23.2341
_cell_length_c                    20.2719
_cell_angle_alpha                 86.8825
_cell_angle_beta                  104.5080
_cell_angle_gamma                 118.6050
loop_
_atom_site_label
_atom_site_type_symbol
_atom_site_fract_x
_atom_site_fract_y
_atom_site_fract_z
_atom_site_U_iso_or_equiv
_atom_site_adp_type
_atom_site_occupancy
C1     C     0.32955   0.73910   0.96211   0.00000  Uiso   1.00
C2     C     0.29679   0.67754   0.91389   0.00000  Uiso   1.00
C3     C     0.25547   0.61372   0.92870   0.00000  Uiso   1.00
C4     C     0.23048   0.56415   0.87773   0.00000  Uiso   1.00
C5     C     0.17722   0.46646   0.81252   0.00000  Uiso   1.00
C6     C     0.40777   0.77235   0.96807   0.00000  Uiso   1.00
C7     C     0.45977   0.78827   0.02845   0.00000  Uiso   1.00
C8     C     0.52820   0.81853   0.02309   0.00000  Uiso   1.00
C9     C     0.64725   0.86808   0.04201   0.00000  Uiso   1.00
C10    C     0.30404   0.78484   0.92429   0.00000  Uiso   1.00
C11    C     0.26883   0.81127   0.94785   0.00000  Uiso   1.00
C12    C     0.24994   0.85205   0.90563   0.00000  Uiso   1.00
C13    C     0.20794   0.92099   0.85656   0.00000  Uiso   1.00
C14    C     0.35862   0.76454   0.84524   0.00000  Uiso   1.00
C15    C     0.31258   0.69135   0.85041   0.00000  Uiso   1.00
C16    C     0.28763   0.64187   0.79940   0.00000  Uiso   1.00
C17    C     0.24629   0.57799   0.81414   0.00000  Uiso   1.00
C18    C     0.42356   0.78617   0.90460   0.00000  Uiso   1.00
C19    C     0.49193   0.81642   0.89915   0.00000  Uiso   1.00
C20    C     0.54402   0.83237   0.95950   0.00000  Uiso   1.00
C21    C     0.31983   0.79866   0.86081   0.00000  Uiso   1.00
C22    C     0.30099   0.83941   0.81855   0.00000  Uiso   1.00
C23    C     0.26576   0.86589   0.84204   0.00000  Uiso   1.00
H24    H     0.31727   0.72834   0.01153   0.00000  Uiso   1.00
H25    H     0.24327   0.60305   0.97783   0.00000  Uiso   1.00
H26    H     0.44753   0.77758   0.07756   0.00000  Uiso   1.00
H27    H     0.25663   0.80057   0.99697   0.00000  Uiso   1.00
H28    H     0.16822   0.47023   0.91249   0.00000  Uiso   1.00
H29    H     0.59892   0.83825   0.12278   0.00000  Uiso   1.00
H30    H     0.19635   0.88673   0.95284   0.00000  Uiso   1.00
H31    H     0.37092   0.77530   0.79582   0.00000  Uiso   1.00
H32    H     0.29986   0.65257   0.75028   0.00000  Uiso   1.00
H33    H     0.50413   0.82710   0.85002   0.00000  Uiso   1.00
H34    H     0.31322   0.85009   0.76943   0.00000  Uiso   1.00
H35    H     0.21415   0.51043   0.72780   0.00000  Uiso   1.00
H36    H     0.64485   0.87845   0.93810   0.00000  Uiso   1.00
H37    H     0.24229   0.92693   0.76816   0.00000  Uiso   1.00
O38    O     0.14349   0.40875   0.79409   0.00000  Uiso   1.00
O39    O     0.70855   0.89159   0.06998   0.00000  Uiso   1.00
O40    O     0.18040   0.95519   0.84703   0.00000  Uiso   1.00
N41    N     0.18877   0.49653   0.87526   0.00000  Uiso   1.00
N42    N     0.59145   0.84060   0.07187   0.00000  Uiso   1.00
N43    N     0.21510   0.88594   0.91301   0.00000  Uiso   1.00
N44    N     0.21348   0.51816   0.77589   0.00000  Uiso   1.00
N45    N     0.61616   0.86223   0.97250   0.00000  Uiso   1.00
N46    N     0.23981   0.90757   0.81363   0.00000  Uiso   1.00
C47    C     0.73091   0.31799   0.86107   0.00000  Uiso   1.00
C48    C     0.69154   0.32780   0.79227   0.00000  Uiso   1.00
C49    C     0.66078   0.28463   0.73420   0.00000  Uiso   1.00
C50    C     0.62721   0.30254   0.67632   0.00000  Uiso   1.00
C51    C     0.56651   0.30882   0.56944   0.00000  Uiso   1.00
C52    C     0.80314   0.37836   0.87789   0.00000  Uiso   1.00
C53    C     0.86621   0.37769   0.89181   0.00000  Uiso   1.00
C54    C     0.92659   0.43816   0.90601   0.00000  Uiso   1.00
C55    C     0.03915   0.52292   0.93210   0.00000  Uiso   1.00
C56    C     0.69468   0.32221   0.91337   0.00000  Uiso   1.00
C57    C     0.66657   0.27434   0.95715   0.00000  Uiso   1.00
C58    C     0.63564   0.28755   0.00124   0.00000  Uiso   1.00
C59    C     0.57980   0.28514   0.08242   0.00000  Uiso   1.00
C60    C     0.72597   0.42656   0.86153   0.00000  Uiso   1.00
C61    C     0.68886   0.38677   0.79252   0.00000  Uiso   1.00
C62    C     0.65532   0.40475   0.73471   0.00000  Uiso   1.00
C63    C     0.62452   0.36161   0.67657   0.00000  Uiso   1.00
C64    C     0.80046   0.43733   0.87814   0.00000  Uiso   1.00
C65    C     0.86075   0.49781   0.89232   0.00000  Uiso   1.00
C66    C     0.92390   0.49723   0.90626   0.00000  Uiso   1.00
C67    C     0.69199   0.38118   0.91362   0.00000  Uiso   1.00
C68    C     0.66110   0.39446   0.95765   0.00000  Uiso   1.00
C69    C     0.63295   0.34663   0.00149   0.00000  Uiso   1.00
H70    H     0.73300   0.27208   0.86088   0.00000  Uiso   1.00
H71    H     0.66288   0.23900   0.73403   0.00000  Uiso   1.00
H72    H     0.86827   0.33205   0.89162   0.00000  Uiso   1.00
H73    H     0.66865   0.22872   0.95694   0.00000  Uiso   1.00
H74    H     0.58397   0.22835   0.59349   0.00000  Uiso   1.00
H75    H     0.01706   0.42453   0.92581   0.00000  Uiso   1.00
H76    H     0.59613   0.20664   0.06356   0.00000  Uiso   1.00
H77    H     0.72389   0.47247   0.86173   0.00000  Uiso   1.00
H78    H     0.65326   0.45039   0.73492   0.00000  Uiso   1.00
H79    H     0.85866   0.54343   0.89252   0.00000  Uiso   1.00
H80    H     0.65904   0.44010   0.95784   0.00000  Uiso   1.00
H81    H     0.57616   0.39992   0.59421   0.00000  Uiso   1.00
H82    H     0.00926   0.59610   0.92654   0.00000  Uiso   1.00
H83    H     0.58832   0.37821   0.06428   0.00000  Uiso   1.00
O84    O     0.53379   0.29600   0.51041   0.00000  Uiso   1.00
O85    O     0.10198   0.55339   0.94642   0.00000  Uiso   1.00
O86    O     0.54973   0.26752   0.12713   0.00000  Uiso   1.00
N87    N     0.59181   0.27175   0.61107   0.00000  Uiso   1.00
N88    N     0.99673   0.45517   0.92176   0.00000  Uiso   1.00
N89    N     0.60321   0.25147   0.05055   0.00000  Uiso   1.00
N90    N     0.58761   0.36407   0.61146   0.00000  Uiso   1.00
N91    N     0.99253   0.54749   0.92215   0.00000  Uiso   1.00
N92    N     0.59901   0.34379   0.05094   0.00000  Uiso   1.00
C93    C     0.70627   0.72284   0.48062   0.00000  Uiso   1.00
C94    C     0.62930   0.68413   0.48025   0.00000  Uiso   1.00
C95    C     0.57780   0.69981   0.44692   0.00000  Uiso   1.00
C96    C     0.51052   0.65819   0.45282   0.00000  Uiso   1.00
C97    C     0.39332   0.60651   0.44652   0.00000  Uiso   1.00
C98    C     0.74669   0.74039   0.55560   0.00000  Uiso   1.00
C99    C     0.79390   0.80338   0.58561   0.00000  Uiso   1.00
C100   C     0.82545   0.80911   0.65493   0.00000  Uiso   1.00
C101   C     0.89054   0.84478   0.76559   0.00000  Uiso   1.00
C102   C     0.72370   0.67423   0.45380   0.00000  Uiso   1.00
C103   C     0.75159   0.68159   0.39823   0.00000  Uiso   1.00
C104   C     0.76380   0.63163   0.38186   0.00000  Uiso   1.00
C105   C     0.79319   0.56457   0.33447   0.00000  Uiso   1.00
C106   C     0.67837   0.62102   0.55036   0.00000  Uiso   1.00
C107   C     0.61414   0.62883   0.51814   0.00000  Uiso   1.00
C108   C     0.54693   0.58716   0.52409   0.00000  Uiso   1.00
C109   C     0.49534   0.60279   0.49077   0.00000  Uiso   1.00
C110   C     0.73154   0.68509   0.59348   0.00000  Uiso   1.00
C111   C     0.76303   0.69073   0.66277   0.00000  Uiso   1.00
C112   C     0.81027   0.75371   0.69288   0.00000  Uiso   1.00
C113   C     0.70854   0.61892   0.49169   0.00000  Uiso   1.00
C114   C     0.72072   0.56894   0.47540   0.00000  Uiso   1.00
C115   C     0.74862   0.57623   0.41981   0.00000  Uiso   1.00
H116   H     0.71807   0.76589   0.45113   0.00000  Uiso   1.00
H117   H     0.58955   0.74262   0.41761   0.00000  Uiso   1.00
H118   H     0.80562   0.84616   0.55628   0.00000  Uiso   1.00
H119   H     0.76331   0.72440   0.36893   0.00000  Uiso   1.00
H120   H     0.44038   0.69244   0.39718   0.00000  Uiso   1.00
H121   H     0.89600   0.91077   0.68956   0.00000  Uiso   1.00
H122   H     0.80679   0.65400   0.29450   0.00000  Uiso   1.00
H123   H     0.66657   0.57796   0.57986   0.00000  Uiso   1.00
H124   H     0.53522   0.54437   0.55341   0.00000  Uiso   1.00
H125   H     0.75129   0.64792   0.69207   0.00000  Uiso   1.00
H126   H     0.70898   0.52615   0.50473   0.00000  Uiso   1.00
H127   H     0.39629   0.53154   0.50740   0.00000  Uiso   1.00
H128   H     0.85191   0.74987   0.79978   0.00000  Uiso   1.00
H129   H     0.76270   0.49309   0.40472   0.00000  Uiso   1.00
O130   O     0.33286   0.59329   0.43259   0.00000  Uiso   1.00
O131   O     0.93062   0.87973   0.81617   0.00000  Uiso   1.00
O132   O     0.81358   0.54285   0.29786   0.00000  Uiso   1.00
N133   N     0.44803   0.65917   0.42674   0.00000  Uiso   1.00
N134   N     0.87399   0.86330   0.70010   0.00000  Uiso   1.00
N135   N     0.79061   0.62325   0.33077   0.00000  Uiso   1.00
N136   N     0.42430   0.57259   0.48605   0.00000  Uiso   1.00
N137   N     0.85027   0.77672   0.75940   0.00000  Uiso   1.00
N138   N     0.76688   0.53667   0.39007   0.00000  Uiso   1.00
C139   C     0.81408   0.12799   0.36813   0.00000  Uiso   1.00
C140   C     0.84004   0.12270   0.30732   0.00000  Uiso   1.00
C141   C     0.79882   0.08396   0.24683   0.00000  Uiso   1.00
C142   C     0.83250   0.08596   0.19739   0.00000  Uiso   1.00
C143   C     0.86181   0.07180   0.10132   0.00000  Uiso   1.00
C144   C     0.83807   0.20083   0.38104   0.00000  Uiso   1.00
C145   C     0.79520   0.22777   0.38255   0.00000  Uiso   1.00
C146   C     0.82722   0.29552   0.39517   0.00000  Uiso   1.00
C147   C     0.85349   0.40264   0.41360   0.00000  Uiso   1.00
C148   C     0.85533   0.11006   0.42957   0.00000  Uiso   1.00
C149   C     0.82697   0.06070   0.47188   0.00000  Uiso   1.00
C150   C     0.87352   0.05206   0.52537   0.00000  Uiso   1.00
C151   C     0.92658   0.01826   0.61915   0.00000  Uiso   1.00
C152   C     0.94718   0.20041   0.38789   0.00000  Uiso   1.00
C153   C     0.91234   0.16204   0.31806   0.00000  Uiso   1.00
C154   C     0.94609   0.16409   0.26869   0.00000  Uiso   1.00
C155   C     0.90493   0.12536   0.20814   0.00000  Uiso   1.00
C156   C     0.91037   0.24016   0.39177   0.00000  Uiso   1.00
C157   C     0.94246   0.30789   0.40440   0.00000  Uiso   1.00
C158   C     0.89965   0.33493   0.40592   0.00000  Uiso   1.00
C159   C     0.92763   0.14940   0.44030   0.00000  Uiso   1.00
C160   C     0.97423   0.14083   0.49374   0.00000  Uiso   1.00
C161   C     0.94595   0.09147   0.53612   0.00000  Uiso   1.00
H162   H     0.75779   0.09736   0.35978   0.00000  Uiso   1.00
H163   H     0.74287   0.05353   0.23855   0.00000  Uiso   1.00
H164   H     0.73926   0.19731   0.37425   0.00000  Uiso   1.00
H165   H     0.77102   0.03027   0.46356   0.00000  Uiso   1.00
H166   H     0.75822   0.02231   0.10886   0.00000  Uiso   1.00
H167   H     0.75059   0.32547   0.39501   0.00000  Uiso   1.00
H168   H     0.81756   0.97324   0.58336   0.00000  Uiso   1.00
H169   H     0.00347   0.23104   0.39624   0.00000  Uiso   1.00
H170   H     0.00203   0.19454   0.27701   0.00000  Uiso   1.00
H171   H     0.99841   0.33832   0.41271   0.00000  Uiso   1.00
H172   H     0.03017   0.17128   0.50203   0.00000  Uiso   1.00
H173   H     0.96856   0.13675   0.14008   0.00000  Uiso   1.00
H174   H     0.96093   0.43992   0.42623   0.00000  Uiso   1.00
H175   H     0.02791   0.08768   0.61458   0.00000  Uiso   1.00
O176   O     0.85801   0.05313   0.04537   0.00000  Uiso   1.00
O177   O     0.84800   0.45086   0.42080   0.00000  Uiso   1.00
O178   O     0.93587   0.98874   0.66790   0.00000  Uiso   1.00
N179   N     0.80792   0.05424   0.13258   0.00000  Uiso   1.00
N180   N     0.80078   0.33768   0.40010   0.00000  Uiso   1.00
N181   N     0.86340   0.00838   0.57620   0.00000  Uiso   1.00
N182   N     0.92110   0.11582   0.14937   0.00000  Uiso   1.00
N183   N     0.91397   0.39926   0.41690   0.00000  Uiso   1.00
N184   N     0.97659   0.06997   0.59300   0.00000  Uiso   1.00
C185   C     0.21542   0.17652   0.99919   0.00000  Uiso   1.00
C186   C     0.16490   0.10372   0.00050   0.00000  Uiso   1.00
C187   C     0.15295   0.05328   0.95669   0.00000  Uiso   1.00
C188   C     0.10470   0.98997   0.96622   0.00000  Uiso   1.00
C189   C     0.03160   0.87881   0.96045   0.00000  Uiso   1.00
C190   C     0.26502   0.19846   0.07049   0.00000  Uiso   1.00
C191   C     0.33726   0.22768   0.08552   0.00000  Uiso   1.00
C192   C     0.37330   0.24413   0.15397   0.00000  Uiso   1.00
C193   C     0.45565   0.28010   0.25685   0.00000  Uiso   1.00
C194   C     0.17219   0.21180   0.99157   0.00000  Uiso   1.00
C195   C     0.16638   0.25226   0.94025   0.00000  Uiso   1.00
C196   C     0.12426   0.27996   0.94227   0.00000  Uiso   1.00
C197   C     0.06247   0.33664   0.92262   0.00000  Uiso   1.00
C198   C     0.15097   0.15380   0.09403   0.00000  Uiso   1.00
C199   C     0.12989   0.09138   0.05202   0.00000  Uiso   1.00
C200   C     0.08164   0.02813   0.06162   0.00000  Uiso   1.00
C201   C     0.06962   0.97760   0.01783   0.00000  Uiso   1.00
C202   C     0.23002   0.18612   0.12201   0.00000  Uiso   1.00
C203   C     0.26595   0.20254   0.19045   0.00000  Uiso   1.00
C204   C     0.33823   0.23177   0.20558   0.00000  Uiso   1.00
C205   C     0.13718   0.19946   0.04309   0.00000  Uiso   1.00
C206   C     0.09507   0.22711   0.04519   0.00000  Uiso   1.00
C207   C     0.08919   0.26759   0.99388   0.00000  Uiso   1.00
H208   H     0.24268   0.18613   0.95908   0.00000  Uiso   1.00
H209   H     0.18006   0.06285   0.91683   0.00000  Uiso   1.00
H210   H     0.36434   0.23723   0.04564   0.00000  Uiso   1.00
H211   H     0.19348   0.26180   0.90040   0.00000  Uiso   1.00
H212   H     0.09521   0.92072   0.89272   0.00000  Uiso   1.00
H213   H     0.48378   0.28843   0.16432   0.00000  Uiso   1.00
H214   H     0.12349   0.34024   0.85805   0.00000  Uiso   1.00
H215   H     0.12371   0.14419   0.13414   0.00000  Uiso   1.00
H216   H     0.05456   0.01860   0.10149   0.00000  Uiso   1.00
H217   H     0.23884   0.19298   0.23030   0.00000  Uiso   1.00
H218   H     0.06798   0.21755   0.08506   0.00000  Uiso   1.00
H219   H     0.99335   0.88481   0.04260   0.00000  Uiso   1.00
H220   H     0.38193   0.25252   0.31420   0.00000  Uiso   1.00
H221   H     0.02163   0.30433   0.00793   0.00000  Uiso   1.00
O222   O     0.00095   0.82090   0.94304   0.00000  Uiso   1.00
O223   O     0.51074   0.30334   0.29936   0.00000  Uiso   1.00
O224   O     0.03804   0.37131   0.89755   0.00000  Uiso   1.00
N225   N     0.08072   0.92950   0.93247   0.00000  Uiso   1.00
N226   N     0.44401   0.27328   0.18640   0.00000  Uiso   1.00
N227   N     0.10718   0.32174   0.90007   0.00000  Uiso   1.00
N228   N     0.02591   0.91018   0.01312   0.00000  Uiso   1.00
N229   N     0.38920   0.25396   0.26705   0.00000  Uiso   1.00
N230   N     0.05237   0.30241   0.98072   0.00000  Uiso   1.00
C231   C     0.08052   0.75186   0.29933   0.00000  Uiso   1.00
C232   C     0.01974   0.70807   0.24022   0.00000  Uiso   1.00
C233   C     0.95799   0.65412   0.24632   0.00000  Uiso   1.00
C234   C     0.90882   0.62047   0.18609   0.00000  Uiso   1.00
C235   C     0.81258   0.54951   0.10404   0.00000  Uiso   1.00
C236   C     0.09266   0.82169   0.28801   0.00000  Uiso   1.00
C237   C     0.09223   0.86327   0.33430   0.00000  Uiso   1.00
C238   C     0.10445   0.92528   0.31430   0.00000  Uiso   1.00
C239   C     0.12147   0.03073   0.30647   0.00000  Uiso   1.00
C240   C     0.14455   0.75062   0.28904   0.00000  Uiso   1.00
C241   C     0.18776   0.73246   0.33619   0.00000  Uiso   1.00
C242   C     0.24368   0.73464   0.31707   0.00000  Uiso   1.00
C243   C     0.34127   0.72974   0.31082   0.00000  Uiso   1.00
C244   C     0.10300   0.78804   0.18153   0.00000  Uiso   1.00
C245   C     0.03196   0.72773   0.17623   0.00000  Uiso   1.00
C246   C     0.98287   0.69415   0.11598   0.00000  Uiso   1.00
C247   C     0.92105   0.64016   0.12199   0.00000  Uiso   1.00
C248   C     0.10488   0.84135   0.22403   0.00000  Uiso   1.00
C249   C     0.11711   0.90331   0.20396   0.00000  Uiso   1.00
C250   C     0.11668   0.94497   0.25020   0.00000  Uiso   1.00
C251   C     0.15677   0.77027   0.22505   0.00000  Uiso   1.00
C252   C     0.21264   0.77249   0.20585   0.00000  Uiso   1.00
C253   C     0.25592   0.75433   0.25297   0.00000  Uiso   1.00
H254   H     0.07101   0.73656   0.34915   0.00000  Uiso   1.00
H255   H     0.94855   0.63892   0.29584   0.00000  Uiso   1.00
H256   H     0.08278   0.84805   0.38381   0.00000  Uiso   1.00
H257   H     0.17829   0.71725   0.38570   0.00000  Uiso   1.00
H258   H     0.81817   0.53936   0.20853   0.00000  Uiso   1.00
H259   H     0.10121   0.98032   0.39402   0.00000  Uiso   1.00
H260   H     0.30262   0.70451   0.39801   0.00000  Uiso   1.00
H261   H     0.11251   0.80335   0.13171   0.00000  Uiso   1.00
H262   H     0.99234   0.70937   0.06647   0.00000  Uiso   1.00
H263   H     0.12656   0.91850   0.15445   0.00000  Uiso   1.00
H264   H     0.22207   0.78770   0.15633   0.00000  Uiso   1.00
H265   H     0.85370   0.59654   0.02236   0.00000  Uiso   1.00
H266   H     0.13675   0.03750   0.20786   0.00000  Uiso   1.00
H267   H     0.33816   0.76169   0.21185   0.00000  Uiso   1.00
O268   O     0.75612   0.50494   0.07645   0.00000  Uiso   1.00
O269   O     0.12747   0.08346   0.31983   0.00000  Uiso   1.00
O270   O     0.39172   0.72160   0.32505   0.00000  Uiso   1.00
N271   N     0.84303   0.56570   0.17367   0.00000  Uiso   1.00
N272   N     0.10765   0.97797   0.34709   0.00000  Uiso   1.00
N273   N     0.29596   0.72013   0.35082   0.00000  Uiso   1.00
N274   N     0.86215   0.59647   0.07349   0.00000  Uiso   1.00
N275   N     0.12677   0.00874   0.24692   0.00000  Uiso   1.00
N276   N     0.31508   0.75090   0.25065   0.00000  Uiso   1.00
C277   C     0.55232   0.07032   0.24859   0.00000  Uiso   1.00
C278   C     0.56600   0.12861   0.29280   0.00000  Uiso   1.00
C279   C     0.60978   0.19430   0.28603   0.00000  Uiso   1.00
C280   C     0.61524   0.24024   0.33148   0.00000  Uiso   1.00
C281   C     0.64209   0.33366   0.39244   0.00000  Uiso   1.00
C282   C     0.47349   0.03236   0.21880   0.00000  Uiso   1.00
C283   C     0.43949   0.01713   0.14981   0.00000  Uiso   1.00
C284   C     0.36707   0.98205   0.13296   0.00000  Uiso   1.00
C285   C     0.25029   0.92600   0.07904   0.00000  Uiso   1.00
C286   C     0.57076   0.02585   0.29773   0.00000  Uiso   1.00
C287   C     0.61852   0.00512   0.29509   0.00000  Uiso   1.00
C288   C     0.62799   0.96454   0.34469   0.00000  Uiso   1.00
C289   C     0.66223   0.89838   0.41332   0.00000  Uiso   1.00
C290   C     0.48417   0.03509   0.34134   0.00000  Uiso   1.00
C291   C     0.52899   0.10947   0.34318   0.00000  Uiso   1.00
C292   C     0.53438   0.15533   0.38865   0.00000  Uiso   1.00
C293   C     0.57816   0.22108   0.38195   0.00000  Uiso   1.00
C294   C     0.43647   0.01323   0.26917   0.00000  Uiso   1.00
C295   C     0.36409   0.97816   0.25243   0.00000  Uiso   1.00
C296   C     0.32998   0.96288   0.18343   0.00000  Uiso   1.00
C297   C     0.53374   0.00671   0.34811   0.00000  Uiso   1.00
C298   C     0.54313   0.96615   0.39772   0.00000  Uiso   1.00
C299   C     0.59090   0.94537   0.39516   0.00000  Uiso   1.00
H300   H     0.58113   0.08522   0.20936   0.00000  Uiso   1.00
H301   H     0.63841   0.20909   0.24703   0.00000  Uiso   1.00
H302   H     0.46814   0.03194   0.11083   0.00000  Uiso   1.00
H303   H     0.64716   0.01994   0.25610   0.00000  Uiso   1.00
H304   H     0.68557   0.33799   0.31100   0.00000  Uiso   1.00
H305   H     0.32656   0.96444   0.02381   0.00000  Uiso   1.00
H306   H     0.70404   0.93913   0.33014   0.00000  Uiso   1.00
H307   H     0.45535   0.02019   0.38056   0.00000  Uiso   1.00
H308   H     0.50573   0.14050   0.42763   0.00000  Uiso   1.00
H309   H     0.33546   0.96335   0.29143   0.00000  Uiso   1.00
H310   H     0.51448   0.95135   0.43670   0.00000  Uiso   1.00
H311   H     0.57788   0.28232   0.45758   0.00000  Uiso   1.00
H312   H     0.21886   0.90877   0.17039   0.00000  Uiso   1.00
H313   H     0.59635   0.88346   0.47671   0.00000  Uiso   1.00
O314   O     0.66712   0.39048   0.41215   0.00000  Uiso   1.00
O315   O     0.19611   0.90038   0.03537   0.00000  Uiso   1.00
O316   O     0.69136   0.86718   0.43726   0.00000  Uiso   1.00
N317   N     0.65333   0.30838   0.33905   0.00000  Uiso   1.00
N318   N     0.31767   0.95914   0.07054   0.00000  Uiso   1.00
N319   N     0.67057   0.93546   0.35692   0.00000  Uiso   1.00
N320   N     0.59538   0.27842   0.41792   0.00000  Uiso   1.00
N321   N     0.25972   0.92919   0.14942   0.00000  Uiso   1.00
N322   N     0.61262   0.90551   0.43579   0.00000  Uiso   1.00
C323   C     0.00163   0.50584   0.28030   0.00000  Uiso   1.00
C324   C     0.04585   0.50401   0.35008   0.00000  Uiso   1.00
C325   C     0.05636   0.53718   0.41036   0.00000  Uiso   1.00
C326   C     0.09857   0.52912   0.46880   0.00000  Uiso   1.00
C327   C     0.16255   0.53231   0.57743   0.00000  Uiso   1.00
C328   C     0.94783   0.43450   0.25607   0.00000  Uiso   1.00
C329   C     0.87593   0.40924   0.23731   0.00000  Uiso   1.00
C330   C     0.83563   0.34267   0.21661   0.00000  Uiso   1.00
C331   C     0.74744   0.23796   0.17925   0.00000  Uiso   1.00
C332   C     0.04979   0.52877   0.23242   0.00000  Uiso   1.00
C333   C     0.06359   0.58275   0.19375   0.00000  Uiso   1.00
C334   C     0.10912   0.59554   0.15312   0.00000  Uiso   1.00
C335   C     0.17923   0.63720   0.07903   0.00000  Uiso   1.00
C336   C     0.05792   0.43254   0.27689   0.00000  Uiso   1.00
C337   C     0.07642   0.46420   0.34822   0.00000  Uiso   1.00
C338   C     0.11864   0.45609   0.40659   0.00000  Uiso   1.00
C339   C     0.12920   0.48924   0.46695   0.00000  Uiso   1.00
C340   C     0.97840   0.39469   0.25422   0.00000  Uiso   1.00
C341   C     0.93821   0.32815   0.23354   0.00000  Uiso   1.00
C342   C     0.86626   0.30279   0.21475   0.00000  Uiso   1.00
C343   C     0.08036   0.48896   0.23056   0.00000  Uiso   1.00
C344   C     0.12587   0.50166   0.18998   0.00000  Uiso   1.00
C345   C     0.13975   0.55566   0.15126   0.00000  Uiso   1.00
H346   H     0.97783   0.53683   0.28174   0.00000  Uiso   1.00
H347   H     0.03268   0.56798   0.41177   0.00000  Uiso   1.00
H348   H     0.85228   0.44006   0.23874   0.00000  Uiso   1.00
H349   H     0.03992   0.61355   0.19519   0.00000  Uiso   1.00
H350   H     0.10696   0.58494   0.55513   0.00000  Uiso   1.00
H351   H     0.72658   0.31522   0.19026   0.00000  Uiso   1.00
H352   H     0.12225   0.68106   0.09843   0.00000  Uiso   1.00
H353   H     0.08173   0.40155   0.27545   0.00000  Uiso   1.00
H354   H     0.14229   0.42528   0.40514   0.00000  Uiso   1.00
H355   H     0.96188   0.29735   0.23211   0.00000  Uiso   1.00
H356   H     0.14952   0.47085   0.18856   0.00000  Uiso   1.00
H357   H     0.19592   0.46912   0.54974   0.00000  Uiso   1.00
H358   H     0.81554   0.19939   0.18487   0.00000  Uiso   1.00
H359   H     0.21121   0.56523   0.09305   0.00000  Uiso   1.00
O360   O     0.18938   0.54506   0.63787   0.00000  Uiso   1.00
O361   O     0.69034   0.19120   0.15916   0.00000  Uiso   1.00
O362   O     0.20946   0.67117   0.03869   0.00000  Uiso   1.00
N363   N     0.11960   0.55444   0.53606   0.00000  Uiso   1.00
N364   N     0.76396   0.30226   0.19494   0.00000  Uiso   1.00
N365   N     0.13387   0.64428   0.10907   0.00000  Uiso   1.00
N366   N     0.16747   0.49211   0.53316   0.00000  Uiso   1.00
N367   N     0.81183   0.23993   0.19204   0.00000  Uiso   1.00
N368   N     0.18174   0.58195   0.10618   0.00000  Uiso   1.00
C369   C     0.16971   0.16843   0.76280   0.00000  Uiso   1.00
C370   C     0.24186   0.22880   0.77637   0.00000  Uiso   1.00
C371   C     0.29676   0.24237   0.83359   0.00000  Uiso   1.00
C372   C     0.35859   0.30016   0.83642   0.00000  Uiso   1.00
C373   C     0.46962   0.38739   0.86547   0.00000  Uiso   1.00
C374   C     0.15786   0.13579   0.69401   0.00000  Uiso   1.00
C375   C     0.14212   0.07116   0.68198   0.00000  Uiso   1.00
C376   C     0.13322   0.05066   0.61547   0.00000  Uiso   1.00
C377   C     0.11379   0.99348   0.51663   0.00000  Uiso   1.00
C378   C     0.11776   0.19449   0.75174   0.00000  Uiso   1.00
C379   C     0.06829   0.17920   0.78824   0.00000  Uiso   1.00
C380   C     0.02562   0.20810   0.77033   0.00000  Uiso   1.00
C381   C     0.94393   0.24206   0.76113   0.00000  Uiso   1.00
C382   C     0.18189   0.24693   0.66608   0.00000  Uiso   1.00
C383   C     0.24847   0.27143   0.72383   0.00000  Uiso   1.00
C384   C     0.31023   0.32922   0.72658   0.00000  Uiso   1.00
C385   C     0.36521   0.34287   0.78379   0.00000  Uiso   1.00
C386   C     0.16447   0.17843   0.64147   0.00000  Uiso   1.00
C387   C     0.15559   0.15801   0.57496   0.00000  Uiso   1.00
C388   C     0.13985   0.09337   0.56283   0.00000  Uiso   1.00
C389   C     0.12437   0.23713   0.69920   0.00000  Uiso   1.00
C390   C     0.08177   0.26605   0.68123   0.00000  Uiso   1.00
C391   C     0.03224   0.25081   0.71769   0.00000  Uiso   1.00
H392   H     0.16456   0.13523   0.80370   0.00000  Uiso   1.00
H393   H     0.29162   0.20936   0.87424   0.00000  Uiso   1.00
H394   H     0.13700   0.03818   0.72264   0.00000  Uiso   1.00
H395   H     0.06319   0.14620   0.82889   0.00000  Uiso   1.00
H396   H     0.43542   0.31033   0.92926   0.00000  Uiso   1.00
H397   H     0.10936   0.94938   0.60961   0.00000  Uiso   1.00
H398   H     0.95371   0.17717   0.83366   0.00000  Uiso   1.00
H399   H     0.18703   0.28012   0.62517   0.00000  Uiso   1.00
H400   H     0.31534   0.36220   0.68591   0.00000  Uiso   1.00
H401   H     0.16071   0.19102   0.53432   0.00000  Uiso   1.00
H402   H     0.08690   0.29904   0.64057   0.00000  Uiso   1.00
H403   H     0.45467   0.43438   0.77640   0.00000  Uiso   1.00
H404   H     0.12860   0.07343   0.45675   0.00000  Uiso   1.00
H405   H     0.97296   0.30122   0.68080   0.00000  Uiso   1.00
O406   O     0.52904   0.42372   0.89600   0.00000  Uiso   1.00
O407   O     0.10125   0.95017   0.47663   0.00000  Uiso   1.00
O408   O     0.89705   0.24903   0.77058   0.00000  Uiso   1.00
N409   N     0.42234   0.32827   0.88495   0.00000  Uiso   1.00
N410   N     0.11750   0.99080   0.58610   0.00000  Uiso   1.00
N411   N     0.97197   0.20375   0.79556   0.00000  Uiso   1.00
N412   N     0.43269   0.39502   0.80271   0.00000  Uiso   1.00
N413   N     0.12786   0.05755   0.50386   0.00000  Uiso   1.00
N414   N     0.98233   0.27051   0.71331   0.00000  Uiso   1.00
C415   C     0.06881   0.63317   0.68892   0.00000  Uiso   1.00
C416   C     0.06577   0.66124   0.75352   0.00000  Uiso   1.00
C417   C     0.10325   0.66201   0.81950   0.00000  Uiso   1.00
C418   C     0.09318   0.68991   0.87170   0.00000  Uiso   1.00
C419   C     0.09543   0.72948   0.97404   0.00000  Uiso   1.00
C420   C     0.99392   0.58224   0.65468   0.00000  Uiso   1.00
C421   C     0.97099   0.51660   0.63754   0.00000  Uiso   1.00
C422   C     0.90044   0.47800   0.60653   0.00000  Uiso   1.00
C423   C     0.79115   0.39494   0.55537   0.00000  Uiso   1.00
C424   C     0.08879   0.68903   0.64169   0.00000  Uiso   1.00
C425   C     0.14562   0.71317   0.61362   0.00000  Uiso   1.00
C426   C     0.15494   0.76448   0.57166   0.00000  Uiso   1.00
C427   C     0.19295   0.84722   0.50034   0.00000  Uiso   1.00
C428   C     0.98428   0.68133   0.66430   0.00000  Uiso   1.00
C429   C     0.01986   0.68739   0.74015   0.00000  Uiso   1.00
C430   C     0.00973   0.71530   0.79226   0.00000  Uiso   1.00
C431   C     0.04719   0.71612   0.85830   0.00000  Uiso   1.00
C432   C     0.94801   0.60839   0.64131   0.00000  Uiso   1.00
C433   C     0.87747   0.56988   0.61031   0.00000  Uiso   1.00
C434   C     0.85444   0.50420   0.59313   0.00000  Uiso   1.00
C435   C     0.04288   0.71519   0.62832   0.00000  Uiso   1.00
C436   C     0.05211   0.76646   0.58639   0.00000  Uiso   1.00
C437   C     0.10894   0.79068   0.55826   0.00000  Uiso   1.00
H438   H     0.10455   0.61280   0.69933   0.00000  Uiso   1.00
H439   H     0.13877   0.64176   0.82983   0.00000  Uiso   1.00
H440   H     0.00654   0.49637   0.64789   0.00000  Uiso   1.00
H441   H     0.18114   0.69292   0.62398   0.00000  Uiso   1.00
H442   H     0.15645   0.68538   0.96861   0.00000  Uiso   1.00
H443   H     0.87763   0.37883   0.58497   0.00000  Uiso   1.00
H444   H     0.24582   0.79328   0.53455   0.00000  Uiso   1.00
H445   H     0.94853   0.70169   0.65389   0.00000  Uiso   1.00
H446   H     0.97420   0.73554   0.78190   0.00000  Uiso   1.00
H447   H     0.84196   0.59014   0.59996   0.00000  Uiso   1.00
H448   H     0.01657   0.78669   0.57605   0.00000  Uiso   1.00
H449   H     0.02288   0.76149   0.92971   0.00000  Uiso   1.00
H450   H     0.74405   0.45493   0.54607   0.00000  Uiso   1.00
H451   H     0.11224   0.86939   0.49565   0.00000  Uiso   1.00
O452   O     0.10935   0.74407   0.03419   0.00000  Uiso   1.00
O453   O     0.74354   0.34189   0.53086   0.00000  Uiso   1.00
O454   O     0.22660   0.88565   0.46471   0.00000  Uiso   1.00
N455   N     0.12150   0.69866   0.94189   0.00000  Uiso   1.00
N456   N     0.86082   0.41205   0.58322   0.00000  Uiso   1.00
N457   N     0.20503   0.79952   0.53606   0.00000  Uiso   1.00
N458   N     0.04963   0.73962   0.92096   0.00000  Uiso   1.00
N459   N     0.78894   0.45300   0.56229   0.00000  Uiso   1.00
N460   N     0.13316   0.84047   0.51513   0.00000  Uiso   1.00
C461   C     0.53777   0.57532   0.23389   0.00000  Uiso   1.00
C462   C     0.58498   0.64817   0.22836   0.00000  Uiso   1.00
C463   C     0.61063   0.69817   0.27899   0.00000  Uiso   1.00
C464   C     0.65300   0.76162   0.26397   0.00000  Uiso   1.00
C465   C     0.72383   0.87278   0.26501   0.00000  Uiso   1.00
C466   C     0.47312   0.55426   0.17430   0.00000  Uiso   1.00
C467   C     0.40472   0.52529   0.17948   0.00000  Uiso   1.00
C468   C     0.35293   0.50967   0.11894   0.00000  Uiso   1.00
C469   C     0.25009   0.47498   0.03604   0.00000  Uiso   1.00
C470   C     0.57550   0.53982   0.21904   0.00000  Uiso   1.00
C471   C     0.59317   0.49868   0.26182   0.00000  Uiso   1.00
C472   C     0.62757   0.47089   0.23894   0.00000  Uiso   1.00
C473   C     0.68370   0.41378   0.22550   0.00000  Uiso   1.00
C474   C     0.56741   0.59909   0.11718   0.00000  Uiso   1.00
C475   C     0.60108   0.66108   0.16497   0.00000  Uiso   1.00
C476   C     0.64342   0.72447   0.14986   0.00000  Uiso   1.00
C477   C     0.66913   0.77455   0.20046   0.00000  Uiso   1.00
C478   C     0.48922   0.56717   0.11091   0.00000  Uiso   1.00
C479   C     0.43752   0.55158   0.05035   0.00000  Uiso   1.00
C480   C     0.36906   0.52260   0.05543   0.00000  Uiso   1.00
C481   C     0.59161   0.55273   0.15564   0.00000  Uiso   1.00
C482   C     0.62597   0.52499   0.13269   0.00000  Uiso   1.00
C483   C     0.64370   0.48382   0.17543   0.00000  Uiso   1.00
H484   H     0.52523   0.56527   0.28325   0.00000  Uiso   1.00
H485   H     0.59815   0.68816   0.32804   0.00000  Uiso   1.00
H486   H     0.39228   0.51530   0.22854   0.00000  Uiso   1.00
H487   H     0.58071   0.48870   0.31087   0.00000  Uiso   1.00
H488   H     0.68608   0.83011   0.34974   0.00000  Uiso   1.00
H489   H     0.25198   0.46559   0.13993   0.00000  Uiso   1.00
H490   H     0.64932   0.40951   0.31354   0.00000  Uiso   1.00
H491   H     0.57994   0.60914   0.06783   0.00000  Uiso   1.00
H492   H     0.65587   0.73445   0.10080   0.00000  Uiso   1.00
H493   H     0.45000   0.56158   0.00130   0.00000  Uiso   1.00
H494   H     0.63843   0.53499   0.08363   0.00000  Uiso   1.00
H495   H     0.73292   0.86768   0.16530   0.00000  Uiso   1.00
H496   H     0.29882   0.50316   0.95550   0.00000  Uiso   1.00
H497   H     0.69617   0.44708   0.12911   0.00000  Uiso   1.00
O498   O     0.75844   0.93053   0.28309   0.00000  Uiso   1.00
O499   O     0.18893   0.45229   0.00784   0.00000  Uiso   1.00
O500   O     0.71023   0.37872   0.23561   0.00000  Uiso   1.00
N501   N     0.68669   0.82175   0.30181   0.00000  Uiso   1.00
N502   N     0.28084   0.48096   0.10566   0.00000  Uiso   1.00
N503   N     0.65230   0.42852   0.26796   0.00000  Uiso   1.00
N504   N     0.71190   0.84197   0.20257   0.00000  Uiso   1.00
N505   N     0.30605   0.50118   0.00641   0.00000  Uiso   1.00
N506   N     0.67751   0.44873   0.16872   0.00000  Uiso   1.00
C507   C     0.56905   0.10347   0.76444   0.00000  Uiso   1.00
C508   C     0.63521   0.10320   0.80640   0.00000  Uiso   1.00
C509   C     0.70189   0.14226   0.79780   0.00000  Uiso   1.00
C510   C     0.75552   0.13466   0.84134   0.00000  Uiso   1.00
C511   C     0.86017   0.14107   0.89882   0.00000  Uiso   1.00
C512   C     0.51855   0.03287   0.73475   0.00000  Uiso   1.00
C513   C     0.48714   0.01280   0.66591   0.00000  Uiso   1.00
C514   C     0.44255   0.94600   0.64914   0.00000  Uiso   1.00
C515   C     0.36604   0.84323   0.59538   0.00000  Uiso   1.00
C516   C     0.53739   0.11748   0.81564   0.00000  Uiso   1.00
C517   C     0.52181   0.16855   0.81481   0.00000  Uiso   1.00
C518   C     0.49306   0.17297   0.86613   0.00000  Uiso   1.00
C519   C     0.44581   0.20158   0.93797   0.00000  Uiso   1.00
C520   C     0.54570   0.02051   0.85707   0.00000  Uiso   1.00
C521   C     0.62252   0.05814   0.85671   0.00000  Uiso   1.00
C522   C     0.67606   0.05048   0.90028   0.00000  Uiso   1.00
C523   C     0.74281   0.08952   0.89175   0.00000  Uiso   1.00
C524   C     0.50586   0.98781   0.78506   0.00000  Uiso   1.00
C525   C     0.46130   0.92102   0.76839   0.00000  Uiso   1.00
C526   C     0.42984   0.90086   0.69954   0.00000  Uiso   1.00
C527   C     0.52471   0.07243   0.86596   0.00000  Uiso   1.00
C528   C     0.49597   0.07677   0.91729   0.00000  Uiso   1.00
C529   C     0.48035   0.12783   0.91653   0.00000  Uiso   1.00
H530   H     0.57892   0.13854   0.72527   0.00000  Uiso   1.00
H531   H     0.71169   0.17712   0.75886   0.00000  Uiso   1.00
H532   H     0.49696   0.04768   0.62699   0.00000  Uiso   1.00
H533   H     0.53163   0.20340   0.77587   0.00000  Uiso   1.00
H534   H     0.85329   0.19999   0.81826   0.00000  Uiso   1.00
H535   H     0.40050   0.92708   0.54022   0.00000  Uiso   1.00
H536   H     0.47361   0.25545   0.85415   0.00000  Uiso   1.00
H537   H     0.53582   0.98543   0.89624   0.00000  Uiso   1.00
H538   H     0.66622   0.01561   0.93921   0.00000  Uiso   1.00
H539   H     0.45149   0.88617   0.80734   0.00000  Uiso   1.00
H540   H     0.48616   0.04189   0.95621   0.00000  Uiso   1.00
H541   H     0.81638   0.06891   0.96464   0.00000  Uiso   1.00
H542   H     0.36359   0.79599   0.68659   0.00000  Uiso   1.00
H543   H     0.43670   0.12436   0.00052   0.00000  Uiso   1.00
O544   O     0.92139   0.15705   0.91662   0.00000  Uiso   1.00
O545   O     0.32735   0.79899   0.55183   0.00000  Uiso   1.00
O546   O     0.42326   0.22981   0.96370   0.00000  Uiso   1.00
N547   N     0.82671   0.16501   0.84683   0.00000  Uiso   1.00
N548   N     0.40339   0.90985   0.58687   0.00000  Uiso   1.00
N549   N     0.47172   0.21684   0.88036   0.00000  Uiso   1.00
N550   N     0.80685   0.09448   0.92559   0.00000  Uiso   1.00
N551   N     0.38353   0.83931   0.66563   0.00000  Uiso   1.00
N552   N     0.45186   0.14630   0.95912   0.00000  Uiso   1.00
