data_job_06582
_audit_creation_date              2018-12-19
_audit_creation_method            'Materials Studio'
_symmetry_space_group_name_H-M    'P1'
_symmetry_Int_Tables_number       1
_symmetry_cell_setting            triclinic
loop_
_symmetry_equiv_pos_as_xyz
  x,y,z
_cell_length_a                    17.4880
_cell_length_b                    19.1065
_cell_length_c                    24.3117
_cell_angle_alpha                 102.6896
_cell_angle_beta                  105.4007
_cell_angle_gamma                 106.7217
loop_
_atom_site_label
_atom_site_type_symbol
_atom_site_fract_x
_atom_site_fract_y
_atom_site_fract_z
_atom_site_U_iso_or_equiv
_atom_site_adp_type
_atom_site_occupancy
C1     C     0.70943   0.85587   0.11316   0.00000  Uiso   1.00
C2     C     0.63205   0.78107   0.07994   0.00000  Uiso   1.00
C3     C     0.56374   0.75510   0.09863   0.00000  Uiso   1.00
C4     C     0.49922   0.68520   0.06193   0.00000  Uiso   1.00
C5     C     0.37852   0.57548   0.01849   0.00000  Uiso   1.00
C6     C     0.78724   0.83268   0.12365   0.00000  Uiso   1.00
C7     C     0.84943   0.85012   0.17910   0.00000  Uiso   1.00
C8     C     0.91555   0.82367   0.17919   0.00000  Uiso   1.00
C9     C     0.03583   0.79413   0.20361   0.00000  Uiso   1.00
C10    C     0.71370   0.90043   0.06845   0.00000  Uiso   1.00
C11    C     0.71407   0.97484   0.07749   0.00000  Uiso   1.00
C12    C     0.71830   0.00544   0.03110   0.00000  Uiso   1.00
C13    C     0.72439   0.08109   0.96982   0.00000  Uiso   1.00
C14    C     0.71630   0.77792   0.01474   0.00000  Uiso   1.00
C15    C     0.63578   0.73873   0.02649   0.00000  Uiso   1.00
C16    C     0.57134   0.66885   0.98974   0.00000  Uiso   1.00
C17    C     0.50295   0.64278   0.00838   0.00000  Uiso   1.00
C18    C     0.79098   0.79035   0.07020   0.00000  Uiso   1.00
C19    C     0.85703   0.76388   0.07021   0.00000  Uiso   1.00
C20    C     0.91929   0.78126   0.12563   0.00000  Uiso   1.00
C21    C     0.71743   0.85809   0.01499   0.00000  Uiso   1.00
C22    C     0.72167   0.88859   0.96859   0.00000  Uiso   1.00
C23    C     0.72204   0.96302   0.97755   0.00000  Uiso   1.00
H24    H     0.70653   0.88883   0.15478   0.00000  Uiso   1.00
H25    H     0.56088   0.78787   0.14001   0.00000  Uiso   1.00
H26    H     0.84653   0.88289   0.22046   0.00000  Uiso   1.00
H27    H     0.71119   0.00758   0.11886   0.00000  Uiso   1.00
H28    H     0.40107   0.65726   0.10006   0.00000  Uiso   1.00
H29    H     0.00338   0.85762   0.26969   0.00000  Uiso   1.00
H30    H     0.71799   0.12057   0.05545   0.00000  Uiso   1.00
H31    H     0.71920   0.74496   0.97313   0.00000  Uiso   1.00
H32    H     0.57425   0.63610   0.94838   0.00000  Uiso   1.00
H33    H     0.85990   0.73112   0.02883   0.00000  Uiso   1.00
H34    H     0.72455   0.85581   0.92723   0.00000  Uiso   1.00
H35    H     0.41192   0.53408   0.94453   0.00000  Uiso   1.00
H36    H     0.01424   0.73444   0.11416   0.00000  Uiso   1.00
H37    H     0.72884   0.99738   0.89992   0.00000  Uiso   1.00
O38    O     0.31092   0.52665   0.00931   0.00000  Uiso   1.00
O39    O     0.10114   0.78953   0.23185   0.00000  Uiso   1.00
O40    O     0.72671   0.13450   0.95078   0.00000  Uiso   1.00
N41    N     0.42351   0.64322   0.06685   0.00000  Uiso   1.00
N42    N     0.98663   0.83053   0.22544   0.00000  Uiso   1.00
N43    N     0.71983   0.07637   0.02516   0.00000  Uiso   1.00
N44    N     0.42934   0.57693   0.98316   0.00000  Uiso   1.00
N45    N     0.99246   0.76425   0.14175   0.00000  Uiso   1.00
N46    N     0.72567   0.01009   0.94146   0.00000  Uiso   1.00
C47    C     0.28965   0.44170   0.12081   0.00000  Uiso   1.00
C48    C     0.32754   0.50222   0.18308   0.00000  Uiso   1.00
C49    C     0.39752   0.57038   0.20205   0.00000  Uiso   1.00
C50    C     0.42228   0.61808   0.26074   0.00000  Uiso   1.00
C51    C     0.48779   0.71505   0.35162   0.00000  Uiso   1.00
C52    C     0.29023   0.36597   0.13122   0.00000  Uiso   1.00
C53    C     0.32883   0.31959   0.10656   0.00000  Uiso   1.00
C54    C     0.32217   0.25259   0.12159   0.00000  Uiso   1.00
C55    C     0.32969   0.13801   0.13191   0.00000  Uiso   1.00
C56    C     0.19605   0.43189   0.09645   0.00000  Uiso   1.00
C57    C     0.15544   0.44090   0.04255   0.00000  Uiso   1.00
C58    C     0.06948   0.42938   0.02830   0.00000  Uiso   1.00
C59    C     0.93078   0.41714   0.98464   0.00000  Uiso   1.00
C60    C     0.20918   0.40519   0.19132   0.00000  Uiso   1.00
C61    C     0.28383   0.48239   0.22138   0.00000  Uiso   1.00
C62    C     0.30849   0.53000   0.28006   0.00000  Uiso   1.00
C63    C     0.37849   0.59822   0.29911   0.00000  Uiso   1.00
C64    C     0.24652   0.34615   0.16952   0.00000  Uiso   1.00
C65    C     0.23980   0.27920   0.18458   0.00000  Uiso   1.00
C66    C     0.27838   0.23273   0.15996   0.00000  Uiso   1.00
C67    C     0.15234   0.41206   0.13475   0.00000  Uiso   1.00
C68    C     0.06642   0.40052   0.12057   0.00000  Uiso   1.00
C69    C     0.02570   0.40952   0.06667   0.00000  Uiso   1.00
H70    H     0.32368   0.45713   0.09099   0.00000  Uiso   1.00
H71    H     0.43133   0.58571   0.17239   0.00000  Uiso   1.00
H72    H     0.36264   0.33494   0.07692   0.00000  Uiso   1.00
H73    H     0.18929   0.45624   0.01292   0.00000  Uiso   1.00
H74    H     0.53143   0.71949   0.27954   0.00000  Uiso   1.00
H75    H     0.38656   0.19074   0.07822   0.00000  Uiso   1.00
H76    H     0.02102   0.44652   0.94327   0.00000  Uiso   1.00
H77    H     0.17515   0.38976   0.22114   0.00000  Uiso   1.00
H78    H     0.27466   0.51464   0.30969   0.00000  Uiso   1.00
H79    H     0.20597   0.26387   0.21422   0.00000  Uiso   1.00
H80    H     0.03262   0.38517   0.15022   0.00000  Uiso   1.00
H81    H     0.40427   0.66181   0.39098   0.00000  Uiso   1.00
H82    H     0.25940   0.13305   0.18965   0.00000  Uiso   1.00
H83    H     0.89385   0.38884   0.05470   0.00000  Uiso   1.00
O84    O     0.53600   0.77401   0.39117   0.00000  Uiso   1.00
O85    O     0.34593   0.08029   0.12703   0.00000  Uiso   1.00
O86    O     0.86634   0.41588   0.94998   0.00000  Uiso   1.00
N87    N     0.48784   0.68879   0.29361   0.00000  Uiso   1.00
N88    N     0.35241   0.19444   0.10539   0.00000  Uiso   1.00
N89    N     0.01064   0.43355   0.97922   0.00000  Uiso   1.00
N90    N     0.41941   0.65775   0.35358   0.00000  Uiso   1.00
N91    N     0.28398   0.16340   0.16536   0.00000  Uiso   1.00
N92    N     0.94222   0.40251   0.03918   0.00000  Uiso   1.00
C93    C     0.83948   0.07363   0.68245   0.00000  Uiso   1.00
C94    C     0.87565   0.07942   0.63233   0.00000  Uiso   1.00
C95    C     0.85494   0.01987   0.58002   0.00000  Uiso   1.00
C96    C     0.89499   0.03682   0.53974   0.00000  Uiso   1.00
C97    C     0.94228   0.03458   0.46016   0.00000  Uiso   1.00
C98    C     0.91615   0.09915   0.74010   0.00000  Uiso   1.00
C99    C     0.92947   0.05618   0.77840   0.00000  Uiso   1.00
C100   C     0.00361   0.08975   0.82885   0.00000  Uiso   1.00
C101   C     0.11373   0.11815   0.91661   0.00000  Uiso   1.00
C102   C     0.80062   0.13552   0.68964   0.00000  Uiso   1.00
C103   C     0.71682   0.12313   0.68554   0.00000  Uiso   1.00
C104   C     0.69370   0.18732   0.69351   0.00000  Uiso   1.00
C105   C     0.62445   0.27218   0.70293   0.00000  Uiso   1.00
C106   C     0.94744   0.20965   0.70394   0.00000  Uiso   1.00
C107   C     0.93429   0.15331   0.64401   0.00000  Uiso   1.00
C108   C     0.97438   0.17036   0.60379   0.00000  Uiso   1.00
C109   C     0.95373   0.11084   0.55143   0.00000  Uiso   1.00
C110   C     0.97479   0.17303   0.75178   0.00000  Uiso   1.00
C111   C     0.04892   0.20667   0.80218   0.00000  Uiso   1.00
C112   C     0.06236   0.16376   0.84055   0.00000  Uiso   1.00
C113   C     0.85926   0.20940   0.70132   0.00000  Uiso   1.00
C114   C     0.83627   0.27362   0.70931   0.00000  Uiso   1.00
C115   C     0.75244   0.26133   0.70521   0.00000  Uiso   1.00
H116   H     0.79383   0.01611   0.67337   0.00000  Uiso   1.00
H117   H     0.80956   0.96270   0.57100   0.00000  Uiso   1.00
H118   H     0.88408   0.99901   0.76936   0.00000  Uiso   1.00
H119   H     0.67146   0.06595   0.67650   0.00000  Uiso   1.00
H120   H     0.85289   0.93606   0.46268   0.00000  Uiso   1.00
H121   H     0.01000   0.01264   0.88093   0.00000  Uiso   1.00
H122   H     0.56165   0.15379   0.68513   0.00000  Uiso   1.00
H123   H     0.99309   0.26717   0.71303   0.00000  Uiso   1.00
H124   H     0.01976   0.22754   0.61284   0.00000  Uiso   1.00
H125   H     0.09428   0.26385   0.81120   0.00000  Uiso   1.00
H126   H     0.88166   0.33079   0.71834   0.00000  Uiso   1.00
H127   H     0.02350   0.15101   0.49663   0.00000  Uiso   1.00
H128   H     0.18060   0.22759   0.91489   0.00000  Uiso   1.00
H129   H     0.73226   0.36874   0.71908   0.00000  Uiso   1.00
O130   O     0.95217   0.01293   0.41304   0.00000  Uiso   1.00
O131   O     0.15827   0.11340   0.96179   0.00000  Uiso   1.00
O132   O     0.57005   0.29858   0.70489   0.00000  Uiso   1.00
N133   N     0.88937   0.99209   0.48441   0.00000  Uiso   1.00
N134   N     0.03627   0.06368   0.87545   0.00000  Uiso   1.00
N135   N     0.61710   0.19565   0.69241   0.00000  Uiso   1.00
N136   N     0.98117   0.10775   0.50268   0.00000  Uiso   1.00
N137   N     0.12807   0.17934   0.89373   0.00000  Uiso   1.00
N138   N     0.70890   0.31131   0.71068   0.00000  Uiso   1.00
C139   C     0.81531   0.47840   0.14024   0.00000  Uiso   1.00
C140   C     0.74954   0.40180   0.09505   0.00000  Uiso   1.00
C141   C     0.73676   0.37597   0.03414   0.00000  Uiso   1.00
C142   C     0.67344   0.30424   0.00040   0.00000  Uiso   1.00
C143   C     0.57877   0.19201   0.92625   0.00000  Uiso   1.00
C144   C     0.86944   0.45819   0.19018   0.00000  Uiso   1.00
C145   C     0.95746   0.47978   0.20926   0.00000  Uiso   1.00
C146   C     0.99507   0.45553   0.25560   0.00000  Uiso   1.00
C147   C     0.08654   0.43090   0.32917   0.00000  Uiso   1.00
C148   C     0.76545   0.51939   0.16864   0.00000  Uiso   1.00
C149   C     0.76606   0.59245   0.16962   0.00000  Uiso   1.00
C150   C     0.71614   0.61973   0.19784   0.00000  Uiso   1.00
C151   C     0.64616   0.69012   0.23796   0.00000  Uiso   1.00
C152   C     0.72558   0.39695   0.18863   0.00000  Uiso   1.00
C153   C     0.70081   0.35756   0.12134   0.00000  Uiso   1.00
C154   C     0.63749   0.28585   0.08768   0.00000  Uiso   1.00
C155   C     0.62461   0.25992   0.02673   0.00000  Uiso   1.00
C156   C     0.82071   0.41395   0.21646   0.00000  Uiso   1.00
C157   C     0.85819   0.38967   0.26279   0.00000  Uiso   1.00
C158   C     0.94624   0.41121   0.28193   0.00000  Uiso   1.00
C159   C     0.71672   0.47515   0.19492   0.00000  Uiso   1.00
C160   C     0.66679   0.50233   0.22316   0.00000  Uiso   1.00
C161   C     0.66731   0.57541   0.22418   0.00000  Uiso   1.00
H162   H     0.85325   0.51284   0.11978   0.00000  Uiso   1.00
H163   H     0.77449   0.41022   0.01382   0.00000  Uiso   1.00
H164   H     0.99516   0.51403   0.18891   0.00000  Uiso   1.00
H165   H     0.80378   0.62667   0.14928   0.00000  Uiso   1.00
H166   H     0.66570   0.27692   0.90795   0.00000  Uiso   1.00
H167   H     0.13099   0.49582   0.27715   0.00000  Uiso   1.00
H168   H     0.72745   0.73336   0.19357   0.00000  Uiso   1.00
H169   H     0.68764   0.36250   0.20909   0.00000  Uiso   1.00
H170   H     0.59979   0.25163   0.10803   0.00000  Uiso   1.00
H171   H     0.82046   0.35544   0.28313   0.00000  Uiso   1.00
H172   H     0.62908   0.46808   0.24349   0.00000  Uiso   1.00
H173   H     0.52391   0.14820   0.98441   0.00000  Uiso   1.00
H174   H     0.98920   0.36711   0.35362   0.00000  Uiso   1.00
H175   H     0.58565   0.60464   0.27004   0.00000  Uiso   1.00
O176   O     0.54002   0.14233   0.87809   0.00000  Uiso   1.00
O177   O     0.15046   0.42953   0.36248   0.00000  Uiso   1.00
O178   O     0.62102   0.74117   0.25283   0.00000  Uiso   1.00
N179   N     0.64438   0.26185   0.93981   0.00000  Uiso   1.00
N180   N     0.07939   0.46650   0.28498   0.00000  Uiso   1.00
N181   N     0.70213   0.68858   0.20686   0.00000  Uiso   1.00
N182   N     0.56808   0.19259   0.98096   0.00000  Uiso   1.00
N183   N     0.00309   0.39724   0.32613   0.00000  Uiso   1.00
N184   N     0.62583   0.61932   0.24801   0.00000  Uiso   1.00
C185   C     0.37116   0.10904   0.66557   0.00000  Uiso   1.00
C186   C     0.38037   0.11823   0.60665   0.00000  Uiso   1.00
C187   C     0.40824   0.18770   0.59558   0.00000  Uiso   1.00
C188   C     0.41223   0.18386   0.53877   0.00000  Uiso   1.00
C189   C     0.43008   0.20890   0.45400   0.00000  Uiso   1.00
C190   C     0.42526   0.06280   0.68499   0.00000  Uiso   1.00
C191   C     0.49087   0.08566   0.73978   0.00000  Uiso   1.00
C192   C     0.53264   0.03515   0.74891   0.00000  Uiso   1.00
C193   C     0.62014   0.97411   0.78578   0.00000  Uiso   1.00
C194   C     0.27875   0.05678   0.64943   0.00000  Uiso   1.00
C195   C     0.22118   0.07455   0.67434   0.00000  Uiso   1.00
C196   C     0.13961   0.01896   0.65355   0.00000  Uiso   1.00
C197   C     0.99963   0.94856   0.63521   0.00000  Uiso   1.00
C198   C     0.32867   0.97871   0.58436   0.00000  Uiso   1.00
C199   C     0.35729   0.04744   0.56254   0.00000  Uiso   1.00
C200   C     0.36124   0.04349   0.50573   0.00000  Uiso   1.00
C201   C     0.38911   0.11294   0.49458   0.00000  Uiso   1.00
C202   C     0.40218   0.99201   0.64088   0.00000  Uiso   1.00
C203   C     0.44386   0.94146   0.64993   0.00000  Uiso   1.00
C204   C     0.50953   0.96423   0.70472   0.00000  Uiso   1.00
C205   C     0.25567   0.98598   0.60532   0.00000  Uiso   1.00
C206   C     0.17417   0.93035   0.58449   0.00000  Uiso   1.00
C207   C     0.11649   0.94804   0.60936   0.00000  Uiso   1.00
H208   H     0.38913   0.16416   0.69992   0.00000  Uiso   1.00
H209   H     0.42610   0.24247   0.62973   0.00000  Uiso   1.00
H210   H     0.50871   0.14044   0.77391   0.00000  Uiso   1.00
H211   H     0.23906   0.12934   0.70847   0.00000  Uiso   1.00
H212   H     0.45694   0.29808   0.53247   0.00000  Uiso   1.00
H213   H     0.63111   0.08294   0.83649   0.00000  Uiso   1.00
H214   H     0.06250   0.05952   0.69851   0.00000  Uiso   1.00
H215   H     0.31071   0.92359   0.55002   0.00000  Uiso   1.00
H216   H     0.34337   0.98870   0.47161   0.00000  Uiso   1.00
H217   H     0.42599   0.88667   0.61579   0.00000  Uiso   1.00
H218   H     0.15634   0.87557   0.55035   0.00000  Uiso   1.00
H219   H     0.38981   0.09211   0.40413   0.00000  Uiso   1.00
H220   H     0.56397   0.87697   0.70816   0.00000  Uiso   1.00
H221   H     0.99536   0.85355   0.57017   0.00000  Uiso   1.00
O222   O     0.44631   0.24227   0.41943   0.00000  Uiso   1.00
O223   O     0.67479   0.96001   0.81830   0.00000  Uiso   1.00
O224   O     0.92879   0.92929   0.63727   0.00000  Uiso   1.00
N225   N     0.43664   0.24067   0.51302   0.00000  Uiso   1.00
N226   N     0.59949   0.03953   0.79726   0.00000  Uiso   1.00
N227   N     0.06789   0.01763   0.66827   0.00000  Uiso   1.00
N228   N     0.40052   0.12984   0.44397   0.00000  Uiso   1.00
N229   N     0.56336   0.92870   0.72820   0.00000  Uiso   1.00
N230   N     0.03176   0.90680   0.59922   0.00000  Uiso   1.00
C231   C     0.68849   0.41184   0.56357   0.00000  Uiso   1.00
C232   C     0.68270   0.45840   0.62088   0.00000  Uiso   1.00
C233   C     0.62840   0.43053   0.65015   0.00000  Uiso   1.00
C234   C     0.63280   0.48228   0.70196   0.00000  Uiso   1.00
C235   C     0.61522   0.54288   0.78767   0.00000  Uiso   1.00
C236   C     0.78144   0.41917   0.57882   0.00000  Uiso   1.00
C237   C     0.81015   0.35830   0.57271   0.00000  Uiso   1.00
C238   C     0.89767   0.37703   0.58909   0.00000  Uiso   1.00
C239   C     0.03337   0.37671   0.60946   0.00000  Uiso   1.00
C240   C     0.67287   0.45491   0.51839   0.00000  Uiso   1.00
C241   C     0.61031   0.42411   0.46146   0.00000  Uiso   1.00
C242   C     0.60644   0.47293   0.42697   0.00000  Uiso   1.00
C243   C     0.57357   0.52811   0.35351   0.00000  Uiso   1.00
C244   C     0.79287   0.55332   0.60353   0.00000  Uiso   1.00
C245   C     0.73939   0.53524   0.64259   0.00000  Uiso   1.00
C246   C     0.74388   0.58706   0.69436   0.00000  Uiso   1.00
C247   C     0.68959   0.55927   0.72370   0.00000  Uiso   1.00
C248   C     0.83813   0.49601   0.60052   0.00000  Uiso   1.00
C249   C     0.92563   0.51483   0.61692   0.00000  Uiso   1.00
C250   C     0.95447   0.45402   0.61084   0.00000  Uiso   1.00
C251   C     0.72956   0.53176   0.54009   0.00000  Uiso   1.00
C252   C     0.72579   0.58064   0.50568   0.00000  Uiso   1.00
C253   C     0.66324   0.54991   0.44871   0.00000  Uiso   1.00
H254   H     0.64436   0.35202   0.54667   0.00000  Uiso   1.00
H255   H     0.58454   0.37105   0.63334   0.00000  Uiso   1.00
H256   H     0.76626   0.29884   0.55590   0.00000  Uiso   1.00
H257   H     0.56645   0.36464   0.44468   0.00000  Uiso   1.00
H258   H     0.54324   0.42604   0.73902   0.00000  Uiso   1.00
H259   H     0.92641   0.27378   0.57572   0.00000  Uiso   1.00
H260   H     0.50507   0.41252   0.34118   0.00000  Uiso   1.00
H261   H     0.83701   0.61315   0.62043   0.00000  Uiso   1.00
H262   H     0.78776   0.64652   0.71115   0.00000  Uiso   1.00
H263   H     0.96948   0.57430   0.63371   0.00000  Uiso   1.00
H264   H     0.76967   0.64010   0.52249   0.00000  Uiso   1.00
H265   H     0.70819   0.64962   0.80217   0.00000  Uiso   1.00
H266   H     0.09136   0.49735   0.63887   0.00000  Uiso   1.00
H267   H     0.67002   0.63610   0.40434   0.00000  Uiso   1.00
O268   O     0.58986   0.55507   0.82895   0.00000  Uiso   1.00
O269   O     0.09256   0.35530   0.61470   0.00000  Uiso   1.00
O270   O     0.53977   0.53732   0.30700   0.00000  Uiso   1.00
N271   N     0.58881   0.47409   0.74142   0.00000  Uiso   1.00
N272   N     0.94705   0.33173   0.58876   0.00000  Uiso   1.00
N273   N     0.55315   0.46143   0.36948   0.00000  Uiso   1.00
N274   N     0.67756   0.59439   0.77540   0.00000  Uiso   1.00
N275   N     0.03581   0.45203   0.62274   0.00000  Uiso   1.00
N276   N     0.64190   0.58174   0.40346   0.00000  Uiso   1.00
C277   C     0.39148   0.29596   0.83554   0.00000  Uiso   1.00
C278   C     0.47280   0.35818   0.88323   0.00000  Uiso   1.00
C279   C     0.54941   0.38883   0.87484   0.00000  Uiso   1.00
C280   C     0.61632   0.44529   0.92406   0.00000  Uiso   1.00
C281   C     0.74401   0.53815   0.98964   0.00000  Uiso   1.00
C282   C     0.32220   0.33015   0.83162   0.00000  Uiso   1.00
C283   C     0.27218   0.33722   0.77983   0.00000  Uiso   1.00
C284   C     0.21231   0.37007   0.78562   0.00000  Uiso   1.00
C285   C     0.10614   0.41936   0.77106   0.00000  Uiso   1.00
C286   C     0.36751   0.23090   0.86192   0.00000  Uiso   1.00
C287   C     0.35558   0.15452   0.83561   0.00000  Uiso   1.00
C288   C     0.33383   0.10380   0.86691   0.00000  Uiso   1.00
C289   C     0.29802   0.99900   0.89940   0.00000  Uiso   1.00
C290   C     0.37406   0.34170   0.93789   0.00000  Uiso   1.00
C291   C     0.46333   0.38302   0.93881   0.00000  Uiso   1.00
C292   C     0.53014   0.43944   0.98807   0.00000  Uiso   1.00
C293   C     0.60685   0.47018   0.97975   0.00000  Uiso   1.00
C294   C     0.31273   0.35499   0.88720   0.00000  Uiso   1.00
C295   C     0.25291   0.38783   0.89306   0.00000  Uiso   1.00
C296   C     0.20283   0.39496   0.84131   0.00000  Uiso   1.00
C297   C     0.35805   0.25574   0.91751   0.00000  Uiso   1.00
C298   C     0.33631   0.20513   0.94885   0.00000  Uiso   1.00
C299   C     0.32435   0.12869   0.92259   0.00000  Uiso   1.00
H300   H     0.39884   0.27662   0.79227   0.00000  Uiso   1.00
H301   H     0.55671   0.36960   0.83181   0.00000  Uiso   1.00
H302   H     0.27952   0.31799   0.73682   0.00000  Uiso   1.00
H303   H     0.36290   0.13532   0.79260   0.00000  Uiso   1.00
H304   H     0.72755   0.48366   0.90016   0.00000  Uiso   1.00
H305   H     0.14305   0.37481   0.69987   0.00000  Uiso   1.00
H306   H     0.31889   0.98961   0.81748   0.00000  Uiso   1.00
H307   H     0.36669   0.36104   0.98116   0.00000  Uiso   1.00
H308   H     0.52280   0.45866   0.03108   0.00000  Uiso   1.00
H309   H     0.24560   0.40705   0.93609   0.00000  Uiso   1.00
H310   H     0.32899   0.22438   0.99186   0.00000  Uiso   1.00
H311   H     0.70003   0.55595   0.06189   0.00000  Uiso   1.00
H312   H     0.11553   0.44710   0.86160   0.00000  Uiso   1.00
H313   H     0.29136   0.06190   0.97921   0.00000  Uiso   1.00
O314   O     0.81705   0.58251   0.01044   0.00000  Uiso   1.00
O315   O     0.05020   0.43969   0.74767   0.00000  Uiso   1.00
O316   O     0.28090   0.93433   0.90197   0.00000  Uiso   1.00
N317   N     0.69965   0.48727   0.93138   0.00000  Uiso   1.00
N318   N     0.15319   0.38551   0.74412   0.00000  Uiso   1.00
N319   N     0.31756   0.02538   0.85407   0.00000  Uiso   1.00
N320   N     0.68484   0.52616   0.01840   0.00000  Uiso   1.00
N321   N     0.13838   0.42441   0.83115   0.00000  Uiso   1.00
N322   N     0.30275   0.06428   0.94109   0.00000  Uiso   1.00
C323   C     0.87033   0.78034   0.89863   0.00000  Uiso   1.00
C324   C     0.84985   0.79805   0.83940   0.00000  Uiso   1.00
C325   C     0.76887   0.78394   0.80066   0.00000  Uiso   1.00
C326   C     0.76359   0.80429   0.74874   0.00000  Uiso   1.00
C327   C     0.72067   0.82676   0.65872   0.00000  Uiso   1.00
C328   C     0.93157   0.85645   0.94691   0.00000  Uiso   1.00
C329   C     0.91929   0.89142   0.99855   0.00000  Uiso   1.00
C330   C     0.98280   0.96093   0.03713   0.00000  Uiso   1.00
C331   C     0.06677   0.07404   0.11404   0.00000  Uiso   1.00
C332   C     0.92183   0.72851   0.89360   0.00000  Uiso   1.00
C333   C     0.90138   0.65593   0.90043   0.00000  Uiso   1.00
C334   C     0.95670   0.61774   0.89414   0.00000  Uiso   1.00
C335   C     0.02556   0.53220   0.88827   0.00000  Uiso   1.00
C336   C     0.00496   0.84159   0.87532   0.00000  Uiso   1.00
C337   C     0.92298   0.83132   0.82675   0.00000  Uiso   1.00
C338   C     0.91782   0.85170   0.77487   0.00000  Uiso   1.00
C339   C     0.83684   0.83762   0.73605   0.00000  Uiso   1.00
C340   C     0.00469   0.88971   0.93425   0.00000  Uiso   1.00
C341   C     0.06823   0.95919   0.97277   0.00000  Uiso   1.00
C342   C     0.05605   0.99426   0.02445   0.00000  Uiso   1.00
C343   C     0.99495   0.76178   0.88094   0.00000  Uiso   1.00
C344   C     0.05032   0.72369   0.87464   0.00000  Uiso   1.00
C345   C     0.02996   0.65107   0.88146   0.00000  Uiso   1.00
H346   H     0.81340   0.75445   0.90848   0.00000  Uiso   1.00
H347   H     0.71230   0.75820   0.81047   0.00000  Uiso   1.00
H348   H     0.86270   0.86566   0.00834   0.00000  Uiso   1.00
H349   H     0.84479   0.63021   0.91022   0.00000  Uiso   1.00
H350   H     0.63245   0.77705   0.69623   0.00000  Uiso   1.00
H351   H     0.94959   0.00363   0.11345   0.00000  Uiso   1.00
H352   H     0.91183   0.50713   0.90657   0.00000  Uiso   1.00
H353   H     0.06189   0.86749   0.86547   0.00000  Uiso   1.00
H354   H     0.97442   0.87744   0.76509   0.00000  Uiso   1.00
H355   H     0.12482   0.98491   0.96296   0.00000  Uiso   1.00
H356   H     0.10690   0.74945   0.86484   0.00000  Uiso   1.00
H357   H     0.84520   0.87384   0.65940   0.00000  Uiso   1.00
H358   H     0.16234   0.10042   0.07663   0.00000  Uiso   1.00
H359   H     0.12457   0.60392   0.86974   0.00000  Uiso   1.00
O360   O     0.67680   0.82998   0.61257   0.00000  Uiso   1.00
O361   O     0.09288   0.12723   0.15996   0.00000  Uiso   1.00
O362   O     0.04333   0.47583   0.88852   0.00000  Uiso   1.00
N363   N     0.69452   0.79845   0.70134   0.00000  Uiso   1.00
N364   N     0.99103   0.01030   0.09141   0.00000  Uiso   1.00
N365   N     0.95573   0.54611   0.89800   0.00000  Uiso   1.00
N366   N     0.80900   0.85053   0.68152   0.00000  Uiso   1.00
N367   N     0.10550   0.06238   0.07159   0.00000  Uiso   1.00
N368   N     0.07021   0.59819   0.87818   0.00000  Uiso   1.00
C369   C     0.20126   0.20503   0.33646   0.00000  Uiso   1.00
C370   C     0.21169   0.21346   0.40215   0.00000  Uiso   1.00
C371   C     0.26578   0.27809   0.45128   0.00000  Uiso   1.00
C372   C     0.26606   0.27441   0.50773   0.00000  Uiso   1.00
C373   C     0.29013   0.29756   0.60867   0.00000  Uiso   1.00
C374   C     0.10659   0.18498   0.30351   0.00000  Uiso   1.00
C375   C     0.07231   0.22566   0.26970   0.00000  Uiso   1.00
C376   C     0.98410   0.19799   0.24311   0.00000  Uiso   1.00
C377   C     0.84500   0.17689   0.19087   0.00000  Uiso   1.00
C378   C     0.21992   0.13341   0.31254   0.00000  Uiso   1.00
C379   C     0.28092   0.13071   0.28630   0.00000  Uiso   1.00
C380   C     0.28812   0.05962   0.26730   0.00000  Uiso   1.00
C381   C     0.32498   0.95844   0.22908   0.00000  Uiso   1.00
C382   C     0.10557   0.08357   0.34935   0.00000  Uiso   1.00
C383   C     0.15971   0.14749   0.40915   0.00000  Uiso   1.00
C384   C     0.15991   0.14371   0.46554   0.00000  Uiso   1.00
C385   C     0.21399   0.20832   0.51475   0.00000  Uiso   1.00
C386   C     0.05461   0.11901   0.31051   0.00000  Uiso   1.00
C387   C     0.96643   0.09128   0.28396   0.00000  Uiso   1.00
C388   C     0.93203   0.13190   0.25012   0.00000  Uiso   1.00
C389   C     0.16794   0.06744   0.31954   0.00000  Uiso   1.00
C390   C     0.17504   0.99633   0.30057   0.00000  Uiso   1.00
C391   C     0.23604   0.99353   0.27431   0.00000  Uiso   1.00
H392   H     0.24172   0.25639   0.33100   0.00000  Uiso   1.00
H393   H     0.30599   0.32914   0.44584   0.00000  Uiso   1.00
H394   H     0.11255   0.27670   0.26428   0.00000  Uiso   1.00
H395   H     0.32113   0.18178   0.28089   0.00000  Uiso   1.00
H396   H     0.35430   0.38071   0.57625   0.00000  Uiso   1.00
H397   H     0.94642   0.27014   0.19341   0.00000  Uiso   1.00
H398   H     0.38624   0.06996   0.22842   0.00000  Uiso   1.00
H399   H     0.06510   0.03221   0.35480   0.00000  Uiso   1.00
H400   H     0.11968   0.09265   0.47095   0.00000  Uiso   1.00
H401   H     0.92623   0.04022   0.28939   0.00000  Uiso   1.00
H402   H     0.13481   0.94529   0.30599   0.00000  Uiso   1.00
H403   H     0.20307   0.18877   0.59663   0.00000  Uiso   1.00
H404   H     0.79519   0.07820   0.21378   0.00000  Uiso   1.00
H405   H     0.23502   0.87802   0.24879   0.00000  Uiso   1.00
O406   O     0.31775   0.32856   0.66241   0.00000  Uiso   1.00
O407   O     0.78264   0.18348   0.16013   0.00000  Uiso   1.00
O408   O     0.35968   0.92086   0.20607   0.00000  Uiso   1.00
N409   N     0.31123   0.32723   0.56511   0.00000  Uiso   1.00
N410   N     0.92989   0.22387   0.20718   0.00000  Uiso   1.00
N411   N     0.34107   0.03671   0.23990   0.00000  Uiso   1.00
N412   N     0.22986   0.22395   0.57607   0.00000  Uiso   1.00
N413   N     0.84851   0.12058   0.21814   0.00000  Uiso   1.00
N414   N     0.25970   0.93343   0.25086   0.00000  Uiso   1.00
C415   C     0.26178   0.66537   0.80504   0.00000  Uiso   1.00
C416   C     0.32831   0.73258   0.85935   0.00000  Uiso   1.00
C417   C     0.34409   0.73669   0.91923   0.00000  Uiso   1.00
C418   C     0.40762   0.80309   0.96229   0.00000  Uiso   1.00
C419   C     0.50390   0.89832   0.04910   0.00000  Uiso   1.00
C420   C     0.20497   0.69949   0.76942   0.00000  Uiso   1.00
C421   C     0.11705   0.67577   0.75368   0.00000  Uiso   1.00
C422   C     0.07676   0.71432   0.72103   0.00000  Uiso   1.00
C423   C     0.98155   0.75815   0.66819   0.00000  Uiso   1.00
C424   C     0.31013   0.63987   0.76577   0.00000  Uiso   1.00
C425   C     0.31061   0.56601   0.74695   0.00000  Uiso   1.00
C426   C     0.35883   0.55435   0.71122   0.00000  Uiso   1.00
C427   C     0.42688   0.50560   0.65271   0.00000  Uiso   1.00
C428   C     0.34654   0.77600   0.77501   0.00000  Uiso   1.00
C429   C     0.37435   0.79267   0.84304   0.00000  Uiso   1.00
C430   C     0.43787   0.85909   0.88602   0.00000  Uiso   1.00
C431   C     0.45375   0.86329   0.94596   0.00000  Uiso   1.00
C432   C     0.25101   0.75958   0.75311   0.00000  Uiso   1.00
C433   C     0.21084   0.79817   0.72047   0.00000  Uiso   1.00
C434   C     0.12288   0.77452   0.70469   0.00000  Uiso   1.00
C435   C     0.35617   0.69996   0.74946   0.00000  Uiso   1.00
C436   C     0.40439   0.68841   0.71374   0.00000  Uiso   1.00
C437   C     0.40495   0.61455   0.69488   0.00000  Uiso   1.00
H438   H     0.22593   0.61859   0.81773   0.00000  Uiso   1.00
H439   H     0.30844   0.69017   0.93183   0.00000  Uiso   1.00
H440   H     0.08144   0.62926   0.76631   0.00000  Uiso   1.00
H441   H     0.27497   0.51952   0.75958   0.00000  Uiso   1.00
H442   H     0.42021   0.79605   0.05115   0.00000  Uiso   1.00
H443   H     0.94156   0.66760   0.70211   0.00000  Uiso   1.00
H444   H     0.34965   0.43618   0.68793   0.00000  Uiso   1.00
H445   H     0.38238   0.82279   0.76232   0.00000  Uiso   1.00
H446   H     0.47349   0.90558   0.87338   0.00000  Uiso   1.00
H447   H     0.24649   0.84467   0.70785   0.00000  Uiso   1.00
H448   H     0.44001   0.73493   0.70113   0.00000  Uiso   1.00
H449   H     0.55416   0.97088   0.00371   0.00000  Uiso   1.00
H450   H     0.07552   0.84243   0.65466   0.00000  Uiso   1.00
H451   H     0.48361   0.61101   0.64049   0.00000  Uiso   1.00
O452   O     0.54427   0.93425   0.10149   0.00000  Uiso   1.00
O453   O     0.91631   0.76572   0.64355   0.00000  Uiso   1.00
O454   O     0.45171   0.46211   0.62495   0.00000  Uiso   1.00
N455   N     0.43924   0.82583   0.02474   0.00000  Uiso   1.00
N456   N     0.99174   0.70574   0.69841   0.00000  Uiso   1.00
N457   N     0.37325   0.48938   0.68515   0.00000  Uiso   1.00
N458   N     0.51132   0.91990   0.99921   0.00000  Uiso   1.00
N459   N     0.06382   0.79982   0.67289   0.00000  Uiso   1.00
N460   N     0.44533   0.58346   0.65962   0.00000  Uiso   1.00
C461   C     0.75261   0.11762   0.36020   0.00000  Uiso   1.00
C462   C     0.70700   0.10847   0.40511   0.00000  Uiso   1.00
C463   C     0.68611   0.04471   0.42447   0.00000  Uiso   1.00
C464   C     0.64443   0.04751   0.46572   0.00000  Uiso   1.00
C465   C     0.57662   0.02352   0.53223   0.00000  Uiso   1.00
C466   C     0.69423   0.13393   0.30983   0.00000  Uiso   1.00
C467   C     0.66263   0.09158   0.24907   0.00000  Uiso   1.00
C468   C     0.61020   0.11582   0.21012   0.00000  Uiso   1.00
C469   C     0.52263   0.13137   0.12869   0.00000  Uiso   1.00
C470   C     0.83130   0.19156   0.39227   0.00000  Uiso   1.00
C471   C     0.91494   0.19768   0.40081   0.00000  Uiso   1.00
C472   C     0.97792   0.27046   0.43126   0.00000  Uiso   1.00
C473   C     0.10316   0.37550   0.47783   0.00000  Uiso   1.00
C474   C     0.71571   0.23598   0.39905   0.00000  Uiso   1.00
C475   C     0.68696   0.17276   0.42621   0.00000  Uiso   1.00
C476   C     0.64530   0.17566   0.46746   0.00000  Uiso   1.00
C477   C     0.62436   0.11192   0.48687   0.00000  Uiso   1.00
C478   C     0.67419   0.19821   0.33093   0.00000  Uiso   1.00
C479   C     0.62181   0.22253   0.29206   0.00000  Uiso   1.00
C480   C     0.59013   0.18022   0.23126   0.00000  Uiso   1.00
C481   C     0.81126   0.25585   0.41338   0.00000  Uiso   1.00
C482   C     0.87412   0.32863   0.44381   0.00000  Uiso   1.00
C483   C     0.95785   0.33486   0.45240   0.00000  Uiso   1.00
H484   H     0.76820   0.06757   0.34376   0.00000  Uiso   1.00
H485   H     0.70162   0.99497   0.40812   0.00000  Uiso   1.00
H486   H     0.67815   0.04183   0.23275   0.00000  Uiso   1.00
H487   H     0.93043   0.14792   0.38447   0.00000  Uiso   1.00
H488   H     0.61894   0.94282   0.48876   0.00000  Uiso   1.00
H489   H     0.56947   0.04165   0.11898   0.00000  Uiso   1.00
H490   H     0.10144   0.26536   0.43892   0.00000  Uiso   1.00
H491   H     0.70011   0.28603   0.41548   0.00000  Uiso   1.00
H492   H     0.62980   0.22542   0.48378   0.00000  Uiso   1.00
H493   H     0.60632   0.27228   0.30841   0.00000  Uiso   1.00
H494   H     0.85860   0.37837   0.46013   0.00000  Uiso   1.00
H495   H     0.56064   0.12986   0.55017   0.00000  Uiso   1.00
H496   H     0.51117   0.22869   0.18039   0.00000  Uiso   1.00
H497   H     0.04314   0.45240   0.50033   0.00000  Uiso   1.00
O498   O     0.54474   0.99251   0.56308   0.00000  Uiso   1.00
O499   O     0.47985   0.12219   0.07795   0.00000  Uiso   1.00
O500   O     0.17778   0.41568   0.49770   0.00000  Uiso   1.00
N501   N     0.61489   0.99516   0.49385   0.00000  Uiso   1.00
N502   N     0.56862   0.08756   0.14813   0.00000  Uiso   1.00
N503   N     0.06597   0.29671   0.44723   0.00000  Uiso   1.00
N504   N     0.58352   0.09581   0.52689   0.00000  Uiso   1.00
N505   N     0.53725   0.18820   0.18117   0.00000  Uiso   1.00
N506   N     0.03460   0.39736   0.48027   0.00000  Uiso   1.00
C507   C     0.27847   0.81346   0.39301   0.00000  Uiso   1.00
C508   C     0.26904   0.77036   0.32937   0.00000  Uiso   1.00
C509   C     0.30528   0.80254   0.29211   0.00000  Uiso   1.00
C510   C     0.28904   0.75344   0.23548   0.00000  Uiso   1.00
C511   C     0.28207   0.69847   0.13949   0.00000  Uiso   1.00
C512   C     0.18806   0.79989   0.39276   0.00000  Uiso   1.00
C513   C     0.15623   0.85691   0.40880   0.00000  Uiso   1.00
C514   C     0.07183   0.83266   0.40554   0.00000  Uiso   1.00
C515   C     0.93916   0.82354   0.40801   0.00000  Uiso   1.00
C516   C     0.31438   0.77114   0.43339   0.00000  Uiso   1.00
C517   C     0.38874   0.80398   0.48361   0.00000  Uiso   1.00
C518   C     0.41068   0.75552   0.51457   0.00000  Uiso   1.00
C519   C     0.47413   0.70176   0.58011   0.00000  Uiso   1.00
C520   C     0.18518   0.66903   0.35871   0.00000  Uiso   1.00
C521   C     0.21836   0.69192   0.31074   0.00000  Uiso   1.00
C522   C     0.20207   0.64275   0.25416   0.00000  Uiso   1.00
C523   C     0.23829   0.67485   0.21682   0.00000  Uiso   1.00
C524   C     0.13739   0.72145   0.37413   0.00000  Uiso   1.00
C525   C     0.05302   0.69711   0.37085   0.00000  Uiso   1.00
C526   C     0.02107   0.75407   0.38688   0.00000  Uiso   1.00
C527   C     0.26371   0.69269   0.41476   0.00000  Uiso   1.00
C528   C     0.28553   0.64418   0.44565   0.00000  Uiso   1.00
C529   C     0.35992   0.67694   0.49590   0.00000  Uiso   1.00
H530   H     0.31791   0.87453   0.40752   0.00000  Uiso   1.00
H531   H     0.34448   0.86326   0.30654   0.00000  Uiso   1.00
H532   H     0.19546   0.91761   0.42322   0.00000  Uiso   1.00
H533   H     0.42794   0.86469   0.49801   0.00000  Uiso   1.00
H534   H     0.35157   0.81617   0.18637   0.00000  Uiso   1.00
H535   H     0.03735   0.93077   0.43242   0.00000  Uiso   1.00
H536   H     0.52758   0.81917   0.59012   0.00000  Uiso   1.00
H537   H     0.14573   0.60795   0.34420   0.00000  Uiso   1.00
H538   H     0.16286   0.58205   0.23975   0.00000  Uiso   1.00
H539   H     0.01383   0.63640   0.35643   0.00000  Uiso   1.00
H540   H     0.24631   0.58348   0.43122   0.00000  Uiso   1.00
H541   H     0.20415   0.58793   0.13216   0.00000  Uiso   1.00
H542   H     0.88993   0.70253   0.37821   0.00000  Uiso   1.00
H543   H     0.38016   0.59093   0.53591   0.00000  Uiso   1.00
O544   O     0.29221   0.68982   0.09169   0.00000  Uiso   1.00
O545   O     0.87997   0.84018   0.41450   0.00000  Uiso   1.00
O546   O     0.52314   0.69377   0.62141   0.00000  Uiso   1.00
N547   N     0.31454   0.76600   0.18795   0.00000  Uiso   1.00
N548   N     0.02076   0.87315   0.41798   0.00000  Uiso   1.00
N549   N     0.47907   0.76882   0.56543   0.00000  Uiso   1.00
N550   N     0.23522   0.64319   0.15878   0.00000  Uiso   1.00
N551   N     0.94143   0.75034   0.38881   0.00000  Uiso   1.00
N552   N     0.39974   0.64601   0.53626   0.00000  Uiso   1.00
