data_job_02152
_audit_creation_date              2018-12-19
_audit_creation_method            'Materials Studio'
_symmetry_space_group_name_H-M    'P1'
_symmetry_Int_Tables_number       1
_symmetry_cell_setting            triclinic
loop_
_symmetry_equiv_pos_as_xyz
  x,y,z
_cell_length_a                    12.4356
_cell_length_b                    26.4489
_cell_length_c                    7.2401
_cell_angle_alpha                 90.0000
_cell_angle_beta                  90.0000
_cell_angle_gamma                 90.0000
loop_
_atom_site_label
_atom_site_type_symbol
_atom_site_fract_x
_atom_site_fract_y
_atom_site_fract_z
_atom_site_U_iso_or_equiv
_atom_site_adp_type
_atom_site_occupancy
C1     C     0.72363   0.62777   0.71748   0.00000  Uiso   1.00
C2     C     0.80799   0.61286   0.86032   0.00000  Uiso   1.00
C3     C     0.90458   0.58861   0.82332   0.00000  Uiso   1.00
C4     C     0.97078   0.57825   0.97302   0.00000  Uiso   1.00
C5     C     0.10622   0.55304   0.16742   0.00000  Uiso   1.00
C6     C     0.61905   0.60285   0.77919   0.00000  Uiso   1.00
C7     C     0.55678   0.57019   0.67397   0.00000  Uiso   1.00
C8     C     0.46393   0.55140   0.75539   0.00000  Uiso   1.00
C9     C     0.30600   0.51067   0.82379   0.00000  Uiso   1.00
C10    C     0.70670   0.68453   0.74021   0.00000  Uiso   1.00
C11    C     0.71810   0.72055   0.60221   0.00000  Uiso   1.00
C12    C     0.69901   0.77053   0.65079   0.00000  Uiso   1.00
C13    C     0.67718   0.85663   0.65867   0.00000  Uiso   1.00
C14    C     0.66943   0.65248   0.04913   0.00000  Uiso   1.00
C15    C     0.77854   0.62628   0.04046   0.00000  Uiso   1.00
C16    C     0.84461   0.61596   0.19026   0.00000  Uiso   1.00
C17    C     0.94129   0.59170   0.15349   0.00000  Uiso   1.00
C18    C     0.58961   0.61627   0.95933   0.00000  Uiso   1.00
C19    C     0.49682   0.59753   0.04091   0.00000  Uiso   1.00
C20    C     0.43443   0.56485   0.93585   0.00000  Uiso   1.00
C21    C     0.67726   0.69796   0.92035   0.00000  Uiso   1.00
C22    C     0.65814   0.74789   0.96915   0.00000  Uiso   1.00
C23    C     0.66952   0.78398   0.83126   0.00000  Uiso   1.00
H24    H     0.74654   0.61731   0.57723   0.00000  Uiso   1.00
H25    H     0.92733   0.57823   0.68389   0.00000  Uiso   1.00
H26    H     0.57958   0.55981   0.53457   0.00000  Uiso   1.00
H27    H     0.74089   0.71015   0.46282   0.00000  Uiso   1.00
H28    H     0.11477   0.54079   0.88160   0.00000  Uiso   1.00
H29    H     0.38150   0.50197   0.56672   0.00000  Uiso   1.00
H30    H     0.72163   0.81899   0.41541   0.00000  Uiso   1.00
H31    H     0.64650   0.66294   0.18939   0.00000  Uiso   1.00
H32    H     0.82181   0.62635   0.32965   0.00000  Uiso   1.00
H33    H     0.47406   0.60793   0.18032   0.00000  Uiso   1.00
H34    H     0.63536   0.75827   0.10857   0.00000  Uiso   1.00
H35    H     0.02912   0.57985   0.40572   0.00000  Uiso   1.00
H36    H     0.29585   0.54103   0.09083   0.00000  Uiso   1.00
H37    H     0.63598   0.85805   0.93953   0.00000  Uiso   1.00
O38    O     0.18905   0.53541   0.22489   0.00000  Uiso   1.00
O39    O     0.22703   0.48449   0.81175   0.00000  Uiso   1.00
O40    O     0.67328   0.90041   0.61326   0.00000  Uiso   1.00
N41    N     0.07056   0.55501   0.98570   0.00000  Uiso   1.00
N42    N     0.38501   0.51871   0.69131   0.00000  Uiso   1.00
N43    N     0.70298   0.81510   0.54984   0.00000  Uiso   1.00
N44    N     0.02448   0.57603   0.26772   0.00000  Uiso   1.00
N45    N     0.33892   0.53973   0.97333   0.00000  Uiso   1.00
N46    N     0.65689   0.83611   0.83187   0.00000  Uiso   1.00
C47    C     0.27637   0.37223   0.21748   0.00000  Uiso   1.00
C48    C     0.19201   0.38714   0.36032   0.00000  Uiso   1.00
C49    C     0.09542   0.41139   0.32332   0.00000  Uiso   1.00
C50    C     0.02922   0.42175   0.47302   0.00000  Uiso   1.00
C51    C     0.89378   0.44696   0.66742   0.00000  Uiso   1.00
C52    C     0.38095   0.39715   0.27919   0.00000  Uiso   1.00
C53    C     0.44322   0.42981   0.17397   0.00000  Uiso   1.00
C54    C     0.53607   0.44860   0.25539   0.00000  Uiso   1.00
C55    C     0.69400   0.48933   0.32379   0.00000  Uiso   1.00
C56    C     0.29330   0.31547   0.24021   0.00000  Uiso   1.00
C57    C     0.28190   0.27945   0.10221   0.00000  Uiso   1.00
C58    C     0.30099   0.22947   0.15079   0.00000  Uiso   1.00
C59    C     0.32282   0.14337   0.15867   0.00000  Uiso   1.00
C60    C     0.33057   0.34752   0.54913   0.00000  Uiso   1.00
C61    C     0.22146   0.37372   0.54046   0.00000  Uiso   1.00
C62    C     0.15539   0.38404   0.69026   0.00000  Uiso   1.00
C63    C     0.05871   0.40830   0.65349   0.00000  Uiso   1.00
C64    C     0.41039   0.38373   0.45933   0.00000  Uiso   1.00
C65    C     0.50318   0.40247   0.54091   0.00000  Uiso   1.00
C66    C     0.56557   0.43515   0.43585   0.00000  Uiso   1.00
C67    C     0.32274   0.30204   0.42035   0.00000  Uiso   1.00
C68    C     0.34186   0.25211   0.46915   0.00000  Uiso   1.00
C69    C     0.33048   0.21602   0.33126   0.00000  Uiso   1.00
H70    H     0.25346   0.38269   0.07723   0.00000  Uiso   1.00
H71    H     0.07267   0.42177   0.18389   0.00000  Uiso   1.00
H72    H     0.42042   0.44019   0.03457   0.00000  Uiso   1.00
H73    H     0.25911   0.28985   0.96282   0.00000  Uiso   1.00
H74    H     0.88523   0.45921   0.38160   0.00000  Uiso   1.00
H75    H     0.61850   0.49803   0.06672   0.00000  Uiso   1.00
H76    H     0.27837   0.18101   0.91541   0.00000  Uiso   1.00
H77    H     0.35350   0.33706   0.68939   0.00000  Uiso   1.00
H78    H     0.17819   0.37365   0.82965   0.00000  Uiso   1.00
H79    H     0.52594   0.39207   0.68032   0.00000  Uiso   1.00
H80    H     0.36464   0.24173   0.60857   0.00000  Uiso   1.00
H81    H     0.97088   0.42015   0.90572   0.00000  Uiso   1.00
H82    H     0.70415   0.45897   0.59083   0.00000  Uiso   1.00
H83    H     0.36402   0.14195   0.43953   0.00000  Uiso   1.00
O84    O     0.81095   0.46459   0.72489   0.00000  Uiso   1.00
O85    O     0.77297   0.51551   0.31175   0.00000  Uiso   1.00
O86    O     0.32672   0.09959   0.11326   0.00000  Uiso   1.00
N87    N     0.92944   0.44499   0.48570   0.00000  Uiso   1.00
N88    N     0.61499   0.48129   0.19131   0.00000  Uiso   1.00
N89    N     0.29702   0.18490   0.04984   0.00000  Uiso   1.00
N90    N     0.97552   0.42397   0.76772   0.00000  Uiso   1.00
N91    N     0.66108   0.46027   0.47333   0.00000  Uiso   1.00
N92    N     0.34311   0.16389   0.33187   0.00000  Uiso   1.00
C93    C     0.22363   0.87223   0.71748   0.00000  Uiso   1.00
C94    C     0.30799   0.88714   0.86032   0.00000  Uiso   1.00
C95    C     0.40458   0.91139   0.82332   0.00000  Uiso   1.00
C96    C     0.47078   0.92175   0.97302   0.00000  Uiso   1.00
C97    C     0.60622   0.94696   0.16742   0.00000  Uiso   1.00
C98    C     0.11905   0.89715   0.77919   0.00000  Uiso   1.00
C99    C     0.05678   0.92981   0.67397   0.00000  Uiso   1.00
C100   C     0.96393   0.94860   0.75539   0.00000  Uiso   1.00
C101   C     0.80600   0.98933   0.82379   0.00000  Uiso   1.00
C102   C     0.20670   0.81547   0.74021   0.00000  Uiso   1.00
C103   C     0.21810   0.77945   0.60221   0.00000  Uiso   1.00
C104   C     0.19901   0.72947   0.65079   0.00000  Uiso   1.00
C105   C     0.17718   0.64337   0.65867   0.00000  Uiso   1.00
C106   C     0.16943   0.84752   0.04913   0.00000  Uiso   1.00
C107   C     0.27854   0.87372   0.04046   0.00000  Uiso   1.00
C108   C     0.34461   0.88404   0.19026   0.00000  Uiso   1.00
C109   C     0.44129   0.90830   0.15349   0.00000  Uiso   1.00
C110   C     0.08961   0.88373   0.95933   0.00000  Uiso   1.00
C111   C     0.99682   0.90247   0.04091   0.00000  Uiso   1.00
C112   C     0.93443   0.93515   0.93585   0.00000  Uiso   1.00
C113   C     0.17726   0.80204   0.92035   0.00000  Uiso   1.00
C114   C     0.15814   0.75211   0.96915   0.00000  Uiso   1.00
C115   C     0.16952   0.71602   0.83126   0.00000  Uiso   1.00
H116   H     0.24654   0.88269   0.57723   0.00000  Uiso   1.00
H117   H     0.42733   0.92177   0.68389   0.00000  Uiso   1.00
H118   H     0.07958   0.94019   0.53457   0.00000  Uiso   1.00
H119   H     0.24089   0.78985   0.46282   0.00000  Uiso   1.00
H120   H     0.61477   0.95921   0.88160   0.00000  Uiso   1.00
H121   H     0.88150   0.99803   0.56672   0.00000  Uiso   1.00
H122   H     0.22163   0.68101   0.41541   0.00000  Uiso   1.00
H123   H     0.14650   0.83706   0.18939   0.00000  Uiso   1.00
H124   H     0.32181   0.87365   0.32965   0.00000  Uiso   1.00
H125   H     0.97406   0.89207   0.18032   0.00000  Uiso   1.00
H126   H     0.13536   0.74173   0.10857   0.00000  Uiso   1.00
H127   H     0.52912   0.92015   0.40572   0.00000  Uiso   1.00
H128   H     0.79585   0.95897   0.09083   0.00000  Uiso   1.00
H129   H     0.13598   0.64195   0.93953   0.00000  Uiso   1.00
O130   O     0.68905   0.96459   0.22489   0.00000  Uiso   1.00
O131   O     0.72703   0.01551   0.81175   0.00000  Uiso   1.00
O132   O     0.17328   0.59959   0.61326   0.00000  Uiso   1.00
N133   N     0.57056   0.94499   0.98570   0.00000  Uiso   1.00
N134   N     0.88501   0.98129   0.69131   0.00000  Uiso   1.00
N135   N     0.20298   0.68490   0.54984   0.00000  Uiso   1.00
N136   N     0.52448   0.92397   0.26772   0.00000  Uiso   1.00
N137   N     0.83892   0.96027   0.97333   0.00000  Uiso   1.00
N138   N     0.15689   0.66389   0.83187   0.00000  Uiso   1.00
C139   C     0.77637   0.12777   0.21748   0.00000  Uiso   1.00
C140   C     0.69201   0.11286   0.36032   0.00000  Uiso   1.00
C141   C     0.59542   0.08861   0.32332   0.00000  Uiso   1.00
C142   C     0.52922   0.07825   0.47302   0.00000  Uiso   1.00
C143   C     0.39378   0.05304   0.66742   0.00000  Uiso   1.00
C144   C     0.88095   0.10285   0.27919   0.00000  Uiso   1.00
C145   C     0.94322   0.07019   0.17397   0.00000  Uiso   1.00
C146   C     0.03607   0.05140   0.25539   0.00000  Uiso   1.00
C147   C     0.19400   0.01067   0.32379   0.00000  Uiso   1.00
C148   C     0.79330   0.18453   0.24021   0.00000  Uiso   1.00
C149   C     0.78190   0.22055   0.10221   0.00000  Uiso   1.00
C150   C     0.80099   0.27053   0.15079   0.00000  Uiso   1.00
C151   C     0.82282   0.35663   0.15867   0.00000  Uiso   1.00
C152   C     0.83057   0.15248   0.54913   0.00000  Uiso   1.00
C153   C     0.72146   0.12628   0.54046   0.00000  Uiso   1.00
C154   C     0.65539   0.11596   0.69026   0.00000  Uiso   1.00
C155   C     0.55871   0.09170   0.65349   0.00000  Uiso   1.00
C156   C     0.91039   0.11627   0.45933   0.00000  Uiso   1.00
C157   C     0.00318   0.09753   0.54091   0.00000  Uiso   1.00
C158   C     0.06557   0.06485   0.43585   0.00000  Uiso   1.00
C159   C     0.82274   0.19796   0.42035   0.00000  Uiso   1.00
C160   C     0.84186   0.24789   0.46915   0.00000  Uiso   1.00
C161   C     0.83048   0.28398   0.33126   0.00000  Uiso   1.00
H162   H     0.75346   0.11731   0.07723   0.00000  Uiso   1.00
H163   H     0.57267   0.07823   0.18389   0.00000  Uiso   1.00
H164   H     0.92042   0.05981   0.03457   0.00000  Uiso   1.00
H165   H     0.75911   0.21015   0.96282   0.00000  Uiso   1.00
H166   H     0.38523   0.04079   0.38160   0.00000  Uiso   1.00
H167   H     0.11850   0.00197   0.06672   0.00000  Uiso   1.00
H168   H     0.77837   0.31899   0.91541   0.00000  Uiso   1.00
H169   H     0.85350   0.16294   0.68939   0.00000  Uiso   1.00
H170   H     0.67819   0.12635   0.82965   0.00000  Uiso   1.00
H171   H     0.02594   0.10793   0.68032   0.00000  Uiso   1.00
H172   H     0.86464   0.25827   0.60857   0.00000  Uiso   1.00
H173   H     0.47088   0.07985   0.90572   0.00000  Uiso   1.00
H174   H     0.20415   0.04103   0.59083   0.00000  Uiso   1.00
H175   H     0.86402   0.35805   0.43953   0.00000  Uiso   1.00
O176   O     0.31095   0.03541   0.72489   0.00000  Uiso   1.00
O177   O     0.27297   0.98449   0.31175   0.00000  Uiso   1.00
O178   O     0.82672   0.40041   0.11326   0.00000  Uiso   1.00
N179   N     0.42944   0.05501   0.48570   0.00000  Uiso   1.00
N180   N     0.11499   0.01871   0.19131   0.00000  Uiso   1.00
N181   N     0.79702   0.31510   0.04984   0.00000  Uiso   1.00
N182   N     0.47552   0.07603   0.76772   0.00000  Uiso   1.00
N183   N     0.16108   0.03973   0.47333   0.00000  Uiso   1.00
N184   N     0.84311   0.33611   0.33187   0.00000  Uiso   1.00
