data_job_00853
_audit_creation_date              2018-12-19
_audit_creation_method            'Materials Studio'
_symmetry_space_group_name_H-M    'P1'
_symmetry_Int_Tables_number       1
_symmetry_cell_setting            triclinic
loop_
_symmetry_equiv_pos_as_xyz
  x,y,z
_cell_length_a                    14.7400
_cell_length_b                    19.7775
_cell_length_c                    8.6874
_cell_angle_alpha                 90.0000
_cell_angle_beta                  90.0000
_cell_angle_gamma                 90.0000
loop_
_atom_site_label
_atom_site_type_symbol
_atom_site_fract_x
_atom_site_fract_y
_atom_site_fract_z
_atom_site_U_iso_or_equiv
_atom_site_adp_type
_atom_site_occupancy
C1     C     0.31331   0.57261   0.79956   0.00000  Uiso   1.00
C2     C     0.22146   0.60628   0.82511   0.00000  Uiso   1.00
C3     C     0.19871   0.64763   0.94825   0.00000  Uiso   1.00
C4     C     0.11117   0.67351   0.95072   0.00000  Uiso   1.00
C5     C     0.97804   0.72804   0.00815   0.00000  Uiso   1.00
C6     C     0.29429   0.49708   0.78544   0.00000  Uiso   1.00
C7     C     0.33279   0.44662   0.87523   0.00000  Uiso   1.00
C8     C     0.30656   0.38058   0.84428   0.00000  Uiso   1.00
C9     C     0.28655   0.26556   0.84007   0.00000  Uiso   1.00
C10    C     0.34535   0.59558   0.64107   0.00000  Uiso   1.00
C11    C     0.42680   0.62794   0.60945   0.00000  Uiso   1.00
C12    C     0.44357   0.64482   0.45695   0.00000  Uiso   1.00
C13    C     0.50285   0.68275   0.22858   0.00000  Uiso   1.00
C14    C     0.19829   0.54504   0.58495   0.00000  Uiso   1.00
C15    C     0.15899   0.59130   0.70854   0.00000  Uiso   1.00
C16    C     0.07146   0.61713   0.71081   0.00000  Uiso   1.00
C17    C     0.04858   0.65851   0.83394   0.00000  Uiso   1.00
C18    C     0.23182   0.48210   0.66888   0.00000  Uiso   1.00
C19    C     0.20553   0.41612   0.63779   0.00000  Uiso   1.00
C20    C     0.24397   0.36557   0.72751   0.00000  Uiso   1.00
C21    C     0.28288   0.58061   0.52450   0.00000  Uiso   1.00
C22    C     0.29954   0.59743   0.37202   0.00000  Uiso   1.00
C23    C     0.38099   0.62981   0.34017   0.00000  Uiso   1.00
H24    H     0.36195   0.58427   0.89031   0.00000  Uiso   1.00
H25    H     0.24708   0.65920   0.03845   0.00000  Uiso   1.00
H26    H     0.38114   0.45823   0.96542   0.00000  Uiso   1.00
H27    H     0.47513   0.63952   0.69969   0.00000  Uiso   1.00
H28    H     0.09216   0.73566   0.15130   0.00000  Uiso   1.00
H29    H     0.37486   0.31189   0.99728   0.00000  Uiso   1.00
H30    H     0.57305   0.69417   0.43694   0.00000  Uiso   1.00
H31    H     0.14965   0.53338   0.49420   0.00000  Uiso   1.00
H32    H     0.02313   0.60553   0.62059   0.00000  Uiso   1.00
H33    H     0.15719   0.40455   0.54757   0.00000  Uiso   1.00
H34    H     0.25118   0.58584   0.28184   0.00000  Uiso   1.00
H35    H     0.91039   0.69209   0.81216   0.00000  Uiso   1.00
H36    H     0.19309   0.26831   0.65814   0.00000  Uiso   1.00
H37    H     0.39129   0.65060   0.09780   0.00000  Uiso   1.00
O38    O     0.92186   0.76224   0.07205   0.00000  Uiso   1.00
O39    O     0.29277   0.20626   0.86996   0.00000  Uiso   1.00
O40    O     0.55279   0.70781   0.13481   0.00000  Uiso   1.00
N41    N     0.06675   0.71552   0.05412   0.00000  Uiso   1.00
N42    N     0.33104   0.31931   0.91014   0.00000  Uiso   1.00
N43    N     0.51635   0.67670   0.38626   0.00000  Uiso   1.00
N44    N     0.96894   0.69207   0.87163   0.00000  Uiso   1.00
N45    N     0.23324   0.29587   0.72765   0.00000  Uiso   1.00
N46    N     0.41855   0.65326   0.20377   0.00000  Uiso   1.00
C47    C     0.68669   0.42739   0.79956   0.00000  Uiso   1.00
C48    C     0.77854   0.39372   0.82511   0.00000  Uiso   1.00
C49    C     0.80129   0.35237   0.94825   0.00000  Uiso   1.00
C50    C     0.88883   0.32649   0.95072   0.00000  Uiso   1.00
C51    C     0.02196   0.27196   0.00815   0.00000  Uiso   1.00
C52    C     0.70571   0.50292   0.78544   0.00000  Uiso   1.00
C53    C     0.66721   0.55338   0.87523   0.00000  Uiso   1.00
C54    C     0.69344   0.61942   0.84428   0.00000  Uiso   1.00
C55    C     0.71345   0.73444   0.84007   0.00000  Uiso   1.00
C56    C     0.65465   0.40442   0.64107   0.00000  Uiso   1.00
C57    C     0.57320   0.37206   0.60945   0.00000  Uiso   1.00
C58    C     0.55643   0.35518   0.45695   0.00000  Uiso   1.00
C59    C     0.49715   0.31725   0.22858   0.00000  Uiso   1.00
C60    C     0.80171   0.45496   0.58495   0.00000  Uiso   1.00
C61    C     0.84101   0.40870   0.70854   0.00000  Uiso   1.00
C62    C     0.92854   0.38287   0.71081   0.00000  Uiso   1.00
C63    C     0.95142   0.34149   0.83394   0.00000  Uiso   1.00
C64    C     0.76818   0.51790   0.66888   0.00000  Uiso   1.00
C65    C     0.79447   0.58388   0.63779   0.00000  Uiso   1.00
C66    C     0.75603   0.63443   0.72751   0.00000  Uiso   1.00
C67    C     0.71712   0.41939   0.52450   0.00000  Uiso   1.00
C68    C     0.70046   0.40257   0.37202   0.00000  Uiso   1.00
C69    C     0.61901   0.37019   0.34017   0.00000  Uiso   1.00
H70    H     0.63805   0.41573   0.89031   0.00000  Uiso   1.00
H71    H     0.75292   0.34080   0.03845   0.00000  Uiso   1.00
H72    H     0.61886   0.54177   0.96542   0.00000  Uiso   1.00
H73    H     0.52487   0.36048   0.69969   0.00000  Uiso   1.00
H74    H     0.90784   0.26434   0.15130   0.00000  Uiso   1.00
H75    H     0.62514   0.68811   0.99728   0.00000  Uiso   1.00
H76    H     0.42695   0.30583   0.43694   0.00000  Uiso   1.00
H77    H     0.85035   0.46662   0.49420   0.00000  Uiso   1.00
H78    H     0.97687   0.39447   0.62059   0.00000  Uiso   1.00
H79    H     0.84281   0.59545   0.54757   0.00000  Uiso   1.00
H80    H     0.74882   0.41416   0.28184   0.00000  Uiso   1.00
H81    H     0.08961   0.30791   0.81216   0.00000  Uiso   1.00
H82    H     0.80691   0.73169   0.65814   0.00000  Uiso   1.00
H83    H     0.60871   0.34940   0.09780   0.00000  Uiso   1.00
O84    O     0.07814   0.23776   0.07205   0.00000  Uiso   1.00
O85    O     0.70723   0.79374   0.86996   0.00000  Uiso   1.00
O86    O     0.44721   0.29219   0.13481   0.00000  Uiso   1.00
N87    N     0.93325   0.28448   0.05412   0.00000  Uiso   1.00
N88    N     0.66896   0.68069   0.91014   0.00000  Uiso   1.00
N89    N     0.48365   0.32330   0.38626   0.00000  Uiso   1.00
N90    N     0.03106   0.30793   0.87163   0.00000  Uiso   1.00
N91    N     0.76676   0.70413   0.72765   0.00000  Uiso   1.00
N92    N     0.58145   0.34674   0.20377   0.00000  Uiso   1.00
C93    C     0.31331   0.92739   0.29956   0.00000  Uiso   1.00
C94    C     0.22146   0.89372   0.32511   0.00000  Uiso   1.00
C95    C     0.19871   0.85237   0.44825   0.00000  Uiso   1.00
C96    C     0.11117   0.82649   0.45072   0.00000  Uiso   1.00
C97    C     0.97804   0.77196   0.50815   0.00000  Uiso   1.00
C98    C     0.29429   0.00292   0.28544   0.00000  Uiso   1.00
C99    C     0.33279   0.05338   0.37523   0.00000  Uiso   1.00
C100   C     0.30656   0.11942   0.34428   0.00000  Uiso   1.00
C101   C     0.28655   0.23444   0.34007   0.00000  Uiso   1.00
C102   C     0.34535   0.90442   0.14107   0.00000  Uiso   1.00
C103   C     0.42680   0.87206   0.10945   0.00000  Uiso   1.00
C104   C     0.44357   0.85518   0.95695   0.00000  Uiso   1.00
C105   C     0.50285   0.81725   0.72858   0.00000  Uiso   1.00
C106   C     0.19829   0.95496   0.08495   0.00000  Uiso   1.00
C107   C     0.15899   0.90870   0.20854   0.00000  Uiso   1.00
C108   C     0.07146   0.88287   0.21081   0.00000  Uiso   1.00
C109   C     0.04858   0.84149   0.33394   0.00000  Uiso   1.00
C110   C     0.23182   0.01790   0.16888   0.00000  Uiso   1.00
C111   C     0.20553   0.08388   0.13779   0.00000  Uiso   1.00
C112   C     0.24397   0.13443   0.22751   0.00000  Uiso   1.00
C113   C     0.28288   0.91939   0.02450   0.00000  Uiso   1.00
C114   C     0.29954   0.90257   0.87202   0.00000  Uiso   1.00
C115   C     0.38099   0.87019   0.84017   0.00000  Uiso   1.00
H116   H     0.36195   0.91573   0.39031   0.00000  Uiso   1.00
H117   H     0.24708   0.84080   0.53845   0.00000  Uiso   1.00
H118   H     0.38114   0.04177   0.46542   0.00000  Uiso   1.00
H119   H     0.47513   0.86048   0.19969   0.00000  Uiso   1.00
H120   H     0.09216   0.76434   0.65130   0.00000  Uiso   1.00
H121   H     0.37486   0.18811   0.49728   0.00000  Uiso   1.00
H122   H     0.57305   0.80583   0.93694   0.00000  Uiso   1.00
H123   H     0.14965   0.96662   0.99420   0.00000  Uiso   1.00
H124   H     0.02313   0.89447   0.12059   0.00000  Uiso   1.00
H125   H     0.15719   0.09545   0.04757   0.00000  Uiso   1.00
H126   H     0.25118   0.91416   0.78184   0.00000  Uiso   1.00
H127   H     0.91039   0.80791   0.31216   0.00000  Uiso   1.00
H128   H     0.19309   0.23169   0.15814   0.00000  Uiso   1.00
H129   H     0.39129   0.84940   0.59780   0.00000  Uiso   1.00
O130   O     0.92186   0.73776   0.57205   0.00000  Uiso   1.00
O131   O     0.29277   0.29374   0.36996   0.00000  Uiso   1.00
O132   O     0.55279   0.79219   0.63481   0.00000  Uiso   1.00
N133   N     0.06675   0.78448   0.55412   0.00000  Uiso   1.00
N134   N     0.33104   0.18069   0.41014   0.00000  Uiso   1.00
N135   N     0.51635   0.82330   0.88626   0.00000  Uiso   1.00
N136   N     0.96894   0.80793   0.37163   0.00000  Uiso   1.00
N137   N     0.23324   0.20413   0.22765   0.00000  Uiso   1.00
N138   N     0.41855   0.84674   0.70377   0.00000  Uiso   1.00
C139   C     0.68669   0.07261   0.29956   0.00000  Uiso   1.00
C140   C     0.77854   0.10628   0.32511   0.00000  Uiso   1.00
C141   C     0.80129   0.14763   0.44825   0.00000  Uiso   1.00
C142   C     0.88883   0.17351   0.45072   0.00000  Uiso   1.00
C143   C     0.02196   0.22804   0.50815   0.00000  Uiso   1.00
C144   C     0.70571   0.99708   0.28544   0.00000  Uiso   1.00
C145   C     0.66721   0.94662   0.37523   0.00000  Uiso   1.00
C146   C     0.69344   0.88058   0.34428   0.00000  Uiso   1.00
C147   C     0.71345   0.76556   0.34007   0.00000  Uiso   1.00
C148   C     0.65465   0.09558   0.14107   0.00000  Uiso   1.00
C149   C     0.57320   0.12794   0.10945   0.00000  Uiso   1.00
C150   C     0.55643   0.14482   0.95695   0.00000  Uiso   1.00
C151   C     0.49715   0.18275   0.72858   0.00000  Uiso   1.00
C152   C     0.80171   0.04504   0.08495   0.00000  Uiso   1.00
C153   C     0.84101   0.09130   0.20854   0.00000  Uiso   1.00
C154   C     0.92854   0.11713   0.21081   0.00000  Uiso   1.00
C155   C     0.95142   0.15851   0.33394   0.00000  Uiso   1.00
C156   C     0.76818   0.98210   0.16888   0.00000  Uiso   1.00
C157   C     0.79447   0.91612   0.13779   0.00000  Uiso   1.00
C158   C     0.75603   0.86557   0.22751   0.00000  Uiso   1.00
C159   C     0.71712   0.08061   0.02450   0.00000  Uiso   1.00
C160   C     0.70046   0.09743   0.87202   0.00000  Uiso   1.00
C161   C     0.61901   0.12981   0.84017   0.00000  Uiso   1.00
H162   H     0.63805   0.08427   0.39031   0.00000  Uiso   1.00
H163   H     0.75292   0.15920   0.53845   0.00000  Uiso   1.00
H164   H     0.61886   0.95823   0.46542   0.00000  Uiso   1.00
H165   H     0.52487   0.13952   0.19969   0.00000  Uiso   1.00
H166   H     0.90784   0.23566   0.65130   0.00000  Uiso   1.00
H167   H     0.62514   0.81189   0.49728   0.00000  Uiso   1.00
H168   H     0.42695   0.19417   0.93694   0.00000  Uiso   1.00
H169   H     0.85035   0.03338   0.99420   0.00000  Uiso   1.00
H170   H     0.97687   0.10553   0.12059   0.00000  Uiso   1.00
H171   H     0.84281   0.90455   0.04757   0.00000  Uiso   1.00
H172   H     0.74882   0.08584   0.78184   0.00000  Uiso   1.00
H173   H     0.08961   0.19209   0.31216   0.00000  Uiso   1.00
H174   H     0.80691   0.76831   0.15814   0.00000  Uiso   1.00
H175   H     0.60871   0.15060   0.59780   0.00000  Uiso   1.00
O176   O     0.07814   0.26224   0.57205   0.00000  Uiso   1.00
O177   O     0.70723   0.70626   0.36996   0.00000  Uiso   1.00
O178   O     0.44721   0.20781   0.63481   0.00000  Uiso   1.00
N179   N     0.93325   0.21552   0.55412   0.00000  Uiso   1.00
N180   N     0.66896   0.81931   0.41014   0.00000  Uiso   1.00
N181   N     0.48365   0.17670   0.88626   0.00000  Uiso   1.00
N182   N     0.03106   0.19207   0.37163   0.00000  Uiso   1.00
N183   N     0.76676   0.79587   0.22765   0.00000  Uiso   1.00
N184   N     0.58145   0.15326   0.70377   0.00000  Uiso   1.00
