data_job_00511
_audit_creation_date              2018-12-19
_audit_creation_method            'Materials Studio'
_symmetry_space_group_name_H-M    'P1'
_symmetry_Int_Tables_number       1
_symmetry_cell_setting            triclinic
loop_
_symmetry_equiv_pos_as_xyz
  x,y,z
_cell_length_a                    28.7326
_cell_length_b                    7.4003
_cell_length_c                    11.4072
_cell_angle_alpha                 90.0000
_cell_angle_beta                  111.2750
_cell_angle_gamma                 90.0000
loop_
_atom_site_label
_atom_site_type_symbol
_atom_site_fract_x
_atom_site_fract_y
_atom_site_fract_z
_atom_site_U_iso_or_equiv
_atom_site_adp_type
_atom_site_occupancy
C1     C     0.85151   0.72941   0.74735   0.00000  Uiso   1.00
C2     C     0.87512   0.61440   0.67283   0.00000  Uiso   1.00
C3     C     0.88346   0.66854   0.56564   0.00000  Uiso   1.00
C4     C     0.90548   0.54343   0.51123   0.00000  Uiso   1.00
C5     C     0.94010   0.39112   0.38771   0.00000  Uiso   1.00
C6     C     0.80687   0.62196   0.75162   0.00000  Uiso   1.00
C7     C     0.75784   0.68248   0.71070   0.00000  Uiso   1.00
C8     C     0.72241   0.56373   0.72265   0.00000  Uiso   1.00
C9     C     0.65108   0.42322   0.72155   0.00000  Uiso   1.00
C10    C     0.88918   0.73363   0.88201   0.00000  Uiso   1.00
C11    C     0.90934   0.88803   0.95073   0.00000  Uiso   1.00
C12    C     0.94320   0.86329   0.07246   0.00000  Uiso   1.00
C13    C     0.99967   0.89615   0.27380   0.00000  Uiso   1.00
C14    C     0.87578   0.41094   0.84135   0.00000  Uiso   1.00
C15    C     0.88830   0.44142   0.72389   0.00000  Uiso   1.00
C16    C     0.91031   0.31619   0.66963   0.00000  Uiso   1.00
C17    C     0.91869   0.37014   0.56238   0.00000  Uiso   1.00
C18    C     0.82005   0.44899   0.80268   0.00000  Uiso   1.00
C19    C     0.78468   0.33013   0.81470   0.00000  Uiso   1.00
C20    C     0.73561   0.39044   0.77379   0.00000  Uiso   1.00
C21    C     0.90236   0.56065   0.93307   0.00000  Uiso   1.00
C22    C     0.93619   0.53567   0.05472   0.00000  Uiso   1.00
C23    C     0.95640   0.69000   0.12361   0.00000  Uiso   1.00
H24    H     0.84125   0.86408   0.70760   0.00000  Uiso   1.00
H25    H     0.87325   0.80242   0.52615   0.00000  Uiso   1.00
H26    H     0.74765   0.81635   0.67121   0.00000  Uiso   1.00
H27    H     0.89913   0.02186   0.91119   0.00000  Uiso   1.00
H28    H     0.91453   0.65774   0.34746   0.00000  Uiso   1.00
H29    H     0.64969   0.68715   0.65336   0.00000  Uiso   1.00
H30    H     0.96912   0.12051   0.15941   0.00000  Uiso   1.00
H31    H     0.88604   0.27627   0.88110   0.00000  Uiso   1.00
H32    H     0.92051   0.18234   0.70916   0.00000  Uiso   1.00
H33    H     0.79490   0.19628   0.85422   0.00000  Uiso   1.00
H34    H     0.94638   0.40179   0.09420   0.00000  Uiso   1.00
H35    H     0.95288   0.15446   0.49600   0.00000  Uiso   1.00
H36    H     0.68804   0.18387   0.80190   0.00000  Uiso   1.00
H37    H     0.00747   0.61723   0.30795   0.00000  Uiso   1.00
O38    O     0.95555   0.35489   0.30547   0.00000  Uiso   1.00
O39    O     0.60809   0.39350   0.70682   0.00000  Uiso   1.00
O40    O     0.02718   0.96206   0.37074   0.00000  Uiso   1.00
N41    N     0.91884   0.55219   0.40603   0.00000  Uiso   1.00
N42    N     0.67122   0.57968   0.69201   0.00000  Uiso   1.00
N43    N     0.96985   0.98484   0.16514   0.00000  Uiso   1.00
N44    N     0.93947   0.28138   0.48596   0.00000  Uiso   1.00
N45    N     0.69186   0.30887   0.77194   0.00000  Uiso   1.00
N46    N     0.99049   0.71403   0.24507   0.00000  Uiso   1.00
C47    C     0.35151   0.22941   0.74735   0.00000  Uiso   1.00
C48    C     0.37512   0.11440   0.67283   0.00000  Uiso   1.00
C49    C     0.38346   0.16854   0.56564   0.00000  Uiso   1.00
C50    C     0.40548   0.04343   0.51123   0.00000  Uiso   1.00
C51    C     0.44010   0.89112   0.38771   0.00000  Uiso   1.00
C52    C     0.30687   0.12196   0.75162   0.00000  Uiso   1.00
C53    C     0.25784   0.18248   0.71070   0.00000  Uiso   1.00
C54    C     0.22241   0.06373   0.72265   0.00000  Uiso   1.00
C55    C     0.15108   0.92322   0.72155   0.00000  Uiso   1.00
C56    C     0.38918   0.23363   0.88201   0.00000  Uiso   1.00
C57    C     0.40934   0.38803   0.95073   0.00000  Uiso   1.00
C58    C     0.44320   0.36329   0.07246   0.00000  Uiso   1.00
C59    C     0.49967   0.39615   0.27380   0.00000  Uiso   1.00
C60    C     0.37578   0.91094   0.84135   0.00000  Uiso   1.00
C61    C     0.38830   0.94142   0.72389   0.00000  Uiso   1.00
C62    C     0.41031   0.81619   0.66963   0.00000  Uiso   1.00
C63    C     0.41869   0.87014   0.56238   0.00000  Uiso   1.00
C64    C     0.32005   0.94899   0.80268   0.00000  Uiso   1.00
C65    C     0.28468   0.83013   0.81470   0.00000  Uiso   1.00
C66    C     0.23561   0.89044   0.77379   0.00000  Uiso   1.00
C67    C     0.40236   0.06065   0.93307   0.00000  Uiso   1.00
C68    C     0.43619   0.03567   0.05472   0.00000  Uiso   1.00
C69    C     0.45640   0.19000   0.12361   0.00000  Uiso   1.00
H70    H     0.34125   0.36408   0.70760   0.00000  Uiso   1.00
H71    H     0.37325   0.30242   0.52615   0.00000  Uiso   1.00
H72    H     0.24765   0.31635   0.67121   0.00000  Uiso   1.00
H73    H     0.39913   0.52186   0.91119   0.00000  Uiso   1.00
H74    H     0.41453   0.15774   0.34746   0.00000  Uiso   1.00
H75    H     0.14969   0.18715   0.65336   0.00000  Uiso   1.00
H76    H     0.46912   0.62051   0.15941   0.00000  Uiso   1.00
H77    H     0.38604   0.77627   0.88110   0.00000  Uiso   1.00
H78    H     0.42051   0.68234   0.70916   0.00000  Uiso   1.00
H79    H     0.29490   0.69628   0.85422   0.00000  Uiso   1.00
H80    H     0.44638   0.90179   0.09420   0.00000  Uiso   1.00
H81    H     0.45288   0.65446   0.49600   0.00000  Uiso   1.00
H82    H     0.18804   0.68387   0.80190   0.00000  Uiso   1.00
H83    H     0.50747   0.11723   0.30795   0.00000  Uiso   1.00
O84    O     0.45555   0.85489   0.30547   0.00000  Uiso   1.00
O85    O     0.10809   0.89350   0.70682   0.00000  Uiso   1.00
O86    O     0.52718   0.46206   0.37074   0.00000  Uiso   1.00
N87    N     0.41884   0.05219   0.40603   0.00000  Uiso   1.00
N88    N     0.17122   0.07968   0.69201   0.00000  Uiso   1.00
N89    N     0.46985   0.48484   0.16514   0.00000  Uiso   1.00
N90    N     0.43947   0.78138   0.48596   0.00000  Uiso   1.00
N91    N     0.19186   0.80887   0.77194   0.00000  Uiso   1.00
N92    N     0.49049   0.21403   0.24507   0.00000  Uiso   1.00
C93    C     0.14849   0.72941   0.25265   0.00000  Uiso   1.00
C94    C     0.12488   0.61440   0.32717   0.00000  Uiso   1.00
C95    C     0.11654   0.66854   0.43436   0.00000  Uiso   1.00
C96    C     0.09452   0.54343   0.48877   0.00000  Uiso   1.00
C97    C     0.05990   0.39112   0.61229   0.00000  Uiso   1.00
C98    C     0.19313   0.62196   0.24838   0.00000  Uiso   1.00
C99    C     0.24216   0.68248   0.28930   0.00000  Uiso   1.00
C100   C     0.27759   0.56373   0.27735   0.00000  Uiso   1.00
C101   C     0.34892   0.42322   0.27845   0.00000  Uiso   1.00
C102   C     0.11082   0.73363   0.11799   0.00000  Uiso   1.00
C103   C     0.09066   0.88803   0.04927   0.00000  Uiso   1.00
C104   C     0.05680   0.86329   0.92754   0.00000  Uiso   1.00
C105   C     0.00033   0.89615   0.72620   0.00000  Uiso   1.00
C106   C     0.12422   0.41094   0.15865   0.00000  Uiso   1.00
C107   C     0.11170   0.44142   0.27611   0.00000  Uiso   1.00
C108   C     0.08969   0.31619   0.33037   0.00000  Uiso   1.00
C109   C     0.08131   0.37014   0.43762   0.00000  Uiso   1.00
C110   C     0.17995   0.44899   0.19732   0.00000  Uiso   1.00
C111   C     0.21532   0.33013   0.18530   0.00000  Uiso   1.00
C112   C     0.26439   0.39044   0.22621   0.00000  Uiso   1.00
C113   C     0.09764   0.56065   0.06693   0.00000  Uiso   1.00
C114   C     0.06381   0.53567   0.94528   0.00000  Uiso   1.00
C115   C     0.04360   0.69000   0.87639   0.00000  Uiso   1.00
H116   H     0.15875   0.86408   0.29240   0.00000  Uiso   1.00
H117   H     0.12675   0.80242   0.47385   0.00000  Uiso   1.00
H118   H     0.25235   0.81635   0.32879   0.00000  Uiso   1.00
H119   H     0.10087   0.02186   0.08881   0.00000  Uiso   1.00
H120   H     0.08547   0.65774   0.65254   0.00000  Uiso   1.00
H121   H     0.35031   0.68715   0.34664   0.00000  Uiso   1.00
H122   H     0.03088   0.12051   0.84059   0.00000  Uiso   1.00
H123   H     0.11396   0.27627   0.11890   0.00000  Uiso   1.00
H124   H     0.07949   0.18234   0.29084   0.00000  Uiso   1.00
H125   H     0.20510   0.19628   0.14578   0.00000  Uiso   1.00
H126   H     0.05362   0.40179   0.90580   0.00000  Uiso   1.00
H127   H     0.04712   0.15446   0.50400   0.00000  Uiso   1.00
H128   H     0.31196   0.18387   0.19810   0.00000  Uiso   1.00
H129   H     0.99253   0.61723   0.69205   0.00000  Uiso   1.00
O130   O     0.04445   0.35489   0.69453   0.00000  Uiso   1.00
O131   O     0.39191   0.39350   0.29318   0.00000  Uiso   1.00
O132   O     0.97282   0.96206   0.62926   0.00000  Uiso   1.00
N133   N     0.08116   0.55219   0.59397   0.00000  Uiso   1.00
N134   N     0.32878   0.57968   0.30799   0.00000  Uiso   1.00
N135   N     0.03015   0.98484   0.83486   0.00000  Uiso   1.00
N136   N     0.06053   0.28138   0.51404   0.00000  Uiso   1.00
N137   N     0.30814   0.30887   0.22806   0.00000  Uiso   1.00
N138   N     0.00951   0.71403   0.75493   0.00000  Uiso   1.00
C139   C     0.64849   0.22941   0.25265   0.00000  Uiso   1.00
C140   C     0.62488   0.11440   0.32717   0.00000  Uiso   1.00
C141   C     0.61654   0.16854   0.43436   0.00000  Uiso   1.00
C142   C     0.59452   0.04343   0.48877   0.00000  Uiso   1.00
C143   C     0.55990   0.89112   0.61229   0.00000  Uiso   1.00
C144   C     0.69313   0.12196   0.24838   0.00000  Uiso   1.00
C145   C     0.74216   0.18248   0.28930   0.00000  Uiso   1.00
C146   C     0.77759   0.06373   0.27735   0.00000  Uiso   1.00
C147   C     0.84892   0.92322   0.27845   0.00000  Uiso   1.00
C148   C     0.61082   0.23363   0.11799   0.00000  Uiso   1.00
C149   C     0.59066   0.38803   0.04927   0.00000  Uiso   1.00
C150   C     0.55680   0.36329   0.92754   0.00000  Uiso   1.00
C151   C     0.50033   0.39615   0.72620   0.00000  Uiso   1.00
C152   C     0.62422   0.91094   0.15865   0.00000  Uiso   1.00
C153   C     0.61170   0.94142   0.27611   0.00000  Uiso   1.00
C154   C     0.58969   0.81619   0.33037   0.00000  Uiso   1.00
C155   C     0.58131   0.87014   0.43762   0.00000  Uiso   1.00
C156   C     0.67995   0.94899   0.19732   0.00000  Uiso   1.00
C157   C     0.71532   0.83013   0.18530   0.00000  Uiso   1.00
C158   C     0.76439   0.89044   0.22621   0.00000  Uiso   1.00
C159   C     0.59764   0.06065   0.06693   0.00000  Uiso   1.00
C160   C     0.56381   0.03567   0.94528   0.00000  Uiso   1.00
C161   C     0.54360   0.19000   0.87639   0.00000  Uiso   1.00
H162   H     0.65875   0.36408   0.29240   0.00000  Uiso   1.00
H163   H     0.62675   0.30242   0.47385   0.00000  Uiso   1.00
H164   H     0.75235   0.31635   0.32879   0.00000  Uiso   1.00
H165   H     0.60087   0.52186   0.08881   0.00000  Uiso   1.00
H166   H     0.58547   0.15774   0.65254   0.00000  Uiso   1.00
H167   H     0.85031   0.18715   0.34664   0.00000  Uiso   1.00
H168   H     0.53088   0.62051   0.84059   0.00000  Uiso   1.00
H169   H     0.61396   0.77627   0.11890   0.00000  Uiso   1.00
H170   H     0.57949   0.68234   0.29084   0.00000  Uiso   1.00
H171   H     0.70510   0.69628   0.14578   0.00000  Uiso   1.00
H172   H     0.55362   0.90179   0.90580   0.00000  Uiso   1.00
H173   H     0.54712   0.65446   0.50400   0.00000  Uiso   1.00
H174   H     0.81196   0.68387   0.19810   0.00000  Uiso   1.00
H175   H     0.49253   0.11723   0.69205   0.00000  Uiso   1.00
O176   O     0.54445   0.85489   0.69453   0.00000  Uiso   1.00
O177   O     0.89191   0.89350   0.29318   0.00000  Uiso   1.00
O178   O     0.47282   0.46206   0.62926   0.00000  Uiso   1.00
N179   N     0.58116   0.05219   0.59397   0.00000  Uiso   1.00
N180   N     0.82878   0.07968   0.30799   0.00000  Uiso   1.00
N181   N     0.53015   0.48484   0.83486   0.00000  Uiso   1.00
N182   N     0.56053   0.78138   0.51404   0.00000  Uiso   1.00
N183   N     0.80814   0.80887   0.22806   0.00000  Uiso   1.00
N184   N     0.50951   0.21403   0.75493   0.00000  Uiso   1.00
