data_job_06652
_audit_creation_date              2018-12-19
_audit_creation_method            'Materials Studio'
_symmetry_space_group_name_H-M    'P1'
_symmetry_Int_Tables_number       1
_symmetry_cell_setting            triclinic
loop_
_symmetry_equiv_pos_as_xyz
  x,y,z
_cell_length_a                    19.2780
_cell_length_b                    19.6743
_cell_length_c                    23.5866
_cell_angle_alpha                 69.9170
_cell_angle_beta                  93.2932
_cell_angle_gamma                 76.1872
loop_
_atom_site_label
_atom_site_type_symbol
_atom_site_fract_x
_atom_site_fract_y
_atom_site_fract_z
_atom_site_U_iso_or_equiv
_atom_site_adp_type
_atom_site_occupancy
C1     C     0.59470   0.67037   0.24731   0.00000  Uiso   1.00
C2     C     0.67014   0.64363   0.28425   0.00000  Uiso   1.00
C3     C     0.68778   0.65233   0.33875   0.00000  Uiso   1.00
C4     C     0.75988   0.62398   0.36545   0.00000  Uiso   1.00
C5     C     0.86904   0.58793   0.42689   0.00000  Uiso   1.00
C6     C     0.60079   0.72148   0.18353   0.00000  Uiso   1.00
C7     C     0.56011   0.79562   0.15335   0.00000  Uiso   1.00
C8     C     0.57382   0.83280   0.09526   0.00000  Uiso   1.00
C9     C     0.57527   0.91760   0.00031   0.00000  Uiso   1.00
C10    C     0.57943   0.60092   0.24022   0.00000  Uiso   1.00
C11    C     0.52077   0.57370   0.25768   0.00000  Uiso   1.00
C12    C     0.51649   0.50939   0.24730   0.00000  Uiso   1.00
C13    C     0.48476   0.40700   0.24037   0.00000  Uiso   1.00
C14    C     0.69138   0.60457   0.19782   0.00000  Uiso   1.00
C15    C     0.72265   0.60789   0.25737   0.00000  Uiso   1.00
C16    C     0.79474   0.57952   0.28400   0.00000  Uiso   1.00
C17    C     0.81249   0.58817   0.33853   0.00000  Uiso   1.00
C18    C     0.65330   0.68574   0.15665   0.00000  Uiso   1.00
C19    C     0.66707   0.72282   0.09859   0.00000  Uiso   1.00
C20    C     0.62643   0.79700   0.06833   0.00000  Uiso   1.00
C21    C     0.63194   0.56518   0.21334   0.00000  Uiso   1.00
C22    C     0.62774   0.50090   0.20293   0.00000  Uiso   1.00
C23    C     0.56909   0.47359   0.22037   0.00000  Uiso   1.00
H24    H     0.55382   0.69820   0.26823   0.00000  Uiso   1.00
H25    H     0.64713   0.68000   0.35954   0.00000  Uiso   1.00
H26    H     0.51948   0.82326   0.17416   0.00000  Uiso   1.00
H27    H     0.48015   0.60138   0.27848   0.00000  Uiso   1.00
H28    H     0.77375   0.64407   0.44890   0.00000  Uiso   1.00
H29    H     0.50456   0.94615   0.05801   0.00000  Uiso   1.00
H30    H     0.42162   0.47826   0.27799   0.00000  Uiso   1.00
H31    H     0.73226   0.57674   0.17688   0.00000  Uiso   1.00
H32    H     0.83537   0.55187   0.26318   0.00000  Uiso   1.00
H33    H     0.70771   0.69514   0.07780   0.00000  Uiso   1.00
H34    H     0.66838   0.47326   0.18212   0.00000  Uiso   1.00
H35    H     0.92652   0.54009   0.37069   0.00000  Uiso   1.00
H36    H     0.65733   0.84217   0.97980   0.00000  Uiso   1.00
H37    H     0.57440   0.37428   0.19978   0.00000  Uiso   1.00
O38    O     0.91474   0.57793   0.46820   0.00000  Uiso   1.00
O39    O     0.56157   0.97424   0.95537   0.00000  Uiso   1.00
O40    O     0.45277   0.36038   0.24398   0.00000  Uiso   1.00
N41    N     0.79555   0.62300   0.41866   0.00000  Uiso   1.00
N42    N     0.54388   0.90543   0.05320   0.00000  Uiso   1.00
N43    N     0.46634   0.46801   0.25885   0.00000  Uiso   1.00
N44    N     0.87776   0.56704   0.37658   0.00000  Uiso   1.00
N45    N     0.62609   0.84948   0.01112   0.00000  Uiso   1.00
N46    N     0.54855   0.41205   0.21677   0.00000  Uiso   1.00
C47    C     0.19632   0.63263   0.69517   0.00000  Uiso   1.00
C48    C     0.21224   0.70770   0.68585   0.00000  Uiso   1.00
C49    C     0.27921   0.71724   0.70021   0.00000  Uiso   1.00
C50    C     0.28256   0.79049   0.68822   0.00000  Uiso   1.00
C51    C     0.31662   0.89771   0.67765   0.00000  Uiso   1.00
C52    C     0.13654   0.62850   0.73481   0.00000  Uiso   1.00
C53    C     0.13986   0.57143   0.79034   0.00000  Uiso   1.00
C54    C     0.07948   0.57800   0.81955   0.00000  Uiso   1.00
C55    C     0.99600   0.56222   0.88498   0.00000  Uiso   1.00
C56    C     0.16265   0.63921   0.63274   0.00000  Uiso   1.00
C57    C     0.18791   0.59114   0.60245   0.00000  Uiso   1.00
C58    C     0.14951   0.60672   0.54574   0.00000  Uiso   1.00
C59    C     0.10656   0.60757   0.45268   0.00000  Uiso   1.00
C60    C     0.08319   0.74576   0.64831   0.00000  Uiso   1.00
C61    C     0.15079   0.76915   0.66040   0.00000  Uiso   1.00
C62    C     0.15404   0.84240   0.64838   0.00000  Uiso   1.00
C63    C     0.22100   0.85205   0.66272   0.00000  Uiso   1.00
C64    C     0.07509   0.68994   0.70936   0.00000  Uiso   1.00
C65    C     0.01469   0.69659   0.73850   0.00000  Uiso   1.00
C66    C     0.01792   0.63956   0.79406   0.00000  Uiso   1.00
C67    C     0.10120   0.70066   0.60729   0.00000  Uiso   1.00
C68    C     0.06275   0.71631   0.55061   0.00000  Uiso   1.00
C69    C     0.08795   0.66827   0.52024   0.00000  Uiso   1.00
H70    H     0.24416   0.58479   0.71498   0.00000  Uiso   1.00
H71    H     0.32675   0.66967   0.71991   0.00000  Uiso   1.00
H72    H     0.18742   0.52388   0.81002   0.00000  Uiso   1.00
H73    H     0.23547   0.54360   0.62216   0.00000  Uiso   1.00
H74    H     0.39121   0.79088   0.71418   0.00000  Uiso   1.00
H75    H     0.09742   0.48346   0.90416   0.00000  Uiso   1.00
H76    H     0.19873   0.52502   0.50802   0.00000  Uiso   1.00
H77    H     0.03534   0.79359   0.62850   0.00000  Uiso   1.00
H78    H     0.10648   0.88994   0.62868   0.00000  Uiso   1.00
H79    H     0.96715   0.74415   0.71879   0.00000  Uiso   1.00
H80    H     0.01519   0.76386   0.53093   0.00000  Uiso   1.00
H81    H     0.21243   0.96966   0.64014   0.00000  Uiso   1.00
H82    H     0.91864   0.66223   0.83012   0.00000  Uiso   1.00
H83    H     0.01995   0.70380   0.43398   0.00000  Uiso   1.00
O84    O     0.35238   0.93988   0.67886   0.00000  Uiso   1.00
O85    O     0.96693   0.53655   0.92810   0.00000  Uiso   1.00
O86    O     0.09986   0.59108   0.40838   0.00000  Uiso   1.00
N87    N     0.33938   0.81974   0.69671   0.00000  Uiso   1.00
N88    N     0.06470   0.53232   0.87434   0.00000  Uiso   1.00
N89    N     0.15941   0.57117   0.50400   0.00000  Uiso   1.00
N90    N     0.24318   0.91593   0.65687   0.00000  Uiso   1.00
N91    N     0.96850   0.62852   0.83450   0.00000  Uiso   1.00
N92    N     0.06321   0.66736   0.46415   0.00000  Uiso   1.00
C93    C     0.67648   0.26630   0.48843   0.00000  Uiso   1.00
C94    C     0.66759   0.29600   0.54016   0.00000  Uiso   1.00
C95    C     0.67629   0.36450   0.53886   0.00000  Uiso   1.00
C96    C     0.66578   0.38134   0.59081   0.00000  Uiso   1.00
C97    C     0.65483   0.43503   0.66333   0.00000  Uiso   1.00
C98    C     0.73306   0.19013   0.51543   0.00000  Uiso   1.00
C99    C     0.79681   0.16962   0.49333   0.00000  Uiso   1.00
C100   C     0.84141   0.09733   0.52447   0.00000  Uiso   1.00
C101   C     0.93208   0.98663   0.55857   0.00000  Uiso   1.00
C102   C     0.60540   0.24978   0.47451   0.00000  Uiso   1.00
C103   C     0.56183   0.27940   0.41800   0.00000  Uiso   1.00
C104   C     0.49896   0.25732   0.41468   0.00000  Uiso   1.00
C105   C     0.39142   0.23924   0.38525   0.00000  Uiso   1.00
C106   C     0.64233   0.17437   0.58301   0.00000  Uiso   1.00
C107   C     0.64904   0.24606   0.59153   0.00000  Uiso   1.00
C108   C     0.63851   0.26280   0.64350   0.00000  Uiso   1.00
C109   C     0.64720   0.33132   0.64228   0.00000  Uiso   1.00
C110   C     0.71451   0.14020   0.56680   0.00000  Uiso   1.00
C111   C     0.75903   0.06792   0.59798   0.00000  Uiso   1.00
C112   C     0.82283   0.04730   0.57593   0.00000  Uiso   1.00
C113   C     0.58685   0.19985   0.52589   0.00000  Uiso   1.00
C114   C     0.52404   0.17770   0.52265   0.00000  Uiso   1.00
C115   C     0.48038   0.20729   0.46615   0.00000  Uiso   1.00
H116   H     0.69092   0.30517   0.44843   0.00000  Uiso   1.00
H117   H     0.69065   0.40313   0.49909   0.00000  Uiso   1.00
H118   H     0.81114   0.20827   0.45357   0.00000  Uiso   1.00
H119   H     0.57620   0.31804   0.37826   0.00000  Uiso   1.00
H120   H     0.68220   0.48970   0.57792   0.00000  Uiso   1.00
H121   H     0.93625   0.07882   0.48192   0.00000  Uiso   1.00
H122   H     0.44082   0.31030   0.32311   0.00000  Uiso   1.00
H123   H     0.62789   0.13550   0.62301   0.00000  Uiso   1.00
H124   H     0.62416   0.22415   0.68325   0.00000  Uiso   1.00
H125   H     0.74465   0.02929   0.63773   0.00000  Uiso   1.00
H126   H     0.50971   0.13906   0.56242   0.00000  Uiso   1.00
H127   H     0.62823   0.34443   0.72740   0.00000  Uiso   1.00
H128   H     0.88228   0.93355   0.63140   0.00000  Uiso   1.00
H129   H     0.38685   0.16503   0.47258   0.00000  Uiso   1.00
O130   O     0.65392   0.47843   0.68915   0.00000  Uiso   1.00
O131   O     0.98722   0.93938   0.56319   0.00000  Uiso   1.00
O132   O     0.33723   0.24307   0.35483   0.00000  Uiso   1.00
N133   N     0.66999   0.44335   0.60483   0.00000  Uiso   1.00
N134   N     0.90752   0.05921   0.51508   0.00000  Uiso   1.00
N135   N     0.44435   0.27560   0.36660   0.00000  Uiso   1.00
N136   N     0.64096   0.36518   0.68526   0.00000  Uiso   1.00
N137   N     0.87848   0.98104   0.59551   0.00000  Uiso   1.00
N138   N     0.41531   0.19744   0.44703   0.00000  Uiso   1.00
C139   C     0.12545   0.68201   0.18878   0.00000  Uiso   1.00
C140   C     0.19308   0.70934   0.17916   0.00000  Uiso   1.00
C141   C     0.20450   0.77164   0.18909   0.00000  Uiso   1.00
C142   C     0.26996   0.78728   0.17762   0.00000  Uiso   1.00
C143   C     0.36706   0.83655   0.16586   0.00000  Uiso   1.00
C144   C     0.15123   0.60044   0.23322   0.00000  Uiso   1.00
C145   C     0.12744   0.57117   0.28860   0.00000  Uiso   1.00
C146   C     0.15766   0.49513   0.32264   0.00000  Uiso   1.00
C147   C     0.18974   0.37532   0.39479   0.00000  Uiso   1.00
C148   C     0.09781   0.67934   0.12791   0.00000  Uiso   1.00
C149   C     0.02910   0.71641   0.09474   0.00000  Uiso   1.00
C150   C     0.01434   0.70678   0.04012   0.00000  Uiso   1.00
C151   C     0.96347   0.70948   0.94875   0.00000  Uiso   1.00
C152   C     0.22140   0.59898   0.15076   0.00000  Uiso   1.00
C153   C     0.24520   0.66424   0.15851   0.00000  Uiso   1.00
C154   C     0.31066   0.67978   0.14703   0.00000  Uiso   1.00
C155   C     0.32217   0.74210   0.15694   0.00000  Uiso   1.00
C156   C     0.20334   0.55534   0.21258   0.00000  Uiso   1.00
C157   C     0.23360   0.47931   0.24654   0.00000  Uiso   1.00
C158   C     0.20987   0.44994   0.30196   0.00000  Uiso   1.00
C159   C     0.14992   0.63424   0.10726   0.00000  Uiso   1.00
C160   C     0.13526   0.62455   0.05268   0.00000  Uiso   1.00
C161   C     0.06655   0.66159   0.01944   0.00000  Uiso   1.00
H162   H     0.08488   0.71712   0.20486   0.00000  Uiso   1.00
H163   H     0.16416   0.80653   0.20507   0.00000  Uiso   1.00
H164   H     0.08711   0.60609   0.30456   0.00000  Uiso   1.00
H165   H     0.98879   0.75130   0.11073   0.00000  Uiso   1.00
H166   H     0.27505   0.88576   0.19623   0.00000  Uiso   1.00
H167   H     0.11256   0.46311   0.40600   0.00000  Uiso   1.00
H168   H     0.90523   0.76932   0.99728   0.00000  Uiso   1.00
H169   H     0.26198   0.56386   0.13469   0.00000  Uiso   1.00
H170   H     0.35098   0.64487   0.13105   0.00000  Uiso   1.00
H171   H     0.27392   0.44443   0.23055   0.00000  Uiso   1.00
H172   H     0.17560   0.58964   0.03672   0.00000  Uiso   1.00
H173   H     0.42668   0.75454   0.13615   0.00000  Uiso   1.00
H174   H     0.26419   0.33190   0.34593   0.00000  Uiso   1.00
H175   H     0.05686   0.63811   0.93720   0.00000  Uiso   1.00
O176   O     0.40623   0.87619   0.16508   0.00000  Uiso   1.00
O177   O     0.19304   0.32169   0.44029   0.00000  Uiso   1.00
O178   O     0.92102   0.72344   0.90406   0.00000  Uiso   1.00
N179   N     0.29852   0.84377   0.18257   0.00000  Uiso   1.00
N180   N     0.14661   0.44862   0.37871   0.00000  Uiso   1.00
N181   N     0.95276   0.73489   0.99659   0.00000  Uiso   1.00
N182   N     0.38011   0.77316   0.15025   0.00000  Uiso   1.00
N183   N     0.22820   0.37802   0.34638   0.00000  Uiso   1.00
N184   N     0.03435   0.66428   0.96427   0.00000  Uiso   1.00
C185   C     0.78233   0.20050   0.05419   0.00000  Uiso   1.00
C186   C     0.83687   0.17309   0.11219   0.00000  Uiso   1.00
C187   C     0.90274   0.18940   0.11619   0.00000  Uiso   1.00
C188   C     0.94490   0.15895   0.17342   0.00000  Uiso   1.00
C189   C     0.03307   0.12328   0.25568   0.00000  Uiso   1.00
C190   C     0.71149   0.24151   0.06794   0.00000  Uiso   1.00
C191   C     0.67194   0.31534   0.03472   0.00000  Uiso   1.00
C192   C     0.60855   0.34249   0.05469   0.00000  Uiso   1.00
C193   C     0.50204   0.41303   0.06821   0.00000  Uiso   1.00
C194   C     0.76966   0.12999   0.04721   0.00000  Uiso   1.00
C195   C     0.77900   0.11006   0.99656   0.00000  Uiso   1.00
C196   C     0.76456   0.04332   0.99908   0.00000  Uiso   1.00
C197   C     0.74836   0.94070   0.98043   0.00000  Uiso   1.00
C198   C     0.74007   0.11743   0.14871   0.00000  Uiso   1.00
C199   C     0.81391   0.12797   0.16353   0.00000  Uiso   1.00
C200   C     0.85599   0.09749   0.22077   0.00000  Uiso   1.00
C201   C     0.92191   0.11375   0.22485   0.00000  Uiso   1.00
C202   C     0.68854   0.19640   0.11928   0.00000  Uiso   1.00
C203   C     0.62519   0.22344   0.13930   0.00000  Uiso   1.00
C204   C     0.58555   0.29729   0.10612   0.00000  Uiso   1.00
C205   C     0.74671   0.08487   0.09856   0.00000  Uiso   1.00
C206   C     0.73225   0.01815   0.10115   0.00000  Uiso   1.00
C207   C     0.74157   0.99812   0.05052   0.00000  Uiso   1.00
H208   H     0.80019   0.23563   0.01421   0.00000  Uiso   1.00
H209   H     0.92048   0.22432   0.07645   0.00000  Uiso   1.00
H210   H     0.68971   0.35024   0.99498   0.00000  Uiso   1.00
H211   H     0.79676   0.14499   0.95684   0.00000  Uiso   1.00
H212   H     0.04371   0.19190   0.16809   0.00000  Uiso   1.00
H213   H     0.55711   0.45741   0.99631   0.00000  Uiso   1.00
H214   H     0.78284   0.02459   0.91587   0.00000  Uiso   1.00
H215   H     0.72220   0.08231   0.18869   0.00000  Uiso   1.00
H216   H     0.83821   0.06258   0.26050   0.00000  Uiso   1.00
H217   H     0.60744   0.18850   0.17903   0.00000  Uiso   1.00
H218   H     0.71449   0.98325   0.14089   0.00000  Uiso   1.00
H219   H     0.97693   0.06063   0.31747   0.00000  Uiso   1.00
H220   H     0.49033   0.32614   0.14568   0.00000  Uiso   1.00
H221   H     0.71606   0.89332   0.06525   0.00000  Uiso   1.00
O222   O     0.08803   0.11607   0.28687   0.00000  Uiso   1.00
O223   O     0.44963   0.46440   0.06149   0.00000  Uiso   1.00
O224   O     0.74578   0.89656   0.95597   0.00000  Uiso   1.00
N225   N     0.01208   0.16370   0.19339   0.00000  Uiso   1.00
N226   N     0.55714   0.41194   0.03279   0.00000  Uiso   1.00
N227   N     0.76816   0.00730   0.95758   0.00000  Uiso   1.00
N228   N     0.97615   0.09306   0.27377   0.00000  Uiso   1.00
N229   N     0.52121   0.34130   0.11317   0.00000  Uiso   1.00
N230   N     0.73223   0.93667   0.03796   0.00000  Uiso   1.00
C231   C     0.11653   0.12437   0.76923   0.00000  Uiso   1.00
C232   C     0.11333   0.19212   0.78752   0.00000  Uiso   1.00
C233   C     0.14503   0.18974   0.84276   0.00000  Uiso   1.00
C234   C     0.13591   0.25790   0.85069   0.00000  Uiso   1.00
C235   C     0.13698   0.35275   0.88603   0.00000  Uiso   1.00
C236   C     0.14826   0.14056   0.70981   0.00000  Uiso   1.00
C237   C     0.20932   0.09482   0.69970   0.00000  Uiso   1.00
C238   C     0.22960   0.11958   0.64219   0.00000  Uiso   1.00
C239   C     0.28487   0.13435   0.55686   0.00000  Uiso   1.00
C240   C     0.03826   0.12630   0.75269   0.00000  Uiso   1.00
C241   C     0.00682   0.06856   0.77863   0.00000  Uiso   1.00
C242   C     0.93448   0.08130   0.75723   0.00000  Uiso   1.00
C243   C     0.81895   0.07393   0.73849   0.00000  Uiso   1.00
C244   C     0.04396   0.24967   0.68508   0.00000  Uiso   1.00
C245   C     0.07392   0.26018   0.74181   0.00000  Uiso   1.00
C246   C     0.06474   0.32836   0.74966   0.00000  Uiso   1.00
C247   C     0.09642   0.32608   0.80490   0.00000  Uiso   1.00
C248   C     0.10885   0.20862   0.66410   0.00000  Uiso   1.00
C249   C     0.12903   0.23345   0.60659   0.00000  Uiso   1.00
C250   C     0.19011   0.18776   0.59640   0.00000  Uiso   1.00
C251   C     0.99884   0.19436   0.70699   0.00000  Uiso   1.00
C252   C     0.92653   0.20719   0.68553   0.00000  Uiso   1.00
C253   C     0.89500   0.14948   0.71143   0.00000  Uiso   1.00
H254   H     0.14722   0.07139   0.80481   0.00000  Uiso   1.00
H255   H     0.17554   0.13706   0.87812   0.00000  Uiso   1.00
H256   H     0.23981   0.04216   0.73508   0.00000  Uiso   1.00
H257   H     0.03734   0.01590   0.81400   0.00000  Uiso   1.00
H258   H     0.18958   0.23988   0.93923   0.00000  Uiso   1.00
H259   H     0.32509   0.03976   0.63761   0.00000  Uiso   1.00
H260   H     0.89815   0.98439   0.80403   0.00000  Uiso   1.00
H261   H     0.01327   0.30266   0.64949   0.00000  Uiso   1.00
H262   H     0.03424   0.38102   0.71428   0.00000  Uiso   1.00
H263   H     0.09852   0.28611   0.57123   0.00000  Uiso   1.00
H264   H     0.89605   0.25986   0.65016   0.00000  Uiso   1.00
H265   H     0.07490   0.43789   0.80625   0.00000  Uiso   1.00
H266   H     0.21041   0.23776   0.50462   0.00000  Uiso   1.00
H267   H     0.78346   0.18240   0.67105   0.00000  Uiso   1.00
O268   O     0.14847   0.38626   0.91815   0.00000  Uiso   1.00
O269   O     0.32625   0.12370   0.52243   0.00000  Uiso   1.00
O270   O     0.76611   0.05107   0.74078   0.00000  Uiso   1.00
N271   N     0.15970   0.27573   0.89905   0.00000  Uiso   1.00
N272   N     0.28640   0.08863   0.61705   0.00000  Uiso   1.00
N273   N     0.88725   0.03686   0.77263   0.00000  Uiso   1.00
N274   N     0.09799   0.38227   0.82749   0.00000  Uiso   1.00
N275   N     0.22469   0.19518   0.54549   0.00000  Uiso   1.00
N276   N     0.82554   0.14341   0.70108   0.00000  Uiso   1.00
C277   C     0.40530   0.32963   0.75269   0.00000  Uiso   1.00
C278   C     0.32986   0.35637   0.71575   0.00000  Uiso   1.00
C279   C     0.31222   0.34767   0.66125   0.00000  Uiso   1.00
C280   C     0.24012   0.37602   0.63455   0.00000  Uiso   1.00
C281   C     0.13096   0.41207   0.57311   0.00000  Uiso   1.00
C282   C     0.39921   0.27852   0.81647   0.00000  Uiso   1.00
C283   C     0.43989   0.20438   0.84665   0.00000  Uiso   1.00
C284   C     0.42618   0.16720   0.90474   0.00000  Uiso   1.00
C285   C     0.42473   0.08240   0.99969   0.00000  Uiso   1.00
C286   C     0.42057   0.39908   0.75978   0.00000  Uiso   1.00
C287   C     0.47923   0.42630   0.74232   0.00000  Uiso   1.00
C288   C     0.48351   0.49061   0.75270   0.00000  Uiso   1.00
C289   C     0.51524   0.59300   0.75963   0.00000  Uiso   1.00
C290   C     0.30862   0.39543   0.80218   0.00000  Uiso   1.00
C291   C     0.27735   0.39211   0.74263   0.00000  Uiso   1.00
C292   C     0.20526   0.42048   0.71600   0.00000  Uiso   1.00
C293   C     0.18751   0.41183   0.66147   0.00000  Uiso   1.00
C294   C     0.34670   0.31426   0.84335   0.00000  Uiso   1.00
C295   C     0.33293   0.27718   0.90141   0.00000  Uiso   1.00
C296   C     0.37357   0.20300   0.93167   0.00000  Uiso   1.00
C297   C     0.36806   0.43482   0.78666   0.00000  Uiso   1.00
C298   C     0.37226   0.49910   0.79707   0.00000  Uiso   1.00
C299   C     0.43091   0.52641   0.77963   0.00000  Uiso   1.00
H300   H     0.44618   0.30180   0.73177   0.00000  Uiso   1.00
H301   H     0.35287   0.32000   0.64046   0.00000  Uiso   1.00
H302   H     0.48052   0.17674   0.82584   0.00000  Uiso   1.00
H303   H     0.51985   0.39862   0.72152   0.00000  Uiso   1.00
H304   H     0.22625   0.35593   0.55110   0.00000  Uiso   1.00
H305   H     0.49544   0.05385   0.94199   0.00000  Uiso   1.00
H306   H     0.57838   0.52174   0.72201   0.00000  Uiso   1.00
H307   H     0.26774   0.42326   0.82312   0.00000  Uiso   1.00
H308   H     0.16463   0.44813   0.73682   0.00000  Uiso   1.00
H309   H     0.29229   0.30486   0.92220   0.00000  Uiso   1.00
H310   H     0.33162   0.52674   0.81788   0.00000  Uiso   1.00
H311   H     0.07348   0.45991   0.62931   0.00000  Uiso   1.00
H312   H     0.34267   0.15783   0.02020   0.00000  Uiso   1.00
H313   H     0.42560   0.62572   0.80022   0.00000  Uiso   1.00
O314   O     0.08526   0.42207   0.53180   0.00000  Uiso   1.00
O315   O     0.43843   0.02576   0.04463   0.00000  Uiso   1.00
O316   O     0.54723   0.63962   0.75602   0.00000  Uiso   1.00
N317   N     0.20445   0.37700   0.58134   0.00000  Uiso   1.00
N318   N     0.45612   0.09457   0.94680   0.00000  Uiso   1.00
N319   N     0.53366   0.53199   0.74115   0.00000  Uiso   1.00
N320   N     0.12224   0.43296   0.62342   0.00000  Uiso   1.00
N321   N     0.37391   0.15052   0.98888   0.00000  Uiso   1.00
N322   N     0.45145   0.58795   0.78323   0.00000  Uiso   1.00
C323   C     0.80368   0.36737   0.30483   0.00000  Uiso   1.00
C324   C     0.78776   0.29230   0.31415   0.00000  Uiso   1.00
C325   C     0.72079   0.28276   0.29979   0.00000  Uiso   1.00
C326   C     0.71744   0.20951   0.31178   0.00000  Uiso   1.00
C327   C     0.68338   0.10229   0.32235   0.00000  Uiso   1.00
C328   C     0.86346   0.37150   0.26519   0.00000  Uiso   1.00
C329   C     0.86014   0.42857   0.20966   0.00000  Uiso   1.00
C330   C     0.92052   0.42200   0.18045   0.00000  Uiso   1.00
C331   C     0.00400   0.43778   0.11502   0.00000  Uiso   1.00
C332   C     0.83735   0.36079   0.36726   0.00000  Uiso   1.00
C333   C     0.81209   0.40886   0.39755   0.00000  Uiso   1.00
C334   C     0.85049   0.39328   0.45426   0.00000  Uiso   1.00
C335   C     0.89344   0.39243   0.54732   0.00000  Uiso   1.00
C336   C     0.91681   0.25424   0.35169   0.00000  Uiso   1.00
C337   C     0.84921   0.23085   0.33960   0.00000  Uiso   1.00
C338   C     0.84596   0.15760   0.35162   0.00000  Uiso   1.00
C339   C     0.77900   0.14795   0.33728   0.00000  Uiso   1.00
C340   C     0.92491   0.31006   0.29064   0.00000  Uiso   1.00
C341   C     0.98531   0.30341   0.26150   0.00000  Uiso   1.00
C342   C     0.98208   0.36044   0.20594   0.00000  Uiso   1.00
C343   C     0.89880   0.29934   0.39271   0.00000  Uiso   1.00
C344   C     0.93725   0.28369   0.44939   0.00000  Uiso   1.00
C345   C     0.91205   0.33173   0.47976   0.00000  Uiso   1.00
H346   H     0.75584   0.41521   0.28502   0.00000  Uiso   1.00
H347   H     0.67325   0.33033   0.28009   0.00000  Uiso   1.00
H348   H     0.81258   0.47612   0.18998   0.00000  Uiso   1.00
H349   H     0.76453   0.45640   0.37784   0.00000  Uiso   1.00
H350   H     0.60879   0.20912   0.28582   0.00000  Uiso   1.00
H351   H     0.90258   0.51654   0.09584   0.00000  Uiso   1.00
H352   H     0.80127   0.47498   0.49198   0.00000  Uiso   1.00
H353   H     0.96466   0.20641   0.37150   0.00000  Uiso   1.00
H354   H     0.89352   0.11006   0.37132   0.00000  Uiso   1.00
H355   H     0.03285   0.25585   0.28121   0.00000  Uiso   1.00
H356   H     0.98481   0.23614   0.46907   0.00000  Uiso   1.00
H357   H     0.78757   0.03034   0.35986   0.00000  Uiso   1.00
H358   H     0.08136   0.33777   0.16988   0.00000  Uiso   1.00
H359   H     0.98005   0.29620   0.56602   0.00000  Uiso   1.00
O360   O     0.64762   0.06012   0.32114   0.00000  Uiso   1.00
O361   O     0.03307   0.46345   0.07190   0.00000  Uiso   1.00
O362   O     0.90014   0.40892   0.59162   0.00000  Uiso   1.00
N363   N     0.66062   0.18026   0.30329   0.00000  Uiso   1.00
N364   N     0.93530   0.46768   0.12566   0.00000  Uiso   1.00
N365   N     0.84059   0.42883   0.49600   0.00000  Uiso   1.00
N366   N     0.75682   0.08407   0.34313   0.00000  Uiso   1.00
N367   N     0.03150   0.37148   0.16550   0.00000  Uiso   1.00
N368   N     0.93679   0.33264   0.53585   0.00000  Uiso   1.00
C369   C     0.32352   0.73370   0.51157   0.00000  Uiso   1.00
C370   C     0.33241   0.70400   0.45984   0.00000  Uiso   1.00
C371   C     0.32371   0.63550   0.46114   0.00000  Uiso   1.00
C372   C     0.33422   0.61866   0.40919   0.00000  Uiso   1.00
C373   C     0.34517   0.56497   0.33667   0.00000  Uiso   1.00
C374   C     0.26694   0.80987   0.48457   0.00000  Uiso   1.00
C375   C     0.20319   0.83038   0.50667   0.00000  Uiso   1.00
C376   C     0.15859   0.90267   0.47553   0.00000  Uiso   1.00
C377   C     0.06792   0.01337   0.44143   0.00000  Uiso   1.00
C378   C     0.39460   0.75022   0.52549   0.00000  Uiso   1.00
C379   C     0.43817   0.72060   0.58200   0.00000  Uiso   1.00
C380   C     0.50104   0.74268   0.58532   0.00000  Uiso   1.00
C381   C     0.60858   0.76076   0.61475   0.00000  Uiso   1.00
C382   C     0.35767   0.82563   0.41699   0.00000  Uiso   1.00
C383   C     0.35096   0.75394   0.40847   0.00000  Uiso   1.00
C384   C     0.36149   0.73720   0.35650   0.00000  Uiso   1.00
C385   C     0.35280   0.66868   0.35772   0.00000  Uiso   1.00
C386   C     0.28549   0.85980   0.43320   0.00000  Uiso   1.00
C387   C     0.24097   0.93208   0.40202   0.00000  Uiso   1.00
C388   C     0.17717   0.95270   0.42407   0.00000  Uiso   1.00
C389   C     0.41315   0.80015   0.47411   0.00000  Uiso   1.00
C390   C     0.47596   0.82230   0.47735   0.00000  Uiso   1.00
C391   C     0.51962   0.79271   0.53385   0.00000  Uiso   1.00
H392   H     0.30908   0.69483   0.55157   0.00000  Uiso   1.00
H393   H     0.30935   0.59687   0.50091   0.00000  Uiso   1.00
H394   H     0.18886   0.79173   0.54643   0.00000  Uiso   1.00
H395   H     0.42380   0.68196   0.62174   0.00000  Uiso   1.00
H396   H     0.31780   0.51030   0.42208   0.00000  Uiso   1.00
H397   H     0.06375   0.92118   0.51808   0.00000  Uiso   1.00
H398   H     0.55918   0.68970   0.67689   0.00000  Uiso   1.00
H399   H     0.37211   0.86450   0.37699   0.00000  Uiso   1.00
H400   H     0.37584   0.77585   0.31675   0.00000  Uiso   1.00
H401   H     0.25535   0.97071   0.36227   0.00000  Uiso   1.00
H402   H     0.49029   0.86094   0.43758   0.00000  Uiso   1.00
H403   H     0.37177   0.65557   0.27260   0.00000  Uiso   1.00
H404   H     0.11772   0.06645   0.36860   0.00000  Uiso   1.00
H405   H     0.61315   0.83497   0.52742   0.00000  Uiso   1.00
O406   O     0.34608   0.52157   0.31085   0.00000  Uiso   1.00
O407   O     0.01278   0.06062   0.43681   0.00000  Uiso   1.00
O408   O     0.66277   0.75693   0.64517   0.00000  Uiso   1.00
N409   N     0.33001   0.55665   0.39517   0.00000  Uiso   1.00
N410   N     0.09248   0.94079   0.48492   0.00000  Uiso   1.00
N411   N     0.55565   0.72440   0.63340   0.00000  Uiso   1.00
N412   N     0.35904   0.63482   0.31474   0.00000  Uiso   1.00
N413   N     0.12152   0.01896   0.40449   0.00000  Uiso   1.00
N414   N     0.58469   0.80256   0.55297   0.00000  Uiso   1.00
C415   C     0.87455   0.31799   0.81122   0.00000  Uiso   1.00
C416   C     0.80692   0.29066   0.82084   0.00000  Uiso   1.00
C417   C     0.79550   0.22836   0.81091   0.00000  Uiso   1.00
C418   C     0.73004   0.21272   0.82238   0.00000  Uiso   1.00
C419   C     0.63294   0.16345   0.83414   0.00000  Uiso   1.00
C420   C     0.84877   0.39956   0.76678   0.00000  Uiso   1.00
C421   C     0.87256   0.42883   0.71140   0.00000  Uiso   1.00
C422   C     0.84234   0.50487   0.67736   0.00000  Uiso   1.00
C423   C     0.81026   0.62468   0.60521   0.00000  Uiso   1.00
C424   C     0.90219   0.32066   0.87209   0.00000  Uiso   1.00
C425   C     0.97090   0.28359   0.90526   0.00000  Uiso   1.00
C426   C     0.98566   0.29322   0.95988   0.00000  Uiso   1.00
C427   C     0.03653   0.29052   0.05125   0.00000  Uiso   1.00
C428   C     0.77860   0.40102   0.84924   0.00000  Uiso   1.00
C429   C     0.75480   0.33576   0.84149   0.00000  Uiso   1.00
C430   C     0.68934   0.32022   0.85297   0.00000  Uiso   1.00
C431   C     0.67783   0.25790   0.84306   0.00000  Uiso   1.00
C432   C     0.79666   0.44466   0.78742   0.00000  Uiso   1.00
C433   C     0.76640   0.52069   0.75346   0.00000  Uiso   1.00
C434   C     0.79013   0.55006   0.69804   0.00000  Uiso   1.00
C435   C     0.85008   0.36576   0.89274   0.00000  Uiso   1.00
C436   C     0.86474   0.37545   0.94732   0.00000  Uiso   1.00
C437   C     0.93345   0.33841   0.98056   0.00000  Uiso   1.00
H438   H     0.91512   0.28288   0.79514   0.00000  Uiso   1.00
H439   H     0.83584   0.19347   0.79493   0.00000  Uiso   1.00
H440   H     0.91289   0.39391   0.69544   0.00000  Uiso   1.00
H441   H     0.01121   0.24870   0.88927   0.00000  Uiso   1.00
H442   H     0.72495   0.11424   0.80377   0.00000  Uiso   1.00
H443   H     0.88744   0.53689   0.59400   0.00000  Uiso   1.00
H444   H     0.09477   0.23068   0.00272   0.00000  Uiso   1.00
H445   H     0.73802   0.43614   0.86531   0.00000  Uiso   1.00
H446   H     0.64902   0.35513   0.86895   0.00000  Uiso   1.00
H447   H     0.72608   0.55557   0.76945   0.00000  Uiso   1.00
H448   H     0.82440   0.41036   0.96328   0.00000  Uiso   1.00
H449   H     0.57332   0.24546   0.86385   0.00000  Uiso   1.00
H450   H     0.73581   0.66810   0.65407   0.00000  Uiso   1.00
H451   H     0.94314   0.36189   0.06280   0.00000  Uiso   1.00
O452   O     0.59377   0.12381   0.83492   0.00000  Uiso   1.00
O453   O     0.80696   0.67831   0.55971   0.00000  Uiso   1.00
O454   O     0.07898   0.27656   0.09594   0.00000  Uiso   1.00
N455   N     0.70148   0.15623   0.81743   0.00000  Uiso   1.00
N456   N     0.85339   0.55138   0.62129   0.00000  Uiso   1.00
N457   N     0.04724   0.26511   0.00341   0.00000  Uiso   1.00
N458   N     0.61989   0.22684   0.84975   0.00000  Uiso   1.00
N459   N     0.77180   0.62198   0.65362   0.00000  Uiso   1.00
N460   N     0.96565   0.33572   0.03573   0.00000  Uiso   1.00
C461   C     0.21767   0.79950   0.94581   0.00000  Uiso   1.00
C462   C     0.16313   0.82691   0.88781   0.00000  Uiso   1.00
C463   C     0.09726   0.81060   0.88381   0.00000  Uiso   1.00
C464   C     0.05510   0.84105   0.82658   0.00000  Uiso   1.00
C465   C     0.96693   0.87672   0.74432   0.00000  Uiso   1.00
C466   C     0.28851   0.75849   0.93206   0.00000  Uiso   1.00
C467   C     0.32806   0.68466   0.96528   0.00000  Uiso   1.00
C468   C     0.39145   0.65751   0.94531   0.00000  Uiso   1.00
C469   C     0.49796   0.58697   0.93179   0.00000  Uiso   1.00
C470   C     0.23034   0.87001   0.95279   0.00000  Uiso   1.00
C471   C     0.22100   0.88994   0.00344   0.00000  Uiso   1.00
C472   C     0.23544   0.95668   0.00092   0.00000  Uiso   1.00
C473   C     0.25164   0.05930   0.01957   0.00000  Uiso   1.00
C474   C     0.25993   0.88257   0.85129   0.00000  Uiso   1.00
C475   C     0.18609   0.87203   0.83647   0.00000  Uiso   1.00
C476   C     0.14401   0.90251   0.77923   0.00000  Uiso   1.00
C477   C     0.07809   0.88625   0.77515   0.00000  Uiso   1.00
C478   C     0.31146   0.80360   0.88072   0.00000  Uiso   1.00
C479   C     0.37481   0.77656   0.86070   0.00000  Uiso   1.00
C480   C     0.41445   0.70271   0.89388   0.00000  Uiso   1.00
C481   C     0.25329   0.91513   0.90144   0.00000  Uiso   1.00
C482   C     0.26775   0.98185   0.89885   0.00000  Uiso   1.00
C483   C     0.25843   0.00188   0.94948   0.00000  Uiso   1.00
H484   H     0.19981   0.76437   0.98579   0.00000  Uiso   1.00
H485   H     0.07952   0.77568   0.92355   0.00000  Uiso   1.00
H486   H     0.31029   0.64976   0.00502   0.00000  Uiso   1.00
H487   H     0.20324   0.85501   0.04316   0.00000  Uiso   1.00
H488   H     0.95629   0.80810   0.83191   0.00000  Uiso   1.00
H489   H     0.44289   0.54259   0.00369   0.00000  Uiso   1.00
H490   H     0.21716   0.97541   0.08413   0.00000  Uiso   1.00
H491   H     0.27780   0.91769   0.81131   0.00000  Uiso   1.00
H492   H     0.16179   0.93742   0.73950   0.00000  Uiso   1.00
H493   H     0.39256   0.81150   0.82097   0.00000  Uiso   1.00
H494   H     0.28551   0.01675   0.85911   0.00000  Uiso   1.00
H495   H     0.02307   0.93937   0.68253   0.00000  Uiso   1.00
H496   H     0.50967   0.67386   0.85432   0.00000  Uiso   1.00
H497   H     0.28394   0.10668   0.93475   0.00000  Uiso   1.00
O498   O     0.91197   0.88393   0.71313   0.00000  Uiso   1.00
O499   O     0.55037   0.53560   0.93851   0.00000  Uiso   1.00
O500   O     0.25422   0.10344   0.04403   0.00000  Uiso   1.00
N501   N     0.98792   0.83630   0.80661   0.00000  Uiso   1.00
N502   N     0.44286   0.58806   0.96721   0.00000  Uiso   1.00
N503   N     0.23184   0.99270   0.04242   0.00000  Uiso   1.00
N504   N     0.02385   0.90694   0.72623   0.00000  Uiso   1.00
N505   N     0.47879   0.65870   0.88683   0.00000  Uiso   1.00
N506   N     0.26777   0.06333   0.96204   0.00000  Uiso   1.00
C507   C     0.88347   0.87563   0.23077   0.00000  Uiso   1.00
C508   C     0.88667   0.80788   0.21248   0.00000  Uiso   1.00
C509   C     0.85497   0.81026   0.15724   0.00000  Uiso   1.00
C510   C     0.86409   0.74210   0.14931   0.00000  Uiso   1.00
C511   C     0.86302   0.64725   0.11397   0.00000  Uiso   1.00
C512   C     0.85174   0.85944   0.29019   0.00000  Uiso   1.00
C513   C     0.79068   0.90518   0.30030   0.00000  Uiso   1.00
C514   C     0.77040   0.88042   0.35781   0.00000  Uiso   1.00
C515   C     0.71513   0.86565   0.44314   0.00000  Uiso   1.00
C516   C     0.96174   0.87370   0.24731   0.00000  Uiso   1.00
C517   C     0.99318   0.93144   0.22137   0.00000  Uiso   1.00
C518   C     0.06552   0.91870   0.24277   0.00000  Uiso   1.00
C519   C     0.18105   0.92607   0.26151   0.00000  Uiso   1.00
C520   C     0.95604   0.75033   0.31492   0.00000  Uiso   1.00
C521   C     0.92608   0.73982   0.25819   0.00000  Uiso   1.00
C522   C     0.93526   0.67164   0.25034   0.00000  Uiso   1.00
C523   C     0.90358   0.67392   0.19510   0.00000  Uiso   1.00
C524   C     0.89115   0.79138   0.33590   0.00000  Uiso   1.00
C525   C     0.87097   0.76655   0.39341   0.00000  Uiso   1.00
C526   C     0.80989   0.81224   0.40360   0.00000  Uiso   1.00
C527   C     0.00116   0.80564   0.29301   0.00000  Uiso   1.00
C528   C     0.07347   0.79281   0.31447   0.00000  Uiso   1.00
C529   C     0.10500   0.85052   0.28857   0.00000  Uiso   1.00
H530   H     0.85278   0.92861   0.19519   0.00000  Uiso   1.00
H531   H     0.82446   0.86294   0.12188   0.00000  Uiso   1.00
H532   H     0.76019   0.95784   0.26492   0.00000  Uiso   1.00
H533   H     0.96266   0.98410   0.18600   0.00000  Uiso   1.00
H534   H     0.81042   0.76012   0.06077   0.00000  Uiso   1.00
H535   H     0.67491   0.96024   0.36239   0.00000  Uiso   1.00
H536   H     0.10185   0.01561   0.19597   0.00000  Uiso   1.00
H537   H     0.98673   0.69734   0.35051   0.00000  Uiso   1.00
H538   H     0.96576   0.61898   0.28572   0.00000  Uiso   1.00
H539   H     0.90148   0.71389   0.42877   0.00000  Uiso   1.00
H540   H     0.10395   0.74014   0.34984   0.00000  Uiso   1.00
H541   H     0.92510   0.56211   0.19375   0.00000  Uiso   1.00
H542   H     0.78959   0.76224   0.49538   0.00000  Uiso   1.00
H543   H     0.21654   0.81760   0.32895   0.00000  Uiso   1.00
O544   O     0.85153   0.61374   0.08185   0.00000  Uiso   1.00
O545   O     0.67375   0.87630   0.47757   0.00000  Uiso   1.00
O546   O     0.23389   0.94893   0.25922   0.00000  Uiso   1.00
N547   N     0.84030   0.72427   0.10095   0.00000  Uiso   1.00
N548   N     0.71360   0.91137   0.38295   0.00000  Uiso   1.00
N549   N     0.11275   0.96314   0.22737   0.00000  Uiso   1.00
N550   N     0.90201   0.61773   0.17251   0.00000  Uiso   1.00
N551   N     0.77531   0.80482   0.45451   0.00000  Uiso   1.00
N552   N     0.17446   0.85659   0.29892   0.00000  Uiso   1.00
