data_job_05049
_audit_creation_date              2018-12-19
_audit_creation_method            'Materials Studio'
_symmetry_space_group_name_H-M    'P1'
_symmetry_Int_Tables_number       1
_symmetry_cell_setting            triclinic
loop_
_symmetry_equiv_pos_as_xyz
  x,y,z
_cell_length_a                    16.2108
_cell_length_b                    23.5281
_cell_length_c                    22.9876
_cell_angle_alpha                 90.0000
_cell_angle_beta                  138.7428
_cell_angle_gamma                 90.0000
loop_
_atom_site_label
_atom_site_type_symbol
_atom_site_fract_x
_atom_site_fract_y
_atom_site_fract_z
_atom_site_U_iso_or_equiv
_atom_site_adp_type
_atom_site_occupancy
C1     C     0.05230   0.89027   0.85016   0.00000  Uiso   1.00
C2     C     0.02174   0.84702   0.78664   0.00000  Uiso   1.00
C3     C     0.10381   0.80698   0.80759   0.00000  Uiso   1.00
C4     C     0.05789   0.77126   0.74017   0.00000  Uiso   1.00
C5     C     0.02925   0.70348   0.65450   0.00000  Uiso   1.00
C6     C     0.02261   0.94842   0.80857   0.00000  Uiso   1.00
C7     C     0.10541   0.99364   0.84797   0.00000  Uiso   1.00
C8     C     0.06020   0.04328   0.79901   0.00000  Uiso   1.00
C9     C     0.03288   0.13294   0.74742   0.00000  Uiso   1.00
C10    C     0.95666   0.88069   0.84768   0.00000  Uiso   1.00
C11    C     0.98400   0.86899   0.91996   0.00000  Uiso   1.00
C12    C     0.88327   0.86163   0.90394   0.00000  Uiso   1.00
C13    C     0.75355   0.84613   0.91307   0.00000  Uiso   1.00
C14    C     0.82480   0.89803   0.69317   0.00000  Uiso   1.00
C15    C     0.89817   0.85123   0.70137   0.00000  Uiso   1.00
C16    C     0.85210   0.81556   0.63390   0.00000  Uiso   1.00
C17    C     0.93409   0.77548   0.65475   0.00000  Uiso   1.00
C18    C     0.89904   0.95263   0.72330   0.00000  Uiso   1.00
C19    C     0.85369   0.00222   0.67428   0.00000  Uiso   1.00
C20    C     0.93640   0.04750   0.71359   0.00000  Uiso   1.00
C21    C     0.83308   0.88491   0.76241   0.00000  Uiso   1.00
C22    C     0.73229   0.87757   0.74627   0.00000  Uiso   1.00
C23    C     0.75947   0.86585   0.81851   0.00000  Uiso   1.00
H24    H     0.14851   0.88699   0.91654   0.00000  Uiso   1.00
H25    H     0.19944   0.80374   0.87358   0.00000  Uiso   1.00
H26    H     0.20102   0.99036   0.91396   0.00000  Uiso   1.00
H27    H     0.07964   0.86573   0.98594   0.00000  Uiso   1.00
H28    H     0.20143   0.71331   0.78835   0.00000  Uiso   1.00
H29    H     0.20475   0.10683   0.87349   0.00000  Uiso   1.00
H30    H     0.94879   0.84402   0.02528   0.00000  Uiso   1.00
H31    H     0.72859   0.90131   0.62678   0.00000  Uiso   1.00
H32    H     0.75647   0.81883   0.56792   0.00000  Uiso   1.00
H33    H     0.75806   0.00546   0.60829   0.00000  Uiso   1.00
H34    H     0.63667   0.88083   0.68027   0.00000  Uiso   1.00
H35    H     0.84190   0.72556   0.54025   0.00000  Uiso   1.00
H36    H     0.84522   0.11909   0.62540   0.00000  Uiso   1.00
H37    H     0.58926   0.85627   0.77719   0.00000  Uiso   1.00
O38    O     0.04760   0.66494   0.63080   0.00000  Uiso   1.00
O39    O     0.05195   0.18122   0.74251   0.00000  Uiso   1.00
O40    O     0.71614   0.83642   0.94165   0.00000  Uiso   1.00
N41    N     0.11298   0.72750   0.73804   0.00000  Uiso   1.00
N42    N     0.11609   0.09542   0.81764   0.00000  Uiso   1.00
N43    N     0.87679   0.84973   0.95955   0.00000  Uiso   1.00
N44    N     0.91952   0.73410   0.60454   0.00000  Uiso   1.00
N45    N     0.92263   0.10201   0.68414   0.00000  Uiso   1.00
N46    N     0.68333   0.85632   0.82606   0.00000  Uiso   1.00
C47    C     0.56504   0.44781   0.36908   0.00000  Uiso   1.00
C48    C     0.55429   0.41840   0.30448   0.00000  Uiso   1.00
C49    C     0.65329   0.40469   0.32052   0.00000  Uiso   1.00
C50    C     0.62399   0.37788   0.25294   0.00000  Uiso   1.00
C51    C     0.62614   0.33417   0.16489   0.00000  Uiso   1.00
C52    C     0.48280   0.50064   0.32173   0.00000  Uiso   1.00
C53    C     0.52169   0.55607   0.35229   0.00000  Uiso   1.00
C54    C     0.43219   0.59849   0.29923   0.00000  Uiso   1.00
C55    C     0.32332   0.68244   0.23799   0.00000  Uiso   1.00
C56    C     0.50172   0.40846   0.37923   0.00000  Uiso   1.00
C57    C     0.55651   0.38640   0.45814   0.00000  Uiso   1.00
C58    C     0.48293   0.35122   0.45350   0.00000  Uiso   1.00
C59    C     0.40345   0.29206   0.48154   0.00000  Uiso   1.00
C60    C     0.33695   0.42456   0.22054   0.00000  Uiso   1.00
C61    C     0.43040   0.40578   0.22380   0.00000  Uiso   1.00
C62    C     0.40094   0.37897   0.15617   0.00000  Uiso   1.00
C63    C     0.49988   0.36523   0.17211   0.00000  Uiso   1.00
C64    C     0.35891   0.48801   0.24105   0.00000  Uiso   1.00
C65    C     0.26933   0.53035   0.18794   0.00000  Uiso   1.00
C66    C     0.30808   0.58584   0.21840   0.00000  Uiso   1.00
C67    C     0.37783   0.39583   0.29855   0.00000  Uiso   1.00
C68    C     0.30415   0.36068   0.29379   0.00000  Uiso   1.00
C69    C     0.35882   0.33857   0.37267   0.00000  Uiso   1.00
H70    H     0.66149   0.45764   0.43190   0.00000  Uiso   1.00
H71    H     0.74916   0.41448   0.38297   0.00000  Uiso   1.00
H72    H     0.61756   0.56583   0.41473   0.00000  Uiso   1.00
H73    H     0.65238   0.39618   0.52056   0.00000  Uiso   1.00
H74    H     0.79171   0.36107   0.29312   0.00000  Uiso   1.00
H75    H     0.51423   0.68020   0.36012   0.00000  Uiso   1.00
H76    H     0.58765   0.32247   0.58329   0.00000  Uiso   1.00
H77    H     0.24049   0.41473   0.15772   0.00000  Uiso   1.00
H78    H     0.30506   0.36921   0.09374   0.00000  Uiso   1.00
H79    H     0.17347   0.52057   0.12551   0.00000  Uiso   1.00
H80    H     0.20829   0.35092   0.23134   0.00000  Uiso   1.00
H81    H     0.43127   0.32433   0.05838   0.00000  Uiso   1.00
H82    H     0.15379   0.64347   0.12537   0.00000  Uiso   1.00
H83    H     0.22720   0.28574   0.34854   0.00000  Uiso   1.00
O84    O     0.66156   0.31355   0.13860   0.00000  Uiso   1.00
O85    O     0.29751   0.73224   0.22650   0.00000  Uiso   1.00
O86    O     0.39383   0.26290   0.51929   0.00000  Uiso   1.00
N87    N     0.69802   0.35866   0.24666   0.00000  Uiso   1.00
N88    N     0.43860   0.65704   0.30929   0.00000  Uiso   1.00
N89    N     0.50723   0.32260   0.51794   0.00000  Uiso   1.00
N90    N     0.50407   0.33889   0.12035   0.00000  Uiso   1.00
N91    N     0.24465   0.63727   0.18298   0.00000  Uiso   1.00
N92    N     0.31328   0.30283   0.39162   0.00000  Uiso   1.00
C93    C     0.94770   0.39027   0.64984   0.00000  Uiso   1.00
C94    C     0.97826   0.34702   0.71336   0.00000  Uiso   1.00
C95    C     0.89619   0.30698   0.69241   0.00000  Uiso   1.00
C96    C     0.94211   0.27126   0.75983   0.00000  Uiso   1.00
C97    C     0.97075   0.20348   0.84550   0.00000  Uiso   1.00
C98    C     0.97739   0.44842   0.69143   0.00000  Uiso   1.00
C99    C     0.89459   0.49364   0.65203   0.00000  Uiso   1.00
C100   C     0.93980   0.54328   0.70099   0.00000  Uiso   1.00
C101   C     0.96712   0.63294   0.75258   0.00000  Uiso   1.00
C102   C     0.04334   0.38069   0.65232   0.00000  Uiso   1.00
C103   C     0.01600   0.36899   0.58004   0.00000  Uiso   1.00
C104   C     0.11673   0.36163   0.59606   0.00000  Uiso   1.00
C105   C     0.24645   0.34613   0.58693   0.00000  Uiso   1.00
C106   C     0.17520   0.39803   0.80683   0.00000  Uiso   1.00
C107   C     0.10183   0.35123   0.79863   0.00000  Uiso   1.00
C108   C     0.14790   0.31556   0.86610   0.00000  Uiso   1.00
C109   C     0.06591   0.27548   0.84525   0.00000  Uiso   1.00
C110   C     0.10096   0.45263   0.77670   0.00000  Uiso   1.00
C111   C     0.14631   0.50222   0.82572   0.00000  Uiso   1.00
C112   C     0.06360   0.54750   0.78641   0.00000  Uiso   1.00
C113   C     0.16692   0.38491   0.73759   0.00000  Uiso   1.00
C114   C     0.26771   0.37757   0.75373   0.00000  Uiso   1.00
C115   C     0.24053   0.36585   0.68149   0.00000  Uiso   1.00
H116   H     0.85149   0.38699   0.58346   0.00000  Uiso   1.00
H117   H     0.80056   0.30374   0.62642   0.00000  Uiso   1.00
H118   H     0.79898   0.49036   0.58604   0.00000  Uiso   1.00
H119   H     0.92036   0.36573   0.51406   0.00000  Uiso   1.00
H120   H     0.79857   0.21331   0.71165   0.00000  Uiso   1.00
H121   H     0.79525   0.60683   0.62651   0.00000  Uiso   1.00
H122   H     0.05121   0.34402   0.47472   0.00000  Uiso   1.00
H123   H     0.27141   0.40131   0.87322   0.00000  Uiso   1.00
H124   H     0.24353   0.31883   0.93208   0.00000  Uiso   1.00
H125   H     0.24194   0.50546   0.89171   0.00000  Uiso   1.00
H126   H     0.36333   0.38083   0.81973   0.00000  Uiso   1.00
H127   H     0.15810   0.22556   0.95975   0.00000  Uiso   1.00
H128   H     0.15478   0.61909   0.87460   0.00000  Uiso   1.00
H129   H     0.41074   0.35627   0.72281   0.00000  Uiso   1.00
O130   O     0.95240   0.16494   0.86920   0.00000  Uiso   1.00
O131   O     0.94805   0.68122   0.75749   0.00000  Uiso   1.00
O132   O     0.28386   0.33642   0.55835   0.00000  Uiso   1.00
N133   N     0.88702   0.22750   0.76196   0.00000  Uiso   1.00
N134   N     0.88391   0.59542   0.68236   0.00000  Uiso   1.00
N135   N     0.12321   0.34973   0.54045   0.00000  Uiso   1.00
N136   N     0.08048   0.23410   0.89546   0.00000  Uiso   1.00
N137   N     0.07737   0.60201   0.81586   0.00000  Uiso   1.00
N138   N     0.31667   0.35632   0.67394   0.00000  Uiso   1.00
C139   C     0.43496   0.94781   0.13092   0.00000  Uiso   1.00
C140   C     0.44571   0.91840   0.19552   0.00000  Uiso   1.00
C141   C     0.34671   0.90469   0.17948   0.00000  Uiso   1.00
C142   C     0.37601   0.87788   0.24706   0.00000  Uiso   1.00
C143   C     0.37386   0.83417   0.33511   0.00000  Uiso   1.00
C144   C     0.51720   0.00064   0.17827   0.00000  Uiso   1.00
C145   C     0.47831   0.05607   0.14771   0.00000  Uiso   1.00
C146   C     0.56781   0.09849   0.20077   0.00000  Uiso   1.00
C147   C     0.67668   0.18244   0.26201   0.00000  Uiso   1.00
C148   C     0.49828   0.90846   0.12077   0.00000  Uiso   1.00
C149   C     0.44349   0.88640   0.04186   0.00000  Uiso   1.00
C150   C     0.51707   0.85122   0.04650   0.00000  Uiso   1.00
C151   C     0.59655   0.79206   0.01846   0.00000  Uiso   1.00
C152   C     0.66305   0.92456   0.27946   0.00000  Uiso   1.00
C153   C     0.56960   0.90578   0.27620   0.00000  Uiso   1.00
C154   C     0.59906   0.87897   0.34383   0.00000  Uiso   1.00
C155   C     0.50012   0.86523   0.32789   0.00000  Uiso   1.00
C156   C     0.64109   0.98801   0.25895   0.00000  Uiso   1.00
C157   C     0.73067   0.03035   0.31206   0.00000  Uiso   1.00
C158   C     0.69192   0.08584   0.28160   0.00000  Uiso   1.00
C159   C     0.62217   0.89583   0.20145   0.00000  Uiso   1.00
C160   C     0.69585   0.86068   0.20621   0.00000  Uiso   1.00
C161   C     0.64118   0.83857   0.12733   0.00000  Uiso   1.00
H162   H     0.33851   0.95764   0.06810   0.00000  Uiso   1.00
H163   H     0.25084   0.91448   0.11703   0.00000  Uiso   1.00
H164   H     0.38244   0.06583   0.08527   0.00000  Uiso   1.00
H165   H     0.34762   0.89618   0.97944   0.00000  Uiso   1.00
H166   H     0.20829   0.86107   0.20688   0.00000  Uiso   1.00
H167   H     0.48577   0.18020   0.13988   0.00000  Uiso   1.00
H168   H     0.41235   0.82247   0.91671   0.00000  Uiso   1.00
H169   H     0.75951   0.91473   0.34228   0.00000  Uiso   1.00
H170   H     0.69494   0.86921   0.40626   0.00000  Uiso   1.00
H171   H     0.82653   0.02057   0.37449   0.00000  Uiso   1.00
H172   H     0.79171   0.85092   0.26866   0.00000  Uiso   1.00
H173   H     0.56873   0.82433   0.44162   0.00000  Uiso   1.00
H174   H     0.84621   0.14347   0.37463   0.00000  Uiso   1.00
H175   H     0.77280   0.78574   0.15146   0.00000  Uiso   1.00
O176   O     0.33844   0.81355   0.36140   0.00000  Uiso   1.00
O177   O     0.70249   0.23224   0.27350   0.00000  Uiso   1.00
O178   O     0.60617   0.76290   0.98071   0.00000  Uiso   1.00
N179   N     0.30198   0.85866   0.25334   0.00000  Uiso   1.00
N180   N     0.56140   0.15704   0.19071   0.00000  Uiso   1.00
N181   N     0.49277   0.82260   0.98206   0.00000  Uiso   1.00
N182   N     0.49593   0.83889   0.37965   0.00000  Uiso   1.00
N183   N     0.75535   0.13727   0.31702   0.00000  Uiso   1.00
N184   N     0.68672   0.80283   0.10838   0.00000  Uiso   1.00
C185   C     0.94770   0.10973   0.14984   0.00000  Uiso   1.00
C186   C     0.97826   0.15298   0.21336   0.00000  Uiso   1.00
C187   C     0.89619   0.19302   0.19241   0.00000  Uiso   1.00
C188   C     0.94211   0.22874   0.25983   0.00000  Uiso   1.00
C189   C     0.97075   0.29652   0.34550   0.00000  Uiso   1.00
C190   C     0.97739   0.05158   0.19143   0.00000  Uiso   1.00
C191   C     0.89459   0.00636   0.15203   0.00000  Uiso   1.00
C192   C     0.93980   0.95672   0.20099   0.00000  Uiso   1.00
C193   C     0.96712   0.86706   0.25258   0.00000  Uiso   1.00
C194   C     0.04334   0.11931   0.15232   0.00000  Uiso   1.00
C195   C     0.01600   0.13101   0.08004   0.00000  Uiso   1.00
C196   C     0.11673   0.13837   0.09606   0.00000  Uiso   1.00
C197   C     0.24645   0.15387   0.08693   0.00000  Uiso   1.00
C198   C     0.17520   0.10197   0.30683   0.00000  Uiso   1.00
C199   C     0.10183   0.14877   0.29863   0.00000  Uiso   1.00
C200   C     0.14790   0.18444   0.36610   0.00000  Uiso   1.00
C201   C     0.06591   0.22452   0.34525   0.00000  Uiso   1.00
C202   C     0.10096   0.04737   0.27670   0.00000  Uiso   1.00
C203   C     0.14631   0.99778   0.32572   0.00000  Uiso   1.00
C204   C     0.06360   0.95250   0.28641   0.00000  Uiso   1.00
C205   C     0.16692   0.11509   0.23759   0.00000  Uiso   1.00
C206   C     0.26771   0.12243   0.25373   0.00000  Uiso   1.00
C207   C     0.24053   0.13415   0.18149   0.00000  Uiso   1.00
H208   H     0.85149   0.11301   0.08346   0.00000  Uiso   1.00
H209   H     0.80056   0.19626   0.12642   0.00000  Uiso   1.00
H210   H     0.79898   0.00964   0.08604   0.00000  Uiso   1.00
H211   H     0.92036   0.13427   0.01406   0.00000  Uiso   1.00
H212   H     0.79857   0.28669   0.21165   0.00000  Uiso   1.00
H213   H     0.79525   0.89317   0.12651   0.00000  Uiso   1.00
H214   H     0.05121   0.15598   0.97472   0.00000  Uiso   1.00
H215   H     0.27141   0.09869   0.37322   0.00000  Uiso   1.00
H216   H     0.24353   0.18117   0.43208   0.00000  Uiso   1.00
H217   H     0.24194   0.99454   0.39171   0.00000  Uiso   1.00
H218   H     0.36333   0.11917   0.31973   0.00000  Uiso   1.00
H219   H     0.15810   0.27444   0.45975   0.00000  Uiso   1.00
H220   H     0.15478   0.88091   0.37460   0.00000  Uiso   1.00
H221   H     0.41074   0.14373   0.22281   0.00000  Uiso   1.00
O222   O     0.95240   0.33506   0.36920   0.00000  Uiso   1.00
O223   O     0.94805   0.81878   0.25749   0.00000  Uiso   1.00
O224   O     0.28386   0.16358   0.05835   0.00000  Uiso   1.00
N225   N     0.88702   0.27250   0.26196   0.00000  Uiso   1.00
N226   N     0.88391   0.90458   0.18236   0.00000  Uiso   1.00
N227   N     0.12321   0.15027   0.04045   0.00000  Uiso   1.00
N228   N     0.08048   0.26590   0.39546   0.00000  Uiso   1.00
N229   N     0.07737   0.89799   0.31586   0.00000  Uiso   1.00
N230   N     0.31667   0.14368   0.17394   0.00000  Uiso   1.00
C231   C     0.43496   0.55219   0.63092   0.00000  Uiso   1.00
C232   C     0.44571   0.58160   0.69552   0.00000  Uiso   1.00
C233   C     0.34671   0.59531   0.67948   0.00000  Uiso   1.00
C234   C     0.37601   0.62212   0.74706   0.00000  Uiso   1.00
C235   C     0.37386   0.66583   0.83511   0.00000  Uiso   1.00
C236   C     0.51720   0.49936   0.67827   0.00000  Uiso   1.00
C237   C     0.47831   0.44393   0.64771   0.00000  Uiso   1.00
C238   C     0.56781   0.40151   0.70077   0.00000  Uiso   1.00
C239   C     0.67668   0.31756   0.76201   0.00000  Uiso   1.00
C240   C     0.49828   0.59154   0.62077   0.00000  Uiso   1.00
C241   C     0.44349   0.61360   0.54186   0.00000  Uiso   1.00
C242   C     0.51707   0.64878   0.54650   0.00000  Uiso   1.00
C243   C     0.59655   0.70794   0.51846   0.00000  Uiso   1.00
C244   C     0.66305   0.57544   0.77946   0.00000  Uiso   1.00
C245   C     0.56960   0.59422   0.77620   0.00000  Uiso   1.00
C246   C     0.59906   0.62103   0.84383   0.00000  Uiso   1.00
C247   C     0.50012   0.63477   0.82789   0.00000  Uiso   1.00
C248   C     0.64109   0.51199   0.75895   0.00000  Uiso   1.00
C249   C     0.73067   0.46965   0.81206   0.00000  Uiso   1.00
C250   C     0.69192   0.41416   0.78160   0.00000  Uiso   1.00
C251   C     0.62217   0.60417   0.70145   0.00000  Uiso   1.00
C252   C     0.69585   0.63932   0.70621   0.00000  Uiso   1.00
C253   C     0.64118   0.66143   0.62733   0.00000  Uiso   1.00
H254   H     0.33851   0.54236   0.56810   0.00000  Uiso   1.00
H255   H     0.25084   0.58552   0.61703   0.00000  Uiso   1.00
H256   H     0.38244   0.43417   0.58527   0.00000  Uiso   1.00
H257   H     0.34762   0.60382   0.47944   0.00000  Uiso   1.00
H258   H     0.20829   0.63893   0.70688   0.00000  Uiso   1.00
H259   H     0.48577   0.31980   0.63988   0.00000  Uiso   1.00
H260   H     0.41235   0.67753   0.41671   0.00000  Uiso   1.00
H261   H     0.75951   0.58527   0.84228   0.00000  Uiso   1.00
H262   H     0.69494   0.63079   0.90626   0.00000  Uiso   1.00
H263   H     0.82653   0.47943   0.87449   0.00000  Uiso   1.00
H264   H     0.79171   0.64908   0.76866   0.00000  Uiso   1.00
H265   H     0.56873   0.67567   0.94162   0.00000  Uiso   1.00
H266   H     0.84621   0.35653   0.87463   0.00000  Uiso   1.00
H267   H     0.77280   0.71426   0.65146   0.00000  Uiso   1.00
O268   O     0.33844   0.68645   0.86140   0.00000  Uiso   1.00
O269   O     0.70249   0.26776   0.77350   0.00000  Uiso   1.00
O270   O     0.60617   0.73710   0.48071   0.00000  Uiso   1.00
N271   N     0.30198   0.64134   0.75334   0.00000  Uiso   1.00
N272   N     0.56140   0.34296   0.69071   0.00000  Uiso   1.00
N273   N     0.49277   0.67740   0.48206   0.00000  Uiso   1.00
N274   N     0.49593   0.66111   0.87965   0.00000  Uiso   1.00
N275   N     0.75535   0.36273   0.81702   0.00000  Uiso   1.00
N276   N     0.68672   0.69717   0.60838   0.00000  Uiso   1.00
C277   C     0.05230   0.60973   0.35016   0.00000  Uiso   1.00
C278   C     0.02174   0.65298   0.28664   0.00000  Uiso   1.00
C279   C     0.10381   0.69302   0.30759   0.00000  Uiso   1.00
C280   C     0.05789   0.72874   0.24017   0.00000  Uiso   1.00
C281   C     0.02925   0.79652   0.15450   0.00000  Uiso   1.00
C282   C     0.02261   0.55158   0.30857   0.00000  Uiso   1.00
C283   C     0.10541   0.50636   0.34797   0.00000  Uiso   1.00
C284   C     0.06020   0.45672   0.29901   0.00000  Uiso   1.00
C285   C     0.03288   0.36706   0.24742   0.00000  Uiso   1.00
C286   C     0.95666   0.61931   0.34768   0.00000  Uiso   1.00
C287   C     0.98400   0.63101   0.41996   0.00000  Uiso   1.00
C288   C     0.88327   0.63837   0.40394   0.00000  Uiso   1.00
C289   C     0.75355   0.65387   0.41307   0.00000  Uiso   1.00
C290   C     0.82480   0.60197   0.19317   0.00000  Uiso   1.00
C291   C     0.89817   0.64877   0.20137   0.00000  Uiso   1.00
C292   C     0.85210   0.68444   0.13390   0.00000  Uiso   1.00
C293   C     0.93409   0.72452   0.15475   0.00000  Uiso   1.00
C294   C     0.89904   0.54737   0.22330   0.00000  Uiso   1.00
C295   C     0.85369   0.49778   0.17428   0.00000  Uiso   1.00
C296   C     0.93640   0.45250   0.21359   0.00000  Uiso   1.00
C297   C     0.83308   0.61509   0.26241   0.00000  Uiso   1.00
C298   C     0.73229   0.62243   0.24627   0.00000  Uiso   1.00
C299   C     0.75947   0.63415   0.31851   0.00000  Uiso   1.00
H300   H     0.14851   0.61301   0.41654   0.00000  Uiso   1.00
H301   H     0.19944   0.69626   0.37358   0.00000  Uiso   1.00
H302   H     0.20102   0.50964   0.41396   0.00000  Uiso   1.00
H303   H     0.07964   0.63427   0.48594   0.00000  Uiso   1.00
H304   H     0.20143   0.78669   0.28835   0.00000  Uiso   1.00
H305   H     0.20475   0.39317   0.37349   0.00000  Uiso   1.00
H306   H     0.94879   0.65598   0.52528   0.00000  Uiso   1.00
H307   H     0.72859   0.59869   0.12678   0.00000  Uiso   1.00
H308   H     0.75647   0.68117   0.06792   0.00000  Uiso   1.00
H309   H     0.75806   0.49454   0.10829   0.00000  Uiso   1.00
H310   H     0.63667   0.61917   0.18027   0.00000  Uiso   1.00
H311   H     0.84190   0.77444   0.04025   0.00000  Uiso   1.00
H312   H     0.84522   0.38091   0.12540   0.00000  Uiso   1.00
H313   H     0.58926   0.64373   0.27719   0.00000  Uiso   1.00
O314   O     0.04760   0.83506   0.13080   0.00000  Uiso   1.00
O315   O     0.05195   0.31878   0.24251   0.00000  Uiso   1.00
O316   O     0.71614   0.66358   0.44165   0.00000  Uiso   1.00
N317   N     0.11298   0.77250   0.23804   0.00000  Uiso   1.00
N318   N     0.11609   0.40458   0.31764   0.00000  Uiso   1.00
N319   N     0.87679   0.65027   0.45955   0.00000  Uiso   1.00
N320   N     0.91952   0.76590   0.10454   0.00000  Uiso   1.00
N321   N     0.92263   0.39799   0.18414   0.00000  Uiso   1.00
N322   N     0.68333   0.64368   0.32606   0.00000  Uiso   1.00
C323   C     0.56504   0.05219   0.86908   0.00000  Uiso   1.00
C324   C     0.55429   0.08160   0.80448   0.00000  Uiso   1.00
C325   C     0.65329   0.09531   0.82052   0.00000  Uiso   1.00
C326   C     0.62399   0.12212   0.75294   0.00000  Uiso   1.00
C327   C     0.62614   0.16583   0.66489   0.00000  Uiso   1.00
C328   C     0.48280   0.99936   0.82173   0.00000  Uiso   1.00
C329   C     0.52169   0.94393   0.85229   0.00000  Uiso   1.00
C330   C     0.43219   0.90151   0.79923   0.00000  Uiso   1.00
C331   C     0.32332   0.81756   0.73799   0.00000  Uiso   1.00
C332   C     0.50172   0.09154   0.87923   0.00000  Uiso   1.00
C333   C     0.55651   0.11360   0.95814   0.00000  Uiso   1.00
C334   C     0.48293   0.14878   0.95350   0.00000  Uiso   1.00
C335   C     0.40345   0.20794   0.98154   0.00000  Uiso   1.00
C336   C     0.33695   0.07544   0.72054   0.00000  Uiso   1.00
C337   C     0.43040   0.09422   0.72380   0.00000  Uiso   1.00
C338   C     0.40094   0.12103   0.65617   0.00000  Uiso   1.00
C339   C     0.49988   0.13477   0.67211   0.00000  Uiso   1.00
C340   C     0.35891   0.01199   0.74105   0.00000  Uiso   1.00
C341   C     0.26933   0.96965   0.68794   0.00000  Uiso   1.00
C342   C     0.30808   0.91416   0.71840   0.00000  Uiso   1.00
C343   C     0.37783   0.10417   0.79855   0.00000  Uiso   1.00
C344   C     0.30415   0.13932   0.79379   0.00000  Uiso   1.00
C345   C     0.35882   0.16143   0.87267   0.00000  Uiso   1.00
H346   H     0.66149   0.04236   0.93190   0.00000  Uiso   1.00
H347   H     0.74916   0.08552   0.88297   0.00000  Uiso   1.00
H348   H     0.61756   0.93417   0.91473   0.00000  Uiso   1.00
H349   H     0.65238   0.10382   0.02056   0.00000  Uiso   1.00
H350   H     0.79171   0.13893   0.79312   0.00000  Uiso   1.00
H351   H     0.51423   0.81980   0.86012   0.00000  Uiso   1.00
H352   H     0.58765   0.17753   0.08329   0.00000  Uiso   1.00
H353   H     0.24049   0.08527   0.65772   0.00000  Uiso   1.00
H354   H     0.30506   0.13079   0.59374   0.00000  Uiso   1.00
H355   H     0.17347   0.97943   0.62551   0.00000  Uiso   1.00
H356   H     0.20829   0.14908   0.73134   0.00000  Uiso   1.00
H357   H     0.43127   0.17567   0.55838   0.00000  Uiso   1.00
H358   H     0.15379   0.85653   0.62537   0.00000  Uiso   1.00
H359   H     0.22720   0.21426   0.84854   0.00000  Uiso   1.00
O360   O     0.66156   0.18645   0.63860   0.00000  Uiso   1.00
O361   O     0.29751   0.76776   0.72650   0.00000  Uiso   1.00
O362   O     0.39383   0.23710   0.01929   0.00000  Uiso   1.00
N363   N     0.69802   0.14134   0.74666   0.00000  Uiso   1.00
N364   N     0.43860   0.84296   0.80929   0.00000  Uiso   1.00
N365   N     0.50723   0.17740   0.01794   0.00000  Uiso   1.00
N366   N     0.50407   0.16111   0.62035   0.00000  Uiso   1.00
N367   N     0.24465   0.86273   0.68298   0.00000  Uiso   1.00
N368   N     0.31328   0.19717   0.89162   0.00000  Uiso   1.00
