data_job_07000
_audit_creation_date              2018-12-19
_audit_creation_method            'Materials Studio'
_symmetry_space_group_name_H-M    'P1'
_symmetry_Int_Tables_number       1
_symmetry_cell_setting            triclinic
loop_
_symmetry_equiv_pos_as_xyz
  x,y,z
_cell_length_a                    23.6535
_cell_length_b                    22.4357
_cell_length_c                    22.4219
_cell_angle_alpha                 70.2771
_cell_angle_beta                  74.9267
_cell_angle_gamma                 72.1266
loop_
_atom_site_label
_atom_site_type_symbol
_atom_site_fract_x
_atom_site_fract_y
_atom_site_fract_z
_atom_site_U_iso_or_equiv
_atom_site_adp_type
_atom_site_occupancy
C1     C     0.10447   0.64240   0.21878   0.00000  Uiso   1.00
C2     C     0.16690   0.63260   0.17705   0.00000  Uiso   1.00
C3     C     0.18312   0.60839   0.12404   0.00000  Uiso   1.00
C4     C     0.24248   0.60312   0.09227   0.00000  Uiso   1.00
C5     C     0.33310   0.58509   0.02436   0.00000  Uiso   1.00
C6     C     0.11352   0.60363   0.28744   0.00000  Uiso   1.00
C7     C     0.08485   0.55506   0.32724   0.00000  Uiso   1.00
C8     C     0.09927   0.52542   0.38840   0.00000  Uiso   1.00
C9     C     0.10698   0.46244   0.49189   0.00000  Uiso   1.00
C10    C     0.08548   0.71406   0.21781   0.00000  Uiso   1.00
C11    C     0.03322   0.75835   0.19908   0.00000  Uiso   1.00
C12    C     0.02402   0.82167   0.20163   0.00000  Uiso   1.00
C13    C     0.98819   0.93016   0.19700   0.00000  Uiso   1.00
C14    C     0.18106   0.67611   0.25664   0.00000  Uiso   1.00
C15    C     0.20850   0.65091   0.19761   0.00000  Uiso   1.00
C16    C     0.26785   0.64568   0.16592   0.00000  Uiso   1.00
C17    C     0.28416   0.62147   0.11287   0.00000  Uiso   1.00
C18    C     0.15512   0.62194   0.30800   0.00000  Uiso   1.00
C19    C     0.16958   0.59236   0.36912   0.00000  Uiso   1.00
C20    C     0.14094   0.54376   0.40900   0.00000  Uiso   1.00
C21    C     0.12708   0.73237   0.23837   0.00000  Uiso   1.00
C22    C     0.11795   0.79564   0.24095   0.00000  Uiso   1.00
C23    C     0.06569   0.84001   0.22223   0.00000  Uiso   1.00
H24    H     0.07209   0.62814   0.20278   0.00000  Uiso   1.00
H25    H     0.15092   0.59422   0.10814   0.00000  Uiso   1.00
H26    H     0.05266   0.54091   0.31131   0.00000  Uiso   1.00
H27    H     0.00104   0.74416   0.18317   0.00000  Uiso   1.00
H28    H     0.25667   0.56466   0.01230   0.00000  Uiso   1.00
H29    H     0.04946   0.45227   0.44071   0.00000  Uiso   1.00
H30    H     0.94061   0.88086   0.17049   0.00000  Uiso   1.00
H31    H     0.21344   0.69036   0.27265   0.00000  Uiso   1.00
H32    H     0.30003   0.65986   0.18184   0.00000  Uiso   1.00
H33    H     0.20177   0.60654   0.38501   0.00000  Uiso   1.00
H34    H     0.15015   0.80979   0.25687   0.00000  Uiso   1.00
H35    H     0.37769   0.61793   0.07212   0.00000  Uiso   1.00
H36    H     0.17048   0.50554   0.50053   0.00000  Uiso   1.00
H37    H     0.06164   0.93413   0.23031   0.00000  Uiso   1.00
O38    O     0.37160   0.57008   0.98123   0.00000  Uiso   1.00
O39    O     0.09974   0.42264   0.54328   0.00000  Uiso   1.00
O40    O     0.95694   0.98494   0.18876   0.00000  Uiso   1.00
N41    N     0.27326   0.58140   0.03884   0.00000  Uiso   1.00
N42    N     0.07955   0.47631   0.43937   0.00000  Uiso   1.00
N43    N     0.97777   0.87701   0.18675   0.00000  Uiso   1.00
N44    N     0.33839   0.61006   0.07102   0.00000  Uiso   1.00
N45    N     0.14467   0.50497   0.47155   0.00000  Uiso   1.00
N46    N     0.04290   0.90567   0.21894   0.00000  Uiso   1.00
C47    C     0.26745   0.05106   0.64445   0.00000  Uiso   1.00
C48    C     0.22208   0.11534   0.62203   0.00000  Uiso   1.00
C49    C     0.17272   0.12332   0.59510   0.00000  Uiso   1.00
C50    C     0.13664   0.18608   0.57772   0.00000  Uiso   1.00
C51    C     0.06425   0.27786   0.54147   0.00000  Uiso   1.00
C52    C     0.32925   0.06192   0.60811   0.00000  Uiso   1.00
C53    C     0.36999   0.02499   0.56947   0.00000  Uiso   1.00
C54    C     0.42412   0.04277   0.54038   0.00000  Uiso   1.00
C55    C     0.51813   0.05159   0.48254   0.00000  Uiso   1.00
C56    C     0.26727   0.04256   0.71490   0.00000  Uiso   1.00
C57    C     0.25591   0.98934   0.76606   0.00000  Uiso   1.00
C58    C     0.25787   0.99082   0.82689   0.00000  Uiso   1.00
C59    C     0.25564   0.96958   0.93487   0.00000  Uiso   1.00
C60    C     0.29116   0.14832   0.66151   0.00000  Uiso   1.00
C61    C     0.23496   0.16817   0.63130   0.00000  Uiso   1.00
C62    C     0.19895   0.23093   0.61397   0.00000  Uiso   1.00
C63    C     0.14953   0.23900   0.58701   0.00000  Uiso   1.00
C64    C     0.34213   0.11475   0.61737   0.00000  Uiso   1.00
C65    C     0.39622   0.13259   0.58834   0.00000  Uiso   1.00
C66    C     0.43702   0.09569   0.54966   0.00000  Uiso   1.00
C67    C     0.28014   0.09539   0.72417   0.00000  Uiso   1.00
C68    C     0.28213   0.09695   0.78493   0.00000  Uiso   1.00
C69    C     0.27077   0.04374   0.83617   0.00000  Uiso   1.00
H70    H     0.25743   0.00993   0.63724   0.00000  Uiso   1.00
H71    H     0.16277   0.08243   0.58793   0.00000  Uiso   1.00
H72    H     0.36001   0.98411   0.56231   0.00000  Uiso   1.00
H73    H     0.24594   0.94847   0.75887   0.00000  Uiso   1.00
H74    H     0.06352   0.18611   0.53732   0.00000  Uiso   1.00
H75    H     0.47942   0.97877   0.48332   0.00000  Uiso   1.00
H76    H     0.23889   0.90362   0.89781   0.00000  Uiso   1.00
H77    H     0.30119   0.18944   0.66872   0.00000  Uiso   1.00
H78    H     0.20892   0.27180   0.62114   0.00000  Uiso   1.00
H79    H     0.40617   0.17347   0.59552   0.00000  Uiso   1.00
H80    H     0.29210   0.13783   0.79208   0.00000  Uiso   1.00
H81    H     0.10097   0.33981   0.56427   0.00000  Uiso   1.00
H82    H     0.51688   0.13246   0.51028   0.00000  Uiso   1.00
H83    H     0.27635   0.05732   0.92476   0.00000  Uiso   1.00
O84    O     0.02077   0.31390   0.51891   0.00000  Uiso   1.00
O85    O     0.56643   0.04187   0.44808   0.00000  Uiso   1.00
O86    O     0.25085   0.94327   0.99187   0.00000  Uiso   1.00
N87    N     0.08499   0.21098   0.55021   0.00000  Uiso   1.00
N88    N     0.47383   0.01713   0.49971   0.00000  Uiso   1.00
N89    N     0.24896   0.94687   0.88722   0.00000  Uiso   1.00
N90    N     0.10514   0.29368   0.56471   0.00000  Uiso   1.00
N91    N     0.49398   0.09984   0.51422   0.00000  Uiso   1.00
N92    N     0.26912   0.02957   0.90173   0.00000  Uiso   1.00
C93    C     0.61548   0.27974   0.09130   0.00000  Uiso   1.00
C94    C     0.59727   0.22795   0.15206   0.00000  Uiso   1.00
C95    C     0.56820   0.18143   0.15554   0.00000  Uiso   1.00
C96    C     0.55544   0.13838   0.21562   0.00000  Uiso   1.00
C97    C     0.52474   0.05745   0.30166   0.00000  Uiso   1.00
C98    C     0.58586   0.34518   0.10583   0.00000  Uiso   1.00
C99    C     0.54720   0.39724   0.07045   0.00000  Uiso   1.00
C100   C     0.52485   0.45289   0.09161   0.00000  Uiso   1.00
C101   C     0.47647   0.55400   0.10587   0.00000  Uiso   1.00
C102   C     0.68321   0.27041   0.08487   0.00000  Uiso   1.00
C103   C     0.72639   0.25961   0.03186   0.00000  Uiso   1.00
C104   C     0.78599   0.25232   0.03537   0.00000  Uiso   1.00
C105   C     0.88876   0.23732   0.01708   0.00000  Uiso   1.00
C106   C     0.64453   0.28602   0.19179   0.00000  Uiso   1.00
C107   C     0.61305   0.23136   0.20664   0.00000  Uiso   1.00
C108   C     0.60034   0.18837   0.26673   0.00000  Uiso   1.00
C109   C     0.57125   0.14179   0.27030   0.00000  Uiso   1.00
C110   C     0.60164   0.34859   0.16041   0.00000  Uiso   1.00
C111   C     0.57934   0.40418   0.18163   0.00000  Uiso   1.00
C112   C     0.54065   0.45631   0.14629   0.00000  Uiso   1.00
C113   C     0.69899   0.27382   0.13946   0.00000  Uiso   1.00
C114   C     0.75853   0.26655   0.14305   0.00000  Uiso   1.00
C115   C     0.80180   0.25574   0.09005   0.00000  Uiso   1.00
H116   H     0.60320   0.27710   0.04880   0.00000  Uiso   1.00
H117   H     0.55599   0.17881   0.11329   0.00000  Uiso   1.00
H118   H     0.53501   0.39459   0.02821   0.00000  Uiso   1.00
H119   H     0.71417   0.25698   0.98963   0.00000  Uiso   1.00
H120   H     0.51059   0.07136   0.20886   0.00000  Uiso   1.00
H121   H     0.46636   0.52635   0.02945   0.00000  Uiso   1.00
H122   H     0.84416   0.23617   0.94809   0.00000  Uiso   1.00
H123   H     0.65681   0.28867   0.23429   0.00000  Uiso   1.00
H124   H     0.61255   0.19102   0.30896   0.00000  Uiso   1.00
H125   H     0.59156   0.40680   0.22387   0.00000  Uiso   1.00
H126   H     0.77073   0.26919   0.18529   0.00000  Uiso   1.00
H127   H     0.55650   0.08127   0.36767   0.00000  Uiso   1.00
H128   H     0.51227   0.53627   0.18826   0.00000  Uiso   1.00
H129   H     0.89006   0.24608   0.10690   0.00000  Uiso   1.00
O130   O     0.50344   0.01188   0.33404   0.00000  Uiso   1.00
O131   O     0.44542   0.60882   0.09865   0.00000  Uiso   1.00
O132   O     0.94108   0.22810   0.99192   0.00000  Uiso   1.00
N133   N     0.52748   0.08709   0.23599   0.00000  Uiso   1.00
N134   N     0.48612   0.51248   0.06825   0.00000  Uiso   1.00
N135   N     0.83933   0.24119   0.99219   0.00000  Uiso   1.00
N136   N     0.55218   0.09242   0.32144   0.00000  Uiso   1.00
N137   N     0.51082   0.51781   0.15371   0.00000  Uiso   1.00
N138   N     0.86403   0.24653   0.07764   0.00000  Uiso   1.00
C139   C     0.55364   0.71471   0.19148   0.00000  Uiso   1.00
C140   C     0.61063   0.66712   0.16954   0.00000  Uiso   1.00
C141   C     0.61469   0.62788   0.13146   0.00000  Uiso   1.00
C142   C     0.67090   0.58768   0.11665   0.00000  Uiso   1.00
C143   C     0.75175   0.51394   0.07914   0.00000  Uiso   1.00
C144   C     0.56883   0.78106   0.16855   0.00000  Uiso   1.00
C145   C     0.53774   0.83764   0.12965   0.00000  Uiso   1.00
C146   C     0.55875   0.89336   0.11402   0.00000  Uiso   1.00
C147   C     0.57467   0.99653   0.07501   0.00000  Uiso   1.00
C148   C     0.54492   0.69483   0.26473   0.00000  Uiso   1.00
C149   C     0.49371   0.67892   0.30671   0.00000  Uiso   1.00
C150   C     0.49458   0.66205   0.37206   0.00000  Uiso   1.00
C151   C     0.47338   0.63134   0.48239   0.00000  Uiso   1.00
C152   C     0.64624   0.71308   0.23291   0.00000  Uiso   1.00
C153   C     0.66093   0.66623   0.19204   0.00000  Uiso   1.00
C154   C     0.71714   0.62608   0.17730   0.00000  Uiso   1.00
C155   C     0.72128   0.58679   0.13920   0.00000  Uiso   1.00
C156   C     0.61912   0.78018   0.19105   0.00000  Uiso   1.00
C157   C     0.64019   0.83583   0.17549   0.00000  Uiso   1.00
C158   C     0.60914   0.89247   0.13657   0.00000  Uiso   1.00
C159   C     0.59521   0.69394   0.28724   0.00000  Uiso   1.00
C160   C     0.59616   0.67711   0.35255   0.00000  Uiso   1.00
C161   C     0.54497   0.66116   0.39461   0.00000  Uiso   1.00
H162   H     0.51449   0.71540   0.17395   0.00000  Uiso   1.00
H163   H     0.57576   0.62859   0.11404   0.00000  Uiso   1.00
H164   H     0.49882   0.83831   0.11224   0.00000  Uiso   1.00
H165   H     0.45480   0.67961   0.28927   0.00000  Uiso   1.00
H166   H     0.66588   0.53196   0.05753   0.00000  Uiso   1.00
H167   H     0.50363   0.97418   0.05374   0.00000  Uiso   1.00
H168   H     0.41081   0.63953   0.42705   0.00000  Uiso   1.00
H169   H     0.68540   0.71239   0.25043   0.00000  Uiso   1.00
H170   H     0.75605   0.62540   0.19472   0.00000  Uiso   1.00
H171   H     0.67911   0.83513   0.19291   0.00000  Uiso   1.00
H172   H     0.63509   0.67643   0.36995   0.00000  Uiso   1.00
H173   H     0.81221   0.52938   0.12300   0.00000  Uiso   1.00
H174   H     0.64995   0.97160   0.11922   0.00000  Uiso   1.00
H175   H     0.55714   0.63695   0.49253   0.00000  Uiso   1.00
O176   O     0.78245   0.47352   0.05222   0.00000  Uiso   1.00
O177   O     0.56957   0.05369   0.04727   0.00000  Uiso   1.00
O178   O     0.44779   0.61464   0.53703   0.00000  Uiso   1.00
N179   N     0.69062   0.54328   0.08059   0.00000  Uiso   1.00
N180   N     0.53893   0.95672   0.07705   0.00000  Uiso   1.00
N181   N     0.45214   0.64387   0.42606   0.00000  Uiso   1.00
N182   N     0.76936   0.54189   0.11583   0.00000  Uiso   1.00
N183   N     0.61767   0.95533   0.11228   0.00000  Uiso   1.00
N184   N     0.53088   0.64248   0.46129   0.00000  Uiso   1.00
C185   C     0.69975   0.21219   0.59758   0.00000  Uiso   1.00
C186   C     0.65808   0.18699   0.65964   0.00000  Uiso   1.00
C187   C     0.61301   0.15687   0.66514   0.00000  Uiso   1.00
C188   C     0.57981   0.13731   0.72614   0.00000  Uiso   1.00
C189   C     0.51337   0.09659   0.81437   0.00000  Uiso   1.00
C190   C     0.76387   0.17833   0.61007   0.00000  Uiso   1.00
C191   C     0.80774   0.14093   0.57388   0.00000  Uiso   1.00
C192   C     0.86360   0.11410   0.59315   0.00000  Uiso   1.00
C193   C     0.96141   0.05997   0.60438   0.00000  Uiso   1.00
C194   C     0.69184   0.28416   0.59056   0.00000  Uiso   1.00
C195   C     0.67517   0.33575   0.53798   0.00000  Uiso   1.00
C196   C     0.67040   0.39802   0.54082   0.00000  Uiso   1.00
C197   C     0.65638   0.50821   0.52177   0.00000  Uiso   1.00
C198   C     0.72094   0.23102   0.69612   0.00000  Uiso   1.00
C199   C     0.66959   0.19722   0.71316   0.00000  Uiso   1.00
C200   C     0.63645   0.17770   0.77417   0.00000  Uiso   1.00
C201   C     0.59134   0.14756   0.77976   0.00000  Uiso   1.00
C202   C     0.77538   0.18856   0.66359   0.00000  Uiso   1.00
C203   C     0.83118   0.16177   0.68291   0.00000  Uiso   1.00
C204   C     0.87513   0.12434   0.64677   0.00000  Uiso   1.00
C205   C     0.70335   0.29439   0.64409   0.00000  Uiso   1.00
C206   C     0.69861   0.35659   0.64701   0.00000  Uiso   1.00
C207   C     0.68193   0.40826   0.59444   0.00000  Uiso   1.00
H208   H     0.69080   0.20422   0.55591   0.00000  Uiso   1.00
H209   H     0.60412   0.14895   0.62371   0.00000  Uiso   1.00
H210   H     0.79883   0.13303   0.53246   0.00000  Uiso   1.00
H211   H     0.66627   0.32782   0.49657   0.00000  Uiso   1.00
H212   H     0.51311   0.09216   0.72249   0.00000  Uiso   1.00
H213   H     0.92367   0.05861   0.53007   0.00000  Uiso   1.00
H214   H     0.64415   0.46935   0.45438   0.00000  Uiso   1.00
H215   H     0.72990   0.23899   0.73779   0.00000  Uiso   1.00
H216   H     0.64536   0.18563   0.81558   0.00000  Uiso   1.00
H217   H     0.84007   0.16970   0.72433   0.00000  Uiso   1.00
H218   H     0.70752   0.36449   0.68843   0.00000  Uiso   1.00
H219   H     0.54659   0.12192   0.87822   0.00000  Uiso   1.00
H220   H     0.95715   0.08837   0.68580   0.00000  Uiso   1.00
H221   H     0.67762   0.49911   0.61011   0.00000  Uiso   1.00
O222   O     0.47355   0.07129   0.84825   0.00000  Uiso   1.00
O223   O     0.01218   0.02729   0.59579   0.00000  Uiso   1.00
O224   O     0.64546   0.56617   0.49649   0.00000  Uiso   1.00
N225   N     0.53258   0.10650   0.74846   0.00000  Uiso   1.00
N226   N     0.91643   0.07512   0.56857   0.00000  Uiso   1.00
N227   N     0.65511   0.45913   0.49780   0.00000  Uiso   1.00
N228   N     0.55060   0.12252   0.83226   0.00000  Uiso   1.00
N229   N     0.93444   0.09114   0.65237   0.00000  Uiso   1.00
N230   N     0.67313   0.47515   0.58159   0.00000  Uiso   1.00
C231   C     0.18244   0.58426   0.69724   0.00000  Uiso   1.00
C232   C     0.16098   0.64333   0.64270   0.00000  Uiso   1.00
C233   C     0.13713   0.64233   0.59276   0.00000  Uiso   1.00
C234   C     0.12014   0.70155   0.54761   0.00000  Uiso   1.00
C235   C     0.08577   0.78443   0.46223   0.00000  Uiso   1.00
C236   C     0.14690   0.60028   0.75947   0.00000  Uiso   1.00
C237   C     0.11124   0.56309   0.80770   0.00000  Uiso   1.00
C238   C     0.08240   0.58607   0.86085   0.00000  Uiso   1.00
C239   C     0.02623   0.60210   0.95677   0.00000  Uiso   1.00
C240   C     0.24781   0.58247   0.69548   0.00000  Uiso   1.00
C241   C     0.29699   0.53030   0.68993   0.00000  Uiso   1.00
C242   C     0.35311   0.53828   0.68924   0.00000  Uiso   1.00
C243   C     0.45360   0.52665   0.68581   0.00000  Uiso   1.00
C244   C     0.19466   0.69121   0.70589   0.00000  Uiso   1.00
C245   C     0.16761   0.70142   0.64740   0.00000  Uiso   1.00
C246   C     0.15065   0.76066   0.60232   0.00000  Uiso   1.00
C247   C     0.12679   0.75975   0.55231   0.00000  Uiso   1.00
C248   C     0.15354   0.65837   0.76416   0.00000  Uiso   1.00
C249   C     0.12476   0.68142   0.81726   0.00000  Uiso   1.00
C250   C     0.08905   0.64427   0.86556   0.00000  Uiso   1.00
C251   C     0.25445   0.64056   0.70018   0.00000  Uiso   1.00
C252   C     0.31051   0.64863   0.69949   0.00000  Uiso   1.00
C253   C     0.35976   0.59648   0.69394   0.00000  Uiso   1.00
H254   H     0.17727   0.53904   0.69359   0.00000  Uiso   1.00
H255   H     0.13200   0.59736   0.58914   0.00000  Uiso   1.00
H256   H     0.10612   0.51813   0.80405   0.00000  Uiso   1.00
H257   H     0.29183   0.48535   0.68630   0.00000  Uiso   1.00
H258   H     0.08471   0.68765   0.47543   0.00000  Uiso   1.00
H259   H     0.03015   0.52058   0.92859   0.00000  Uiso   1.00
H260   H     0.42178   0.45144   0.68029   0.00000  Uiso   1.00
H261   H     0.19983   0.73644   0.70954   0.00000  Uiso   1.00
H262   H     0.15579   0.80560   0.60597   0.00000  Uiso   1.00
H263   H     0.12991   0.72637   0.82088   0.00000  Uiso   1.00
H264   H     0.31563   0.69359   0.70313   0.00000  Uiso   1.00
H265   H     0.10402   0.85667   0.48908   0.00000  Uiso   1.00
H266   H     0.04946   0.68959   0.94225   0.00000  Uiso   1.00
H267   H     0.44109   0.62046   0.69395   0.00000  Uiso   1.00
O268   O     0.06497   0.81410   0.41384   0.00000  Uiso   1.00
O269   O     0.99340   0.59490   0.00838   0.00000  Uiso   1.00
O270   O     0.50720   0.50420   0.68262   0.00000  Uiso   1.00
N271   N     0.09531   0.71794   0.49285   0.00000  Uiso   1.00
N272   N     0.04429   0.56174   0.91652   0.00000  Uiso   1.00
N273   N     0.41043   0.49710   0.68440   0.00000  Uiso   1.00
N274   N     0.10570   0.80888   0.50020   0.00000  Uiso   1.00
N275   N     0.05468   0.65268   0.92387   0.00000  Uiso   1.00
N276   N     0.42082   0.58804   0.69175   0.00000  Uiso   1.00
C277   C     0.90978   0.32030   0.81696   0.00000  Uiso   1.00
C278   C     0.84772   0.35083   0.84972   0.00000  Uiso   1.00
C279   C     0.83647   0.38953   0.89046   0.00000  Uiso   1.00
C280   C     0.77654   0.41280   0.91555   0.00000  Uiso   1.00
C281   C     0.68731   0.46250   0.96870   0.00000  Uiso   1.00
C282   C     0.90812   0.34406   0.74505   0.00000  Uiso   1.00
C283   C     0.94765   0.37707   0.69778   0.00000  Uiso   1.00
C284   C     0.93857   0.39463   0.63477   0.00000  Uiso   1.00
C285   C     0.94314   0.43379   0.52541   0.00000  Uiso   1.00
C286   C     0.91429   0.24717   0.83701   0.00000  Uiso   1.00
C287   C     0.95904   0.19870   0.86705   0.00000  Uiso   1.00
C288   C     0.95517   0.13468   0.88144   0.00000  Uiso   1.00
C289   C     0.96932   0.02339   0.91487   0.00000  Uiso   1.00
C290   C     0.82336   0.29280   0.78910   0.00000  Uiso   1.00
C291   C     0.80078   0.33589   0.83459   0.00000  Uiso   1.00
C292   C     0.74085   0.35911   0.85963   0.00000  Uiso   1.00
C293   C     0.72952   0.39783   0.90040   0.00000  Uiso   1.00
C294   C     0.86118   0.32913   0.72992   0.00000  Uiso   1.00
C295   C     0.85204   0.34664   0.66696   0.00000  Uiso   1.00
C296   C     0.89155   0.37967   0.61961   0.00000  Uiso   1.00
C297   C     0.86735   0.23223   0.82188   0.00000  Uiso   1.00
C298   C     0.86342   0.16827   0.83623   0.00000  Uiso   1.00
C299   C     0.90814   0.11972   0.86628   0.00000  Uiso   1.00
H300   H     0.94633   0.33193   0.82874   0.00000  Uiso   1.00
H301   H     0.87281   0.40108   0.90215   0.00000  Uiso   1.00
H302   H     0.98398   0.38861   0.70951   0.00000  Uiso   1.00
H303   H     0.99535   0.21027   0.87875   0.00000  Uiso   1.00
H304   H     0.77059   0.47119   0.97685   0.00000  Uiso   1.00
H305   H     0.00501   0.44488   0.57065   0.00000  Uiso   1.00
H306   H     0.02901   0.06881   0.92753   0.00000  Uiso   1.00
H307   H     0.78682   0.28117   0.77732   0.00000  Uiso   1.00
H308   H     0.70454   0.34754   0.84792   0.00000  Uiso   1.00
H309   H     0.81571   0.33507   0.65527   0.00000  Uiso   1.00
H310   H     0.82709   0.15673   0.82451   0.00000  Uiso   1.00
H311   H     0.63402   0.42773   0.93283   0.00000  Uiso   1.00
H312   H     0.86845   0.40142   0.52662   0.00000  Uiso   1.00
H313   H     0.89243   0.02535   0.88351   0.00000  Uiso   1.00
O314   O     0.65106   0.49405   0.00219   0.00000  Uiso   1.00
O315   O     0.95862   0.45952   0.46927   0.00000  Uiso   1.00
O316   O     0.99009   0.96613   0.93749   0.00000  Uiso   1.00
N317   N     0.74974   0.45184   0.95681   0.00000  Uiso   1.00
N318   N     0.96891   0.42725   0.57704   0.00000  Uiso   1.00
N319   N     0.99135   0.07566   0.91067   0.00000  Uiso   1.00
N320   N     0.67625   0.42846   0.93312   0.00000  Uiso   1.00
N321   N     0.89542   0.40387   0.55335   0.00000  Uiso   1.00
N322   N     0.91786   0.05228   0.88699   0.00000  Uiso   1.00
C323   C     0.80959   0.89535   0.28127   0.00000  Uiso   1.00
C324   C     0.85571   0.83492   0.31065   0.00000  Uiso   1.00
C325   C     0.90183   0.83441   0.33860   0.00000  Uiso   1.00
C326   C     0.93928   0.77411   0.36274   0.00000  Uiso   1.00
C327   C     0.01216   0.68905   0.40895   0.00000  Uiso   1.00
C328   C     0.74780   0.88342   0.31627   0.00000  Uiso   1.00
C329   C     0.70319   0.92370   0.34894   0.00000  Uiso   1.00
C330   C     0.64979   0.90422   0.37780   0.00000  Uiso   1.00
C331   C     0.55512   0.89449   0.43271   0.00000  Uiso   1.00
C332   C     0.81463   0.89492   0.21221   0.00000  Uiso   1.00
C333   C     0.82618   0.94488   0.15737   0.00000  Uiso   1.00
C334   C     0.82903   0.93510   0.09862   0.00000  Uiso   1.00
C335   C     0.83812   0.94322   0.99195   0.00000  Uiso   1.00
C336   C     0.79408   0.78914   0.27444   0.00000  Uiso   1.00
C337   C     0.84729   0.77723   0.30695   0.00000  Uiso   1.00
C338   C     0.88468   0.71691   0.33105   0.00000  Uiso   1.00
C339   C     0.93084   0.71632   0.35902   0.00000  Uiso   1.00
C340   C     0.73938   0.82573   0.31257   0.00000  Uiso   1.00
C341   C     0.68603   0.80619   0.34139   0.00000  Uiso   1.00
C342   C     0.64135   0.84643   0.37409   0.00000  Uiso   1.00
C343   C     0.80621   0.83723   0.20850   0.00000  Uiso   1.00
C344   C     0.80903   0.82737   0.14982   0.00000  Uiso   1.00
C345   C     0.82060   0.87730   0.09491   0.00000  Uiso   1.00
H346   H     0.81614   0.94026   0.28415   0.00000  Uiso   1.00
H347   H     0.90833   0.87907   0.34146   0.00000  Uiso   1.00
H348   H     0.70972   0.96834   0.35179   0.00000  Uiso   1.00
H349   H     0.83270   0.98952   0.16026   0.00000  Uiso   1.00
H350   H     0.00681   0.78579   0.40338   0.00000  Uiso   1.00
H351   H     0.58801   0.97403   0.42515   0.00000  Uiso   1.00
H352   H     0.84734   0.01869   0.02126   0.00000  Uiso   1.00
H353   H     0.78753   0.74422   0.27156   0.00000  Uiso   1.00
H354   H     0.87815   0.67227   0.32817   0.00000  Uiso   1.00
H355   H     0.67953   0.76155   0.33851   0.00000  Uiso   1.00
H356   H     0.80251   0.78272   0.14697   0.00000  Uiso   1.00
H357   H     0.98231   0.61794   0.39260   0.00000  Uiso   1.00
H358   H     0.56351   0.80619   0.41436   0.00000  Uiso   1.00
H359   H     0.82284   0.85084   0.01048   0.00000  Uiso   1.00
O360   O     0.05467   0.65807   0.43548   0.00000  Uiso   1.00
O361   O     0.50523   0.90505   0.46402   0.00000  Uiso   1.00
O362   O     0.84546   0.96363   0.93414   0.00000  Uiso   1.00
N363   N     0.98861   0.75616   0.39306   0.00000  Uiso   1.00
N364   N     0.59707   0.93215   0.41342   0.00000  Uiso   1.00
N365   N     0.83950   0.97391   0.03582   0.00000  Uiso   1.00
N366   N     0.97543   0.66584   0.38726   0.00000  Uiso   1.00
N367   N     0.58389   0.84184   0.40762   0.00000  Uiso   1.00
N368   N     0.82632   0.88359   0.03002   0.00000  Uiso   1.00
C369   C     0.38926   0.76839   0.92766   0.00000  Uiso   1.00
C370   C     0.40044   0.82616   0.86993   0.00000  Uiso   1.00
C371   C     0.42563   0.87482   0.86907   0.00000  Uiso   1.00
C372   C     0.43209   0.92343   0.81153   0.00000  Uiso   1.00
C373   C     0.45224   0.01314   0.73019   0.00000  Uiso   1.00
C374   C     0.42234   0.70742   0.90563   0.00000  Uiso   1.00
C375   C     0.46593   0.65624   0.93479   0.00000  Uiso   1.00
C376   C     0.49082   0.60490   0.90730   0.00000  Uiso   1.00
C377   C     0.54493   0.51023   0.88143   0.00000  Uiso   1.00
C378   C     0.32218   0.77145   0.93843   0.00000  Uiso   1.00
C379   C     0.28156   0.77410   0.99518   0.00000  Uiso   1.00
C380   C     0.22213   0.77665   0.99531   0.00000  Uiso   1.00
C381   C     0.12073   0.78140   0.02037   0.00000  Uiso   1.00
C382   C     0.35597   0.76820   0.82699   0.00000  Uiso   1.00
C383   C     0.38236   0.82605   0.81525   0.00000  Uiso   1.00
C384   C     0.38879   0.87461   0.75769   0.00000  Uiso   1.00
C385   C     0.41398   0.92333   0.75675   0.00000  Uiso   1.00
C386   C     0.40426   0.70732   0.85095   0.00000  Uiso   1.00
C387   C     0.42909   0.65603   0.82342   0.00000  Uiso   1.00
C388   C     0.47271   0.60479   0.85253   0.00000  Uiso   1.00
C389   C     0.30410   0.77135   0.88375   0.00000  Uiso   1.00
C390   C     0.24472   0.77389   0.88380   0.00000  Uiso   1.00
C391   C     0.20401   0.77654   0.94054   0.00000  Uiso   1.00
H392   H     0.40334   0.76847   0.97023   0.00000  Uiso   1.00
H393   H     0.43962   0.87488   0.91139   0.00000  Uiso   1.00
H394   H     0.47991   0.65633   0.97711   0.00000  Uiso   1.00
H395   H     0.29557   0.77418   0.03748   0.00000  Uiso   1.00
H396   H     0.47189   0.99280   0.82204   0.00000  Uiso   1.00
H397   H     0.55682   0.53197   0.96062   0.00000  Uiso   1.00
H398   H     0.16810   0.78046   0.08793   0.00000  Uiso   1.00
H399   H     0.34189   0.76812   0.78442   0.00000  Uiso   1.00
H400   H     0.37480   0.87451   0.71539   0.00000  Uiso   1.00
H401   H     0.41509   0.65596   0.78111   0.00000  Uiso   1.00
H402   H     0.23075   0.77381   0.84148   0.00000  Uiso   1.00
H403   H     0.41928   0.99250   0.66296   0.00000  Uiso   1.00
H404   H     0.50421   0.53167   0.80154   0.00000  Uiso   1.00
H405   H     0.11549   0.78016   0.92885   0.00000  Uiso   1.00
O406   O     0.46836   0.06264   0.70044   0.00000  Uiso   1.00
O407   O     0.57978   0.45804   0.88226   0.00000  Uiso   1.00
O408   O     0.06979   0.78406   0.04928   0.00000  Uiso   1.00
N409   N     0.45498   0.97814   0.79408   0.00000  Uiso   1.00
N410   N     0.53440   0.54729   0.92364   0.00000  Uiso   1.00
N411   N     0.17098   0.77959   0.04267   0.00000  Uiso   1.00
N412   N     0.42667   0.97798   0.70848   0.00000  Uiso   1.00
N413   N     0.50609   0.54713   0.83804   0.00000  Uiso   1.00
N414   N     0.14267   0.77943   0.95707   0.00000  Uiso   1.00
C415   C     0.44667   0.32821   0.83370   0.00000  Uiso   1.00
C416   C     0.39239   0.38335   0.84596   0.00000  Uiso   1.00
C417   C     0.39297   0.43479   0.86677   0.00000  Uiso   1.00
C418   C     0.33861   0.48025   0.87513   0.00000  Uiso   1.00
C419   C     0.26239   0.56674   0.89604   0.00000  Uiso   1.00
C420   C     0.42907   0.26504   0.87567   0.00000  Uiso   1.00
C421   C     0.46050   0.21701   0.92145   0.00000  Uiso   1.00
C422   C     0.43702   0.16288   0.95482   0.00000  Uiso   1.00
C423   C     0.41777   0.06567   0.02182   0.00000  Uiso   1.00
C424   C     0.45168   0.32888   0.76429   0.00000  Uiso   1.00
C425   C     0.50212   0.33450   0.71643   0.00000  Uiso   1.00
C426   C     0.49767   0.33410   0.65603   0.00000  Uiso   1.00
C427   C     0.51352   0.33601   0.55010   0.00000  Uiso   1.00
C428   C     0.34910   0.31749   0.81156   0.00000  Uiso   1.00
C429   C     0.33940   0.37753   0.83393   0.00000  Uiso   1.00
C430   C     0.28502   0.42293   0.84227   0.00000  Uiso   1.00
C431   C     0.28552   0.47442   0.86308   0.00000  Uiso   1.00
C432   C     0.37608   0.25922   0.86365   0.00000  Uiso   1.00
C433   C     0.35255   0.20515   0.89695   0.00000  Uiso   1.00
C434   C     0.38393   0.15704   0.94278   0.00000  Uiso   1.00
C435   C     0.39868   0.32306   0.75227   0.00000  Uiso   1.00
C436   C     0.39417   0.32264   0.69193   0.00000  Uiso   1.00
C437   C     0.44458   0.32826   0.64398   0.00000  Uiso   1.00
H438   H     0.48793   0.33274   0.84306   0.00000  Uiso   1.00
H439   H     0.43399   0.43927   0.87607   0.00000  Uiso   1.00
H440   H     0.50151   0.22152   0.93074   0.00000  Uiso   1.00
H441   H     0.54312   0.33900   0.72575   0.00000  Uiso   1.00
H442   H     0.35082   0.55481   0.90739   0.00000  Uiso   1.00
H443   H     0.49320   0.09566   0.02265   0.00000  Uiso   1.00
H444   H     0.58094   0.34339   0.59039   0.00000  Uiso   1.00
H445   H     0.30784   0.31295   0.80219   0.00000  Uiso   1.00
H446   H     0.24402   0.41841   0.83296   0.00000  Uiso   1.00
H447   H     0.31154   0.20066   0.88763   0.00000  Uiso   1.00
H448   H     0.35315   0.31814   0.68264   0.00000  Uiso   1.00
H449   H     0.19663   0.53787   0.87240   0.00000  Uiso   1.00
H450   H     0.33901   0.07872   0.98766   0.00000  Uiso   1.00
H451   H     0.42675   0.32645   0.55540   0.00000  Uiso   1.00
O452   O     0.23498   0.61605   0.91089   0.00000  Uiso   1.00
O453   O     0.42179   0.01366   0.06210   0.00000  Uiso   1.00
O454   O     0.53690   0.33868   0.49498   0.00000  Uiso   1.00
N455   N     0.32329   0.53635   0.89492   0.00000  Uiso   1.00
N456   N     0.45640   0.10708   0.00269   0.00000  Uiso   1.00
N457   N     0.53844   0.33867   0.59857   0.00000  Uiso   1.00
N458   N     0.24032   0.52724   0.87609   0.00000  Uiso   1.00
N459   N     0.37343   0.09797   0.98386   0.00000  Uiso   1.00
N460   N     0.45547   0.32956   0.57974   0.00000  Uiso   1.00
C461   C     0.26590   0.87261   0.43416   0.00000  Uiso   1.00
C462   C     0.30588   0.90064   0.37187   0.00000  Uiso   1.00
C463   C     0.35135   0.93003   0.36681   0.00000  Uiso   1.00
C464   C     0.38277   0.95255   0.30550   0.00000  Uiso   1.00
C465   C     0.44689   0.99712   0.21704   0.00000  Uiso   1.00
C466   C     0.20108   0.90716   0.42468   0.00000  Uiso   1.00
C467   C     0.15844   0.94203   0.46402   0.00000  Uiso   1.00
C468   C     0.10165   0.97004   0.44717   0.00000  Uiso   1.00
C469   C     0.00306   0.02469   0.44072   0.00000  Uiso   1.00
C470   C     0.27357   0.80161   0.43749   0.00000  Uiso   1.00
C471   C     0.29186   0.74773   0.48760   0.00000  Uiso   1.00
C472   C     0.29608   0.68686   0.48154   0.00000  Uiso   1.00
C473   C     0.31005   0.57763   0.49496   0.00000  Uiso   1.00
C474   C     0.24085   0.86032   0.33429   0.00000  Uiso   1.00
C475   C     0.29227   0.89397   0.31763   0.00000  Uiso   1.00
C476   C     0.32364   0.91644   0.25632   0.00000  Uiso   1.00
C477   C     0.36915   0.94586   0.25116   0.00000  Uiso   1.00
C478   C     0.18748   0.90049   0.37044   0.00000  Uiso   1.00
C479   C     0.13073   0.92844   0.35353   0.00000  Uiso   1.00
C480   C     0.08802   0.96335   0.39283   0.00000  Uiso   1.00
C481   C     0.25997   0.79493   0.38324   0.00000  Uiso   1.00
C482   C     0.26415   0.73414   0.37710   0.00000  Uiso   1.00
C483   C     0.28245   0.68018   0.42720   0.00000  Uiso   1.00
H484   H     0.27649   0.87781   0.47639   0.00000  Uiso   1.00
H485   H     0.36186   0.93519   0.40880   0.00000  Uiso   1.00
H486   H     0.16898   0.94719   0.50600   0.00000  Uiso   1.00
H487   H     0.30239   0.75291   0.52957   0.00000  Uiso   1.00
H488   H     0.45049   0.99590   0.30993   0.00000  Uiso   1.00
H489   H     0.04380   0.02117   0.51490   0.00000  Uiso   1.00
H490   H     0.32510   0.61150   0.56460   0.00000  Uiso   1.00
H491   H     0.23026   0.85513   0.29206   0.00000  Uiso   1.00
H492   H     0.31310   0.91127   0.21435   0.00000  Uiso   1.00
H493   H     0.12022   0.92326   0.31156   0.00000  Uiso   1.00
H494   H     0.25362   0.72899   0.33512   0.00000  Uiso   1.00
H495   H     0.41091   0.97648   0.15211   0.00000  Uiso   1.00
H496   H     0.00422   0.00175   0.35709   0.00000  Uiso   1.00
H497   H     0.28553   0.59209   0.40678   0.00000  Uiso   1.00
O498   O     0.48602   0.02355   0.18322   0.00000  Uiso   1.00
O499   O     0.95245   0.05669   0.45214   0.00000  Uiso   1.00
O500   O     0.32152   0.51923   0.51735   0.00000  Uiso   1.00
N501   N     0.42982   0.98361   0.28345   0.00000  Uiso   1.00
N502   N     0.04958   0.00725   0.47508   0.00000  Uiso   1.00
N503   N     0.31257   0.62425   0.52156   0.00000  Uiso   1.00
N504   N     0.40852   0.97317   0.19853   0.00000  Uiso   1.00
N505   N     0.02829   0.99680   0.39016   0.00000  Uiso   1.00
N506   N     0.29127   0.61380   0.43664   0.00000  Uiso   1.00
C507   C     0.84914   0.43435   0.28602   0.00000  Uiso   1.00
C508   C     0.87755   0.36897   0.32954   0.00000  Uiso   1.00
C509   C     0.91259   0.36011   0.37422   0.00000  Uiso   1.00
C510   C     0.93443   0.29642   0.40932   0.00000  Uiso   1.00
C511   C     0.98052   0.20293   0.47828   0.00000  Uiso   1.00
C512   C     0.87206   0.42915   0.21737   0.00000  Uiso   1.00
C513   C     0.90246   0.47089   0.16774   0.00000  Uiso   1.00
C514   C     0.91967   0.45786   0.10842   0.00000  Uiso   1.00
C515   C     0.95718   0.45783   0.00323   0.00000  Uiso   1.00
C516   C     0.78171   0.43823   0.29943   0.00000  Uiso   1.00
C517   C     0.73613   0.48762   0.31879   0.00000  Uiso   1.00
C518   C     0.67727   0.48224   0.32855   0.00000  Uiso   1.00
C519   C     0.57450   0.49632   0.35077   0.00000  Uiso   1.00
C520   C     0.82564   0.33701   0.26892   0.00000  Uiso   1.00
C521   C     0.86479   0.31609   0.32024   0.00000  Uiso   1.00
C522   C     0.88658   0.25240   0.35530   0.00000  Uiso   1.00
C523   C     0.92164   0.24344   0.40002   0.00000  Uiso   1.00
C524   C     0.85929   0.37627   0.20808   0.00000  Uiso   1.00
C525   C     0.87646   0.36318   0.14882   0.00000  Uiso   1.00
C526   C     0.90688   0.40489   0.09912   0.00000  Uiso   1.00
C527   C     0.76894   0.38535   0.29015   0.00000  Uiso   1.00
C528   C     0.71013   0.37991   0.29987   0.00000  Uiso   1.00
C529   C     0.66448   0.42927   0.31924   0.00000  Uiso   1.00
H530   H     0.85908   0.47552   0.29325   0.00000  Uiso   1.00
H531   H     0.92246   0.40104   0.38138   0.00000  Uiso   1.00
H532   H     0.91233   0.51180   0.17494   0.00000  Uiso   1.00
H533   H     0.74603   0.52853   0.32597   0.00000  Uiso   1.00
H534   H     0.98712   0.29514   0.47499   0.00000  Uiso   1.00
H535   H     0.96574   0.52871   0.03969   0.00000  Uiso   1.00
H536   H     0.61506   0.56398   0.35816   0.00000  Uiso   1.00
H537   H     0.81570   0.29584   0.26169   0.00000  Uiso   1.00
H538   H     0.87669   0.21149   0.34810   0.00000  Uiso   1.00
H539   H     0.86656   0.32226   0.14165   0.00000  Uiso   1.00
H540   H     0.70027   0.33898   0.29268   0.00000  Uiso   1.00
H541   H     0.94997   0.14130   0.44797   0.00000  Uiso   1.00
H542   H     0.92859   0.37487   0.01266   0.00000  Uiso   1.00
H543   H     0.57792   0.41014   0.33114   0.00000  Uiso   1.00
O544   O     0.00947   0.16597   0.51888   0.00000  Uiso   1.00
O545   O     0.98141   0.47242   0.94777   0.00000  Uiso   1.00
O546   O     0.52134   0.51869   0.36560   0.00000  Uiso   1.00
N547   N     0.96999   0.27051   0.45678   0.00000  Uiso   1.00
N548   N     0.95001   0.48888   0.04980   0.00000  Uiso   1.00
N549   N     0.62216   0.52186   0.34753   0.00000  Uiso   1.00
N550   N     0.95001   0.18773   0.44224   0.00000  Uiso   1.00
N551   N     0.93003   0.40610   0.03526   0.00000  Uiso   1.00
N552   N     0.60218   0.43908   0.33299   0.00000  Uiso   1.00
