data_job_02770
_audit_creation_date              2018-12-19
_audit_creation_method            'Materials Studio'
_symmetry_space_group_name_H-M    'P1'
_symmetry_Int_Tables_number       1
_symmetry_cell_setting            triclinic
loop_
_symmetry_equiv_pos_as_xyz
  x,y,z
_cell_length_a                    14.6969
_cell_length_b                    18.2449
_cell_length_c                    17.9756
_cell_angle_alpha                 90.0000
_cell_angle_beta                  90.0000
_cell_angle_gamma                 90.0000
loop_
_atom_site_label
_atom_site_type_symbol
_atom_site_fract_x
_atom_site_fract_y
_atom_site_fract_z
_atom_site_U_iso_or_equiv
_atom_site_adp_type
_atom_site_occupancy
C1     C     0.55493   0.20184   0.53032   0.00000  Uiso   1.00
C2     C     0.56847   0.28124   0.50624   0.00000  Uiso   1.00
C3     C     0.64872   0.32088   0.51220   0.00000  Uiso   1.00
C4     C     0.64721   0.39281   0.48701   0.00000  Uiso   1.00
C5     C     0.68025   0.51135   0.45416   0.00000  Uiso   1.00
C6     C     0.52094   0.16109   0.46166   0.00000  Uiso   1.00
C7     C     0.56124   0.09971   0.43014   0.00000  Uiso   1.00
C8     C     0.51971   0.07048   0.36743   0.00000  Uiso   1.00
C9     C     0.47893   0.00246   0.26540   0.00000  Uiso   1.00
C10    C     0.47574   0.20242   0.58512   0.00000  Uiso   1.00
C11    C     0.47802   0.17576   0.65741   0.00000  Uiso   1.00
C12    C     0.39843   0.18132   0.69863   0.00000  Uiso   1.00
C13    C     0.28747   0.17747   0.78830   0.00000  Uiso   1.00
C14    C     0.40952   0.25909   0.47498   0.00000  Uiso   1.00
C15    C     0.48948   0.31233   0.47619   0.00000  Uiso   1.00
C16    C     0.48784   0.38422   0.45098   0.00000  Uiso   1.00
C17    C     0.56809   0.42396   0.45690   0.00000  Uiso   1.00
C18    C     0.44196   0.19218   0.43161   0.00000  Uiso   1.00
C19    C     0.40036   0.16304   0.36892   0.00000  Uiso   1.00
C20    C     0.44058   0.10163   0.33732   0.00000  Uiso   1.00
C21    C     0.39676   0.23352   0.55507   0.00000  Uiso   1.00
C22    C     0.31714   0.23911   0.59619   0.00000  Uiso   1.00
C23    C     0.31930   0.21247   0.66852   0.00000  Uiso   1.00
H24    H     0.61642   0.17763   0.55371   0.00000  Uiso   1.00
H25    H     0.70984   0.29679   0.53546   0.00000  Uiso   1.00
H26    H     0.62236   0.07565   0.45342   0.00000  Uiso   1.00
H27    H     0.53915   0.15170   0.68065   0.00000  Uiso   1.00
H28    H     0.77858   0.44262   0.50193   0.00000  Uiso   1.00
H29    H     0.59411   0.97631   0.32897   0.00000  Uiso   1.00
H30    H     0.41866   0.13667   0.80813   0.00000  Uiso   1.00
H31    H     0.34802   0.28330   0.45158   0.00000  Uiso   1.00
H32    H     0.42671   0.40827   0.42772   0.00000  Uiso   1.00
H33    H     0.33923   0.18712   0.34568   0.00000  Uiso   1.00
H34    H     0.25603   0.26317   0.57291   0.00000  Uiso   1.00
H35    H     0.54879   0.53309   0.41449   0.00000  Uiso   1.00
H36    H     0.36431   0.06678   0.24153   0.00000  Uiso   1.00
H37    H     0.18886   0.22715   0.72068   0.00000  Uiso   1.00
O38    O     0.72030   0.56815   0.44434   0.00000  Uiso   1.00
O39    O     0.47827   0.95636   0.21742   0.00000  Uiso   1.00
O40    O     0.24809   0.16676   0.84606   0.00000  Uiso   1.00
N41    N     0.71370   0.44676   0.48464   0.00000  Uiso   1.00
N42    N     0.54123   0.01080   0.32292   0.00000  Uiso   1.00
N43    N     0.37720   0.16071   0.77089   0.00000  Uiso   1.00
N44    N     0.59005   0.49545   0.43759   0.00000  Uiso   1.00
N45    N     0.41758   0.05948   0.27587   0.00000  Uiso   1.00
N46    N     0.25354   0.20939   0.72384   0.00000  Uiso   1.00
C47    C     0.94507   0.79816   0.03032   0.00000  Uiso   1.00
C48    C     0.93153   0.71876   0.00624   0.00000  Uiso   1.00
C49    C     0.85128   0.67912   0.01220   0.00000  Uiso   1.00
C50    C     0.85279   0.60719   0.98701   0.00000  Uiso   1.00
C51    C     0.81975   0.48865   0.95416   0.00000  Uiso   1.00
C52    C     0.97906   0.83891   0.96166   0.00000  Uiso   1.00
C53    C     0.93876   0.90029   0.93014   0.00000  Uiso   1.00
C54    C     0.98029   0.92952   0.86743   0.00000  Uiso   1.00
C55    C     0.02107   0.99754   0.76540   0.00000  Uiso   1.00
C56    C     0.02426   0.79758   0.08512   0.00000  Uiso   1.00
C57    C     0.02198   0.82424   0.15741   0.00000  Uiso   1.00
C58    C     0.10157   0.81868   0.19863   0.00000  Uiso   1.00
C59    C     0.21253   0.82253   0.28830   0.00000  Uiso   1.00
C60    C     0.09048   0.74091   0.97498   0.00000  Uiso   1.00
C61    C     0.01052   0.68767   0.97619   0.00000  Uiso   1.00
C62    C     0.01216   0.61578   0.95098   0.00000  Uiso   1.00
C63    C     0.93191   0.57604   0.95690   0.00000  Uiso   1.00
C64    C     0.05804   0.80782   0.93161   0.00000  Uiso   1.00
C65    C     0.09964   0.83696   0.86892   0.00000  Uiso   1.00
C66    C     0.05942   0.89837   0.83732   0.00000  Uiso   1.00
C67    C     0.10324   0.76648   0.05507   0.00000  Uiso   1.00
C68    C     0.18286   0.76089   0.09619   0.00000  Uiso   1.00
C69    C     0.18070   0.78753   0.16852   0.00000  Uiso   1.00
H70    H     0.88358   0.82237   0.05371   0.00000  Uiso   1.00
H71    H     0.79016   0.70321   0.03546   0.00000  Uiso   1.00
H72    H     0.87764   0.92435   0.95342   0.00000  Uiso   1.00
H73    H     0.96085   0.84830   0.18065   0.00000  Uiso   1.00
H74    H     0.72142   0.55738   0.00193   0.00000  Uiso   1.00
H75    H     0.90589   0.02369   0.82897   0.00000  Uiso   1.00
H76    H     0.08134   0.86333   0.30813   0.00000  Uiso   1.00
H77    H     0.15198   0.71670   0.95158   0.00000  Uiso   1.00
H78    H     0.07329   0.59173   0.92772   0.00000  Uiso   1.00
H79    H     0.16077   0.81288   0.84568   0.00000  Uiso   1.00
H80    H     0.24397   0.73683   0.07291   0.00000  Uiso   1.00
H81    H     0.95121   0.46691   0.91449   0.00000  Uiso   1.00
H82    H     0.13569   0.93322   0.74153   0.00000  Uiso   1.00
H83    H     0.31114   0.77285   0.22068   0.00000  Uiso   1.00
O84    O     0.77970   0.43185   0.94434   0.00000  Uiso   1.00
O85    O     0.02173   0.04364   0.71742   0.00000  Uiso   1.00
O86    O     0.25191   0.83324   0.34606   0.00000  Uiso   1.00
N87    N     0.78630   0.55324   0.98464   0.00000  Uiso   1.00
N88    N     0.95877   0.98920   0.82292   0.00000  Uiso   1.00
N89    N     0.12280   0.83929   0.27089   0.00000  Uiso   1.00
N90    N     0.90995   0.50455   0.93759   0.00000  Uiso   1.00
N91    N     0.08242   0.94052   0.77587   0.00000  Uiso   1.00
N92    N     0.24646   0.79061   0.22384   0.00000  Uiso   1.00
C93    C     0.44507   0.70184   0.96968   0.00000  Uiso   1.00
C94    C     0.43153   0.78124   0.99376   0.00000  Uiso   1.00
C95    C     0.35128   0.82088   0.98780   0.00000  Uiso   1.00
C96    C     0.35279   0.89281   0.01299   0.00000  Uiso   1.00
C97    C     0.31975   0.01135   0.04584   0.00000  Uiso   1.00
C98    C     0.47906   0.66109   0.03834   0.00000  Uiso   1.00
C99    C     0.43876   0.59971   0.06986   0.00000  Uiso   1.00
C100   C     0.48029   0.57048   0.13257   0.00000  Uiso   1.00
C101   C     0.52107   0.50246   0.23460   0.00000  Uiso   1.00
C102   C     0.52426   0.70242   0.91488   0.00000  Uiso   1.00
C103   C     0.52198   0.67576   0.84259   0.00000  Uiso   1.00
C104   C     0.60157   0.68132   0.80137   0.00000  Uiso   1.00
C105   C     0.71253   0.67747   0.71170   0.00000  Uiso   1.00
C106   C     0.59048   0.75909   0.02502   0.00000  Uiso   1.00
C107   C     0.51052   0.81233   0.02381   0.00000  Uiso   1.00
C108   C     0.51216   0.88422   0.04902   0.00000  Uiso   1.00
C109   C     0.43191   0.92396   0.04310   0.00000  Uiso   1.00
C110   C     0.55804   0.69218   0.06839   0.00000  Uiso   1.00
C111   C     0.59964   0.66304   0.13108   0.00000  Uiso   1.00
C112   C     0.55942   0.60163   0.16268   0.00000  Uiso   1.00
C113   C     0.60324   0.73352   0.94493   0.00000  Uiso   1.00
C114   C     0.68286   0.73911   0.90381   0.00000  Uiso   1.00
C115   C     0.68070   0.71247   0.83148   0.00000  Uiso   1.00
H116   H     0.38358   0.67763   0.94629   0.00000  Uiso   1.00
H117   H     0.29016   0.79679   0.96454   0.00000  Uiso   1.00
H118   H     0.37764   0.57565   0.04658   0.00000  Uiso   1.00
H119   H     0.46085   0.65170   0.81935   0.00000  Uiso   1.00
H120   H     0.22142   0.94262   0.99807   0.00000  Uiso   1.00
H121   H     0.40589   0.47631   0.17103   0.00000  Uiso   1.00
H122   H     0.58134   0.63667   0.69187   0.00000  Uiso   1.00
H123   H     0.65198   0.78330   0.04842   0.00000  Uiso   1.00
H124   H     0.57329   0.90827   0.07228   0.00000  Uiso   1.00
H125   H     0.66077   0.68712   0.15432   0.00000  Uiso   1.00
H126   H     0.74397   0.76317   0.92709   0.00000  Uiso   1.00
H127   H     0.45121   0.03309   0.08551   0.00000  Uiso   1.00
H128   H     0.63569   0.56678   0.25847   0.00000  Uiso   1.00
H129   H     0.81114   0.72715   0.77932   0.00000  Uiso   1.00
O130   O     0.27970   0.06815   0.05566   0.00000  Uiso   1.00
O131   O     0.52173   0.45636   0.28258   0.00000  Uiso   1.00
O132   O     0.75191   0.66676   0.65394   0.00000  Uiso   1.00
N133   N     0.28630   0.94676   0.01536   0.00000  Uiso   1.00
N134   N     0.45877   0.51080   0.17708   0.00000  Uiso   1.00
N135   N     0.62280   0.66071   0.72911   0.00000  Uiso   1.00
N136   N     0.40995   0.99545   0.06241   0.00000  Uiso   1.00
N137   N     0.58242   0.55948   0.22413   0.00000  Uiso   1.00
N138   N     0.74646   0.70939   0.77616   0.00000  Uiso   1.00
C139   C     0.05493   0.29816   0.46968   0.00000  Uiso   1.00
C140   C     0.06847   0.21876   0.49376   0.00000  Uiso   1.00
C141   C     0.14872   0.17912   0.48780   0.00000  Uiso   1.00
C142   C     0.14721   0.10719   0.51299   0.00000  Uiso   1.00
C143   C     0.18025   0.98865   0.54584   0.00000  Uiso   1.00
C144   C     0.02094   0.33891   0.53834   0.00000  Uiso   1.00
C145   C     0.06124   0.40029   0.56986   0.00000  Uiso   1.00
C146   C     0.01971   0.42952   0.63257   0.00000  Uiso   1.00
C147   C     0.97893   0.49754   0.73460   0.00000  Uiso   1.00
C148   C     0.97574   0.29758   0.41488   0.00000  Uiso   1.00
C149   C     0.97802   0.32424   0.34259   0.00000  Uiso   1.00
C150   C     0.89843   0.31868   0.30137   0.00000  Uiso   1.00
C151   C     0.78747   0.32253   0.21170   0.00000  Uiso   1.00
C152   C     0.90952   0.24091   0.52502   0.00000  Uiso   1.00
C153   C     0.98948   0.18767   0.52381   0.00000  Uiso   1.00
C154   C     0.98784   0.11578   0.54902   0.00000  Uiso   1.00
C155   C     0.06809   0.07604   0.54310   0.00000  Uiso   1.00
C156   C     0.94196   0.30782   0.56839   0.00000  Uiso   1.00
C157   C     0.90036   0.33696   0.63108   0.00000  Uiso   1.00
C158   C     0.94058   0.39837   0.66268   0.00000  Uiso   1.00
C159   C     0.89676   0.26648   0.44493   0.00000  Uiso   1.00
C160   C     0.81714   0.26089   0.40381   0.00000  Uiso   1.00
C161   C     0.81930   0.28753   0.33148   0.00000  Uiso   1.00
H162   H     0.11642   0.32237   0.44629   0.00000  Uiso   1.00
H163   H     0.20984   0.20321   0.46454   0.00000  Uiso   1.00
H164   H     0.12236   0.42435   0.54658   0.00000  Uiso   1.00
H165   H     0.03915   0.34830   0.31935   0.00000  Uiso   1.00
H166   H     0.27858   0.05738   0.49807   0.00000  Uiso   1.00
H167   H     0.09411   0.52369   0.67103   0.00000  Uiso   1.00
H168   H     0.91866   0.36333   0.19187   0.00000  Uiso   1.00
H169   H     0.84802   0.21670   0.54842   0.00000  Uiso   1.00
H170   H     0.92671   0.09173   0.57228   0.00000  Uiso   1.00
H171   H     0.83923   0.31288   0.65432   0.00000  Uiso   1.00
H172   H     0.75603   0.23683   0.42709   0.00000  Uiso   1.00
H173   H     0.04879   0.96691   0.58551   0.00000  Uiso   1.00
H174   H     0.86431   0.43322   0.75847   0.00000  Uiso   1.00
H175   H     0.68886   0.27285   0.27932   0.00000  Uiso   1.00
O176   O     0.22030   0.93185   0.55566   0.00000  Uiso   1.00
O177   O     0.97827   0.54364   0.78258   0.00000  Uiso   1.00
O178   O     0.74809   0.33324   0.15394   0.00000  Uiso   1.00
N179   N     0.21370   0.05324   0.51536   0.00000  Uiso   1.00
N180   N     0.04123   0.48920   0.67708   0.00000  Uiso   1.00
N181   N     0.87720   0.33929   0.22911   0.00000  Uiso   1.00
N182   N     0.09005   0.00455   0.56241   0.00000  Uiso   1.00
N183   N     0.91758   0.44052   0.72413   0.00000  Uiso   1.00
N184   N     0.75354   0.29061   0.27616   0.00000  Uiso   1.00
C185   C     0.44507   0.79816   0.46968   0.00000  Uiso   1.00
C186   C     0.43153   0.71876   0.49376   0.00000  Uiso   1.00
C187   C     0.35128   0.67912   0.48780   0.00000  Uiso   1.00
C188   C     0.35279   0.60719   0.51299   0.00000  Uiso   1.00
C189   C     0.31975   0.48865   0.54584   0.00000  Uiso   1.00
C190   C     0.47906   0.83891   0.53834   0.00000  Uiso   1.00
C191   C     0.43876   0.90029   0.56986   0.00000  Uiso   1.00
C192   C     0.48029   0.92952   0.63257   0.00000  Uiso   1.00
C193   C     0.52107   0.99754   0.73460   0.00000  Uiso   1.00
C194   C     0.52426   0.79758   0.41488   0.00000  Uiso   1.00
C195   C     0.52198   0.82424   0.34259   0.00000  Uiso   1.00
C196   C     0.60157   0.81868   0.30137   0.00000  Uiso   1.00
C197   C     0.71253   0.82253   0.21170   0.00000  Uiso   1.00
C198   C     0.59048   0.74091   0.52502   0.00000  Uiso   1.00
C199   C     0.51052   0.68767   0.52381   0.00000  Uiso   1.00
C200   C     0.51216   0.61578   0.54902   0.00000  Uiso   1.00
C201   C     0.43191   0.57604   0.54310   0.00000  Uiso   1.00
C202   C     0.55804   0.80782   0.56839   0.00000  Uiso   1.00
C203   C     0.59964   0.83696   0.63108   0.00000  Uiso   1.00
C204   C     0.55942   0.89837   0.66268   0.00000  Uiso   1.00
C205   C     0.60324   0.76648   0.44493   0.00000  Uiso   1.00
C206   C     0.68286   0.76089   0.40381   0.00000  Uiso   1.00
C207   C     0.68070   0.78753   0.33148   0.00000  Uiso   1.00
H208   H     0.38358   0.82237   0.44629   0.00000  Uiso   1.00
H209   H     0.29016   0.70321   0.46454   0.00000  Uiso   1.00
H210   H     0.37764   0.92435   0.54658   0.00000  Uiso   1.00
H211   H     0.46085   0.84830   0.31935   0.00000  Uiso   1.00
H212   H     0.22142   0.55738   0.49807   0.00000  Uiso   1.00
H213   H     0.40589   0.02369   0.67103   0.00000  Uiso   1.00
H214   H     0.58134   0.86333   0.19187   0.00000  Uiso   1.00
H215   H     0.65198   0.71670   0.54842   0.00000  Uiso   1.00
H216   H     0.57329   0.59173   0.57228   0.00000  Uiso   1.00
H217   H     0.66077   0.81288   0.65432   0.00000  Uiso   1.00
H218   H     0.74397   0.73683   0.42709   0.00000  Uiso   1.00
H219   H     0.45121   0.46691   0.58551   0.00000  Uiso   1.00
H220   H     0.63569   0.93322   0.75847   0.00000  Uiso   1.00
H221   H     0.81114   0.77285   0.27932   0.00000  Uiso   1.00
O222   O     0.27970   0.43185   0.55566   0.00000  Uiso   1.00
O223   O     0.52173   0.04364   0.78258   0.00000  Uiso   1.00
O224   O     0.75191   0.83324   0.15394   0.00000  Uiso   1.00
N225   N     0.28630   0.55324   0.51536   0.00000  Uiso   1.00
N226   N     0.45877   0.98920   0.67708   0.00000  Uiso   1.00
N227   N     0.62280   0.83929   0.22911   0.00000  Uiso   1.00
N228   N     0.40995   0.50455   0.56241   0.00000  Uiso   1.00
N229   N     0.58242   0.94052   0.72413   0.00000  Uiso   1.00
N230   N     0.74646   0.79061   0.27616   0.00000  Uiso   1.00
C231   C     0.05493   0.20184   0.96968   0.00000  Uiso   1.00
C232   C     0.06847   0.28124   0.99376   0.00000  Uiso   1.00
C233   C     0.14872   0.32088   0.98780   0.00000  Uiso   1.00
C234   C     0.14721   0.39281   0.01299   0.00000  Uiso   1.00
C235   C     0.18025   0.51135   0.04584   0.00000  Uiso   1.00
C236   C     0.02094   0.16109   0.03834   0.00000  Uiso   1.00
C237   C     0.06124   0.09971   0.06986   0.00000  Uiso   1.00
C238   C     0.01971   0.07048   0.13257   0.00000  Uiso   1.00
C239   C     0.97893   0.00246   0.23460   0.00000  Uiso   1.00
C240   C     0.97574   0.20242   0.91488   0.00000  Uiso   1.00
C241   C     0.97802   0.17576   0.84259   0.00000  Uiso   1.00
C242   C     0.89843   0.18132   0.80137   0.00000  Uiso   1.00
C243   C     0.78747   0.17747   0.71170   0.00000  Uiso   1.00
C244   C     0.90952   0.25909   0.02502   0.00000  Uiso   1.00
C245   C     0.98948   0.31233   0.02381   0.00000  Uiso   1.00
C246   C     0.98784   0.38422   0.04902   0.00000  Uiso   1.00
C247   C     0.06809   0.42396   0.04310   0.00000  Uiso   1.00
C248   C     0.94196   0.19218   0.06839   0.00000  Uiso   1.00
C249   C     0.90036   0.16304   0.13108   0.00000  Uiso   1.00
C250   C     0.94058   0.10163   0.16268   0.00000  Uiso   1.00
C251   C     0.89676   0.23352   0.94493   0.00000  Uiso   1.00
C252   C     0.81714   0.23911   0.90381   0.00000  Uiso   1.00
C253   C     0.81930   0.21247   0.83148   0.00000  Uiso   1.00
H254   H     0.11642   0.17763   0.94629   0.00000  Uiso   1.00
H255   H     0.20984   0.29679   0.96454   0.00000  Uiso   1.00
H256   H     0.12236   0.07565   0.04658   0.00000  Uiso   1.00
H257   H     0.03915   0.15170   0.81935   0.00000  Uiso   1.00
H258   H     0.27858   0.44262   0.99807   0.00000  Uiso   1.00
H259   H     0.09411   0.97631   0.17103   0.00000  Uiso   1.00
H260   H     0.91866   0.13667   0.69187   0.00000  Uiso   1.00
H261   H     0.84802   0.28330   0.04842   0.00000  Uiso   1.00
H262   H     0.92671   0.40827   0.07228   0.00000  Uiso   1.00
H263   H     0.83923   0.18712   0.15432   0.00000  Uiso   1.00
H264   H     0.75603   0.26317   0.92709   0.00000  Uiso   1.00
H265   H     0.04879   0.53309   0.08551   0.00000  Uiso   1.00
H266   H     0.86431   0.06678   0.25847   0.00000  Uiso   1.00
H267   H     0.68886   0.22715   0.77932   0.00000  Uiso   1.00
O268   O     0.22030   0.56815   0.05566   0.00000  Uiso   1.00
O269   O     0.97827   0.95636   0.28258   0.00000  Uiso   1.00
O270   O     0.74809   0.16676   0.65394   0.00000  Uiso   1.00
N271   N     0.21370   0.44676   0.01536   0.00000  Uiso   1.00
N272   N     0.04123   0.01080   0.17708   0.00000  Uiso   1.00
N273   N     0.87720   0.16071   0.72911   0.00000  Uiso   1.00
N274   N     0.09005   0.49545   0.06241   0.00000  Uiso   1.00
N275   N     0.91758   0.05948   0.22413   0.00000  Uiso   1.00
N276   N     0.75354   0.20939   0.77616   0.00000  Uiso   1.00
C277   C     0.55493   0.29816   0.03032   0.00000  Uiso   1.00
C278   C     0.56847   0.21876   0.00624   0.00000  Uiso   1.00
C279   C     0.64872   0.17912   0.01220   0.00000  Uiso   1.00
C280   C     0.64721   0.10719   0.98701   0.00000  Uiso   1.00
C281   C     0.68025   0.98865   0.95416   0.00000  Uiso   1.00
C282   C     0.52094   0.33891   0.96166   0.00000  Uiso   1.00
C283   C     0.56124   0.40029   0.93014   0.00000  Uiso   1.00
C284   C     0.51971   0.42952   0.86743   0.00000  Uiso   1.00
C285   C     0.47893   0.49754   0.76540   0.00000  Uiso   1.00
C286   C     0.47574   0.29758   0.08512   0.00000  Uiso   1.00
C287   C     0.47802   0.32424   0.15741   0.00000  Uiso   1.00
C288   C     0.39843   0.31868   0.19863   0.00000  Uiso   1.00
C289   C     0.28747   0.32253   0.28830   0.00000  Uiso   1.00
C290   C     0.40952   0.24091   0.97498   0.00000  Uiso   1.00
C291   C     0.48948   0.18767   0.97619   0.00000  Uiso   1.00
C292   C     0.48784   0.11578   0.95098   0.00000  Uiso   1.00
C293   C     0.56809   0.07604   0.95690   0.00000  Uiso   1.00
C294   C     0.44196   0.30782   0.93161   0.00000  Uiso   1.00
C295   C     0.40036   0.33696   0.86892   0.00000  Uiso   1.00
C296   C     0.44058   0.39837   0.83732   0.00000  Uiso   1.00
C297   C     0.39676   0.26648   0.05507   0.00000  Uiso   1.00
C298   C     0.31714   0.26089   0.09619   0.00000  Uiso   1.00
C299   C     0.31930   0.28753   0.16852   0.00000  Uiso   1.00
H300   H     0.61642   0.32237   0.05371   0.00000  Uiso   1.00
H301   H     0.70984   0.20321   0.03546   0.00000  Uiso   1.00
H302   H     0.62236   0.42435   0.95342   0.00000  Uiso   1.00
H303   H     0.53915   0.34830   0.18065   0.00000  Uiso   1.00
H304   H     0.77858   0.05738   0.00193   0.00000  Uiso   1.00
H305   H     0.59411   0.52369   0.82897   0.00000  Uiso   1.00
H306   H     0.41866   0.36333   0.30813   0.00000  Uiso   1.00
H307   H     0.34802   0.21670   0.95158   0.00000  Uiso   1.00
H308   H     0.42671   0.09173   0.92772   0.00000  Uiso   1.00
H309   H     0.33923   0.31288   0.84568   0.00000  Uiso   1.00
H310   H     0.25603   0.23683   0.07291   0.00000  Uiso   1.00
H311   H     0.54879   0.96691   0.91449   0.00000  Uiso   1.00
H312   H     0.36431   0.43322   0.74153   0.00000  Uiso   1.00
H313   H     0.18886   0.27285   0.22068   0.00000  Uiso   1.00
O314   O     0.72030   0.93185   0.94434   0.00000  Uiso   1.00
O315   O     0.47827   0.54364   0.71742   0.00000  Uiso   1.00
O316   O     0.24809   0.33324   0.34606   0.00000  Uiso   1.00
N317   N     0.71370   0.05324   0.98464   0.00000  Uiso   1.00
N318   N     0.54123   0.48920   0.82292   0.00000  Uiso   1.00
N319   N     0.37720   0.33929   0.27089   0.00000  Uiso   1.00
N320   N     0.59005   0.00455   0.93759   0.00000  Uiso   1.00
N321   N     0.41758   0.44052   0.77587   0.00000  Uiso   1.00
N322   N     0.25354   0.29061   0.22384   0.00000  Uiso   1.00
C323   C     0.94507   0.70184   0.53032   0.00000  Uiso   1.00
C324   C     0.93153   0.78124   0.50624   0.00000  Uiso   1.00
C325   C     0.85128   0.82088   0.51220   0.00000  Uiso   1.00
C326   C     0.85279   0.89281   0.48701   0.00000  Uiso   1.00
C327   C     0.81975   0.01135   0.45416   0.00000  Uiso   1.00
C328   C     0.97906   0.66109   0.46166   0.00000  Uiso   1.00
C329   C     0.93876   0.59971   0.43014   0.00000  Uiso   1.00
C330   C     0.98029   0.57048   0.36743   0.00000  Uiso   1.00
C331   C     0.02107   0.50246   0.26540   0.00000  Uiso   1.00
C332   C     0.02426   0.70242   0.58512   0.00000  Uiso   1.00
C333   C     0.02198   0.67576   0.65741   0.00000  Uiso   1.00
C334   C     0.10157   0.68132   0.69863   0.00000  Uiso   1.00
C335   C     0.21253   0.67747   0.78830   0.00000  Uiso   1.00
C336   C     0.09048   0.75909   0.47498   0.00000  Uiso   1.00
C337   C     0.01052   0.81233   0.47619   0.00000  Uiso   1.00
C338   C     0.01216   0.88422   0.45098   0.00000  Uiso   1.00
C339   C     0.93191   0.92396   0.45690   0.00000  Uiso   1.00
C340   C     0.05804   0.69218   0.43161   0.00000  Uiso   1.00
C341   C     0.09964   0.66304   0.36892   0.00000  Uiso   1.00
C342   C     0.05942   0.60163   0.33732   0.00000  Uiso   1.00
C343   C     0.10324   0.73352   0.55507   0.00000  Uiso   1.00
C344   C     0.18286   0.73911   0.59619   0.00000  Uiso   1.00
C345   C     0.18070   0.71247   0.66852   0.00000  Uiso   1.00
H346   H     0.88358   0.67763   0.55371   0.00000  Uiso   1.00
H347   H     0.79016   0.79679   0.53546   0.00000  Uiso   1.00
H348   H     0.87764   0.57565   0.45342   0.00000  Uiso   1.00
H349   H     0.96085   0.65170   0.68065   0.00000  Uiso   1.00
H350   H     0.72142   0.94262   0.50193   0.00000  Uiso   1.00
H351   H     0.90589   0.47631   0.32897   0.00000  Uiso   1.00
H352   H     0.08134   0.63667   0.80813   0.00000  Uiso   1.00
H353   H     0.15198   0.78330   0.45158   0.00000  Uiso   1.00
H354   H     0.07329   0.90827   0.42772   0.00000  Uiso   1.00
H355   H     0.16077   0.68712   0.34568   0.00000  Uiso   1.00
H356   H     0.24397   0.76317   0.57291   0.00000  Uiso   1.00
H357   H     0.95121   0.03309   0.41449   0.00000  Uiso   1.00
H358   H     0.13569   0.56678   0.24153   0.00000  Uiso   1.00
H359   H     0.31114   0.72715   0.72068   0.00000  Uiso   1.00
O360   O     0.77970   0.06815   0.44434   0.00000  Uiso   1.00
O361   O     0.02173   0.45636   0.21742   0.00000  Uiso   1.00
O362   O     0.25191   0.66676   0.84606   0.00000  Uiso   1.00
N363   N     0.78630   0.94676   0.48464   0.00000  Uiso   1.00
N364   N     0.95877   0.51080   0.32292   0.00000  Uiso   1.00
N365   N     0.12280   0.66071   0.77089   0.00000  Uiso   1.00
N366   N     0.90995   0.99545   0.43759   0.00000  Uiso   1.00
N367   N     0.08242   0.55948   0.27587   0.00000  Uiso   1.00
N368   N     0.24646   0.70939   0.72384   0.00000  Uiso   1.00
