data_job_00421
_audit_creation_date              2018-12-19
_audit_creation_method            'Materials Studio'
_symmetry_space_group_name_H-M    'P1'
_symmetry_Int_Tables_number       1
_symmetry_cell_setting            triclinic
loop_
_symmetry_equiv_pos_as_xyz
  x,y,z
_cell_length_a                    12.4157
_cell_length_b                    17.8191
_cell_length_c                    12.7574
_cell_angle_alpha                 90.0000
_cell_angle_beta                  96.2374
_cell_angle_gamma                 90.0000
loop_
_atom_site_label
_atom_site_type_symbol
_atom_site_fract_x
_atom_site_fract_y
_atom_site_fract_z
_atom_site_U_iso_or_equiv
_atom_site_adp_type
_atom_site_occupancy
C1     C     0.34668   0.83311   0.06986   0.00000  Uiso   1.00
C2     C     0.27033   0.76594   0.05635   0.00000  Uiso   1.00
C3     C     0.18597   0.75113   0.11631   0.00000  Uiso   1.00
C4     C     0.12549   0.68676   0.09158   0.00000  Uiso   1.00
C5     C     0.00346   0.58971   0.08307   0.00000  Uiso   1.00
C6     C     0.46093   0.80072   0.08700   0.00000  Uiso   1.00
C7     C     0.53681   0.81517   0.17273   0.00000  Uiso   1.00
C8     C     0.63678   0.78008   0.17378   0.00000  Uiso   1.00
C9     C     0.81067   0.73708   0.21282   0.00000  Uiso   1.00
C10    C     0.33799   0.87237   0.96308   0.00000  Uiso   1.00
C11    C     0.31054   0.94707   0.94460   0.00000  Uiso   1.00
C12    C     0.30702   0.97232   0.84132   0.00000  Uiso   1.00
C13    C     0.29003   0.04057   0.68795   0.00000  Uiso   1.00
C14    C     0.38928   0.74513   0.91931   0.00000  Uiso   1.00
C15    C     0.29348   0.71815   0.97458   0.00000  Uiso   1.00
C16    C     0.23311   0.65378   0.94974   0.00000  Uiso   1.00
C17    C     0.14867   0.63888   0.00965   0.00000  Uiso   1.00
C18    C     0.48407   0.75293   0.00523   0.00000  Uiso   1.00
C19    C     0.58395   0.71782   0.00615   0.00000  Uiso   1.00
C20    C     0.65996   0.73221   0.09186   0.00000  Uiso   1.00
C21    C     0.36112   0.82458   0.88130   0.00000  Uiso   1.00
C22    C     0.35766   0.84972   0.77803   0.00000  Uiso   1.00
C23    C     0.33020   0.92445   0.75940   0.00000  Uiso   1.00
H24    H     0.32868   0.87031   0.13353   0.00000  Uiso   1.00
H25    H     0.16810   0.78812   0.17960   0.00000  Uiso   1.00
H26    H     0.51889   0.85216   0.23599   0.00000  Uiso   1.00
H27    H     0.29264   0.98404   0.00790   0.00000  Uiso   1.00
H28    H     0.00030   0.67591   0.19463   0.00000  Uiso   1.00
H29    H     0.73997   0.81095   0.31353   0.00000  Uiso   1.00
H30    H     0.26288   0.08905   0.83256   0.00000  Uiso   1.00
H31    H     0.40730   0.70792   0.85564   0.00000  Uiso   1.00
H32    H     0.25103   0.61681   0.88645   0.00000  Uiso   1.00
H33    H     0.60182   0.68085   0.94285   0.00000  Uiso   1.00
H34    H     0.37557   0.81273   0.71477   0.00000  Uiso   1.00
H35    H     0.06762   0.53686   0.95671   0.00000  Uiso   1.00
H36    H     0.80729   0.67191   0.07560   0.00000  Uiso   1.00
H37    H     0.33019   0.95000   0.59463   0.00000  Uiso   1.00
O38    O     0.92977   0.54937   0.10098   0.00000  Uiso   1.00
O39    O     0.90019   0.72655   0.25695   0.00000  Uiso   1.00
O40    O     0.27425   0.09141   0.62593   0.00000  Uiso   1.00
N41    N     0.03757   0.65570   0.13439   0.00000  Uiso   1.00
N42    N     0.72912   0.78194   0.24556   0.00000  Uiso   1.00
N43    N     0.28310   0.04194   0.79590   0.00000  Uiso   1.00
N44    N     0.07380   0.58088   0.00637   0.00000  Uiso   1.00
N45    N     0.76534   0.70712   0.11754   0.00000  Uiso   1.00
N46    N     0.31932   0.96713   0.66788   0.00000  Uiso   1.00
C47    C     0.65332   0.33311   0.43014   0.00000  Uiso   1.00
C48    C     0.72967   0.26594   0.44365   0.00000  Uiso   1.00
C49    C     0.81403   0.25113   0.38369   0.00000  Uiso   1.00
C50    C     0.87451   0.18676   0.40842   0.00000  Uiso   1.00
C51    C     0.99654   0.08971   0.41693   0.00000  Uiso   1.00
C52    C     0.53907   0.30072   0.41300   0.00000  Uiso   1.00
C53    C     0.46319   0.31517   0.32727   0.00000  Uiso   1.00
C54    C     0.36322   0.28008   0.32622   0.00000  Uiso   1.00
C55    C     0.18933   0.23708   0.28718   0.00000  Uiso   1.00
C56    C     0.66201   0.37237   0.53692   0.00000  Uiso   1.00
C57    C     0.68946   0.44707   0.55540   0.00000  Uiso   1.00
C58    C     0.69298   0.47232   0.65868   0.00000  Uiso   1.00
C59    C     0.70997   0.54057   0.81205   0.00000  Uiso   1.00
C60    C     0.61072   0.24513   0.58069   0.00000  Uiso   1.00
C61    C     0.70652   0.21815   0.52542   0.00000  Uiso   1.00
C62    C     0.76689   0.15378   0.55026   0.00000  Uiso   1.00
C63    C     0.85133   0.13888   0.49035   0.00000  Uiso   1.00
C64    C     0.51593   0.25293   0.49477   0.00000  Uiso   1.00
C65    C     0.41605   0.21782   0.49385   0.00000  Uiso   1.00
C66    C     0.34004   0.23221   0.40814   0.00000  Uiso   1.00
C67    C     0.63888   0.32458   0.61870   0.00000  Uiso   1.00
C68    C     0.64234   0.34972   0.72197   0.00000  Uiso   1.00
C69    C     0.66980   0.42445   0.74060   0.00000  Uiso   1.00
H70    H     0.67132   0.37031   0.36647   0.00000  Uiso   1.00
H71    H     0.83190   0.28812   0.32040   0.00000  Uiso   1.00
H72    H     0.48111   0.35216   0.26401   0.00000  Uiso   1.00
H73    H     0.70736   0.48404   0.49210   0.00000  Uiso   1.00
H74    H     0.99970   0.17591   0.30537   0.00000  Uiso   1.00
H75    H     0.26003   0.31095   0.18647   0.00000  Uiso   1.00
H76    H     0.73712   0.58905   0.66744   0.00000  Uiso   1.00
H77    H     0.59270   0.20792   0.64436   0.00000  Uiso   1.00
H78    H     0.74897   0.11681   0.61355   0.00000  Uiso   1.00
H79    H     0.39818   0.18085   0.55715   0.00000  Uiso   1.00
H80    H     0.62443   0.31273   0.78523   0.00000  Uiso   1.00
H81    H     0.93238   0.03686   0.54329   0.00000  Uiso   1.00
H82    H     0.19271   0.17191   0.42440   0.00000  Uiso   1.00
H83    H     0.66981   0.45000   0.90537   0.00000  Uiso   1.00
O84    O     0.07023   0.04937   0.39902   0.00000  Uiso   1.00
O85    O     0.09981   0.22655   0.24305   0.00000  Uiso   1.00
O86    O     0.72575   0.59141   0.87407   0.00000  Uiso   1.00
N87    N     0.96243   0.15570   0.36561   0.00000  Uiso   1.00
N88    N     0.27088   0.28194   0.25444   0.00000  Uiso   1.00
N89    N     0.71690   0.54194   0.70410   0.00000  Uiso   1.00
N90    N     0.92620   0.08088   0.49363   0.00000  Uiso   1.00
N91    N     0.23466   0.20712   0.38246   0.00000  Uiso   1.00
N92    N     0.68068   0.46713   0.83212   0.00000  Uiso   1.00
C93    C     0.65332   0.16689   0.93014   0.00000  Uiso   1.00
C94    C     0.72967   0.23406   0.94365   0.00000  Uiso   1.00
C95    C     0.81403   0.24887   0.88369   0.00000  Uiso   1.00
C96    C     0.87451   0.31324   0.90842   0.00000  Uiso   1.00
C97    C     0.99654   0.41029   0.91693   0.00000  Uiso   1.00
C98    C     0.53907   0.19928   0.91300   0.00000  Uiso   1.00
C99    C     0.46319   0.18483   0.82727   0.00000  Uiso   1.00
C100   C     0.36322   0.21992   0.82622   0.00000  Uiso   1.00
C101   C     0.18933   0.26292   0.78718   0.00000  Uiso   1.00
C102   C     0.66201   0.12763   0.03692   0.00000  Uiso   1.00
C103   C     0.68946   0.05293   0.05540   0.00000  Uiso   1.00
C104   C     0.69298   0.02768   0.15868   0.00000  Uiso   1.00
C105   C     0.70997   0.95943   0.31205   0.00000  Uiso   1.00
C106   C     0.61072   0.25487   0.08069   0.00000  Uiso   1.00
C107   C     0.70652   0.28185   0.02542   0.00000  Uiso   1.00
C108   C     0.76689   0.34622   0.05026   0.00000  Uiso   1.00
C109   C     0.85133   0.36112   0.99035   0.00000  Uiso   1.00
C110   C     0.51593   0.24707   0.99477   0.00000  Uiso   1.00
C111   C     0.41605   0.28218   0.99385   0.00000  Uiso   1.00
C112   C     0.34004   0.26779   0.90814   0.00000  Uiso   1.00
C113   C     0.63888   0.17542   0.11870   0.00000  Uiso   1.00
C114   C     0.64234   0.15028   0.22197   0.00000  Uiso   1.00
C115   C     0.66980   0.07555   0.24060   0.00000  Uiso   1.00
H116   H     0.67132   0.12969   0.86647   0.00000  Uiso   1.00
H117   H     0.83190   0.21188   0.82040   0.00000  Uiso   1.00
H118   H     0.48111   0.14784   0.76401   0.00000  Uiso   1.00
H119   H     0.70736   0.01596   0.99210   0.00000  Uiso   1.00
H120   H     0.99970   0.32409   0.80537   0.00000  Uiso   1.00
H121   H     0.26003   0.18905   0.68647   0.00000  Uiso   1.00
H122   H     0.73712   0.91095   0.16744   0.00000  Uiso   1.00
H123   H     0.59270   0.29208   0.14436   0.00000  Uiso   1.00
H124   H     0.74897   0.38319   0.11355   0.00000  Uiso   1.00
H125   H     0.39818   0.31915   0.05715   0.00000  Uiso   1.00
H126   H     0.62443   0.18727   0.28523   0.00000  Uiso   1.00
H127   H     0.93238   0.46314   0.04329   0.00000  Uiso   1.00
H128   H     0.19271   0.32809   0.92440   0.00000  Uiso   1.00
H129   H     0.66981   0.05000   0.40537   0.00000  Uiso   1.00
O130   O     0.07023   0.45063   0.89902   0.00000  Uiso   1.00
O131   O     0.09981   0.27345   0.74305   0.00000  Uiso   1.00
O132   O     0.72575   0.90859   0.37407   0.00000  Uiso   1.00
N133   N     0.96243   0.34430   0.86561   0.00000  Uiso   1.00
N134   N     0.27088   0.21806   0.75444   0.00000  Uiso   1.00
N135   N     0.71690   0.95806   0.20410   0.00000  Uiso   1.00
N136   N     0.92620   0.41912   0.99363   0.00000  Uiso   1.00
N137   N     0.23466   0.29288   0.88246   0.00000  Uiso   1.00
N138   N     0.68068   0.03287   0.33212   0.00000  Uiso   1.00
C139   C     0.34668   0.66689   0.56986   0.00000  Uiso   1.00
C140   C     0.27033   0.73406   0.55635   0.00000  Uiso   1.00
C141   C     0.18597   0.74887   0.61631   0.00000  Uiso   1.00
C142   C     0.12549   0.81324   0.59158   0.00000  Uiso   1.00
C143   C     0.00346   0.91029   0.58307   0.00000  Uiso   1.00
C144   C     0.46093   0.69928   0.58700   0.00000  Uiso   1.00
C145   C     0.53681   0.68483   0.67273   0.00000  Uiso   1.00
C146   C     0.63678   0.71992   0.67378   0.00000  Uiso   1.00
C147   C     0.81067   0.76292   0.71282   0.00000  Uiso   1.00
C148   C     0.33799   0.62763   0.46308   0.00000  Uiso   1.00
C149   C     0.31054   0.55293   0.44460   0.00000  Uiso   1.00
C150   C     0.30702   0.52768   0.34132   0.00000  Uiso   1.00
C151   C     0.29003   0.45943   0.18795   0.00000  Uiso   1.00
C152   C     0.38928   0.75487   0.41931   0.00000  Uiso   1.00
C153   C     0.29348   0.78185   0.47458   0.00000  Uiso   1.00
C154   C     0.23311   0.84622   0.44974   0.00000  Uiso   1.00
C155   C     0.14867   0.86112   0.50965   0.00000  Uiso   1.00
C156   C     0.48407   0.74707   0.50523   0.00000  Uiso   1.00
C157   C     0.58395   0.78218   0.50615   0.00000  Uiso   1.00
C158   C     0.65996   0.76779   0.59186   0.00000  Uiso   1.00
C159   C     0.36112   0.67542   0.38130   0.00000  Uiso   1.00
C160   C     0.35766   0.65028   0.27803   0.00000  Uiso   1.00
C161   C     0.33020   0.57555   0.25940   0.00000  Uiso   1.00
H162   H     0.32868   0.62969   0.63353   0.00000  Uiso   1.00
H163   H     0.16810   0.71188   0.67960   0.00000  Uiso   1.00
H164   H     0.51889   0.64784   0.73599   0.00000  Uiso   1.00
H165   H     0.29264   0.51596   0.50790   0.00000  Uiso   1.00
H166   H     0.00030   0.82409   0.69463   0.00000  Uiso   1.00
H167   H     0.73997   0.68905   0.81353   0.00000  Uiso   1.00
H168   H     0.26288   0.41095   0.33256   0.00000  Uiso   1.00
H169   H     0.40730   0.79208   0.35564   0.00000  Uiso   1.00
H170   H     0.25103   0.88319   0.38645   0.00000  Uiso   1.00
H171   H     0.60182   0.81915   0.44285   0.00000  Uiso   1.00
H172   H     0.37557   0.68727   0.21477   0.00000  Uiso   1.00
H173   H     0.06762   0.96314   0.45671   0.00000  Uiso   1.00
H174   H     0.80729   0.82809   0.57560   0.00000  Uiso   1.00
H175   H     0.33019   0.55000   0.09463   0.00000  Uiso   1.00
O176   O     0.92977   0.95063   0.60098   0.00000  Uiso   1.00
O177   O     0.90019   0.77345   0.75695   0.00000  Uiso   1.00
O178   O     0.27425   0.40859   0.12593   0.00000  Uiso   1.00
N179   N     0.03757   0.84430   0.63439   0.00000  Uiso   1.00
N180   N     0.72912   0.71806   0.74556   0.00000  Uiso   1.00
N181   N     0.28310   0.45806   0.29590   0.00000  Uiso   1.00
N182   N     0.07380   0.91912   0.50637   0.00000  Uiso   1.00
N183   N     0.76534   0.79288   0.61754   0.00000  Uiso   1.00
N184   N     0.31932   0.53287   0.16788   0.00000  Uiso   1.00
