data_job_03663
_audit_creation_date              2018-12-19
_audit_creation_method            'Materials Studio'
_symmetry_space_group_name_H-M    'P1'
_symmetry_Int_Tables_number       1
_symmetry_cell_setting            triclinic
loop_
_symmetry_equiv_pos_as_xyz
  x,y,z
_cell_length_a                    46.2943
_cell_length_b                    7.2967
_cell_length_c                    18.1501
_cell_angle_alpha                 90.0000
_cell_angle_beta                  90.0000
_cell_angle_gamma                 90.0000
loop_
_atom_site_label
_atom_site_type_symbol
_atom_site_fract_x
_atom_site_fract_y
_atom_site_fract_z
_atom_site_U_iso_or_equiv
_atom_site_adp_type
_atom_site_occupancy
C1     C     0.10953   0.63823   0.74498   0.00000  Uiso   1.00
C2     C     0.13815   0.65301   0.78614   0.00000  Uiso   1.00
C3     C     0.15741   0.51049   0.79846   0.00000  Uiso   1.00
C4     C     0.18240   0.55197   0.83730   0.00000  Uiso   1.00
C5     C     0.22600   0.54786   0.89735   0.00000  Uiso   1.00
C6     C     0.08643   0.70700   0.79812   0.00000  Uiso   1.00
C7     C     0.06220   0.60988   0.82051   0.00000  Uiso   1.00
C8     C     0.04365   0.69682   0.86943   0.00000  Uiso   1.00
C9     C     0.00694   0.77659   0.94804   0.00000  Uiso   1.00
C10    C     0.11096   0.77885   0.68294   0.00000  Uiso   1.00
C11    C     0.10735   0.74215   0.60848   0.00000  Uiso   1.00
C12    C     0.10945   0.88961   0.56042   0.00000  Uiso   1.00
C13    C     0.11083   0.08093   0.46020   0.00000  Uiso   1.00
C14    C     0.11969   0.96534   0.79204   0.00000  Uiso   1.00
C15    C     0.14367   0.83069   0.81170   0.00000  Uiso   1.00
C16    C     0.16864   0.87240   0.85052   0.00000  Uiso   1.00
C17    C     0.18793   0.72996   0.86290   0.00000  Uiso   1.00
C18    C     0.09195   0.88467   0.82368   0.00000  Uiso   1.00
C19    C     0.07344   0.97178   0.87257   0.00000  Uiso   1.00
C20    C     0.04918   0.87482   0.89503   0.00000  Uiso   1.00
C21    C     0.11648   0.95653   0.70850   0.00000  Uiso   1.00
C22    C     0.11859   0.10406   0.66055   0.00000  Uiso   1.00
C23    C     0.11498   0.06760   0.58603   0.00000  Uiso   1.00
H24    H     0.10523   0.49991   0.72508   0.00000  Uiso   1.00
H25    H     0.15313   0.37300   0.77868   0.00000  Uiso   1.00
H26    H     0.05793   0.47239   0.80071   0.00000  Uiso   1.00
H27    H     0.10308   0.60465   0.58872   0.00000  Uiso   1.00
H28    H     0.20865   0.31064   0.84939   0.00000  Uiso   1.00
H29    H     0.00793   0.52023   0.89584   0.00000  Uiso   1.00
H30    H     0.10312   0.79912   0.44881   0.00000  Uiso   1.00
H31    H     0.12398   0.10368   0.81194   0.00000  Uiso   1.00
H32    H     0.17291   0.00990   0.87030   0.00000  Uiso   1.00
H33    H     0.07771   0.10928   0.89234   0.00000  Uiso   1.00
H34    H     0.12286   0.24154   0.68034   0.00000  Uiso   1.00
H35    H     0.22471   0.82757   0.92376   0.00000  Uiso   1.00
H36    H     0.02398   0.03716   0.97020   0.00000  Uiso   1.00
H37    H     0.11918   0.31604   0.52317   0.00000  Uiso   1.00
O38    O     0.24852   0.49651   0.92342   0.00000  Uiso   1.00
O39    O     0.98517   0.77149   0.98434   0.00000  Uiso   1.00
O40    O     0.11007   0.13738   0.39785   0.00000  Uiso   1.00
N41    N     0.20572   0.44518   0.85887   0.00000  Uiso   1.00
N42    N     0.01805   0.64112   0.90231   0.00000  Uiso   1.00
N43    N     0.10705   0.90186   0.48437   0.00000  Uiso   1.00
N44    N     0.21436   0.72334   0.89889   0.00000  Uiso   1.00
N45    N     0.02669   0.91927   0.94232   0.00000  Uiso   1.00
N46    N     0.11569   0.18002   0.52439   0.00000  Uiso   1.00
C47    C     0.39047   0.86177   0.74498   0.00000  Uiso   1.00
C48    C     0.36185   0.84699   0.78614   0.00000  Uiso   1.00
C49    C     0.34259   0.98951   0.79846   0.00000  Uiso   1.00
C50    C     0.31760   0.94803   0.83730   0.00000  Uiso   1.00
C51    C     0.27400   0.95214   0.89735   0.00000  Uiso   1.00
C52    C     0.41357   0.79300   0.79812   0.00000  Uiso   1.00
C53    C     0.43780   0.89012   0.82051   0.00000  Uiso   1.00
C54    C     0.45635   0.80318   0.86943   0.00000  Uiso   1.00
C55    C     0.49306   0.72341   0.94804   0.00000  Uiso   1.00
C56    C     0.38904   0.72115   0.68294   0.00000  Uiso   1.00
C57    C     0.39265   0.75785   0.60848   0.00000  Uiso   1.00
C58    C     0.39055   0.61039   0.56042   0.00000  Uiso   1.00
C59    C     0.38917   0.41907   0.46020   0.00000  Uiso   1.00
C60    C     0.38031   0.53466   0.79204   0.00000  Uiso   1.00
C61    C     0.35633   0.66931   0.81170   0.00000  Uiso   1.00
C62    C     0.33136   0.62760   0.85052   0.00000  Uiso   1.00
C63    C     0.31207   0.77004   0.86290   0.00000  Uiso   1.00
C64    C     0.40805   0.61533   0.82368   0.00000  Uiso   1.00
C65    C     0.42656   0.52822   0.87257   0.00000  Uiso   1.00
C66    C     0.45082   0.62518   0.89503   0.00000  Uiso   1.00
C67    C     0.38352   0.54347   0.70850   0.00000  Uiso   1.00
C68    C     0.38141   0.39594   0.66055   0.00000  Uiso   1.00
C69    C     0.38502   0.43240   0.58603   0.00000  Uiso   1.00
H70    H     0.39477   0.00009   0.72508   0.00000  Uiso   1.00
H71    H     0.34687   0.12700   0.77868   0.00000  Uiso   1.00
H72    H     0.44207   0.02761   0.80071   0.00000  Uiso   1.00
H73    H     0.39692   0.89535   0.58872   0.00000  Uiso   1.00
H74    H     0.29135   0.18936   0.84939   0.00000  Uiso   1.00
H75    H     0.49207   0.97977   0.89584   0.00000  Uiso   1.00
H76    H     0.39688   0.70088   0.44881   0.00000  Uiso   1.00
H77    H     0.37602   0.39632   0.81194   0.00000  Uiso   1.00
H78    H     0.32709   0.49010   0.87030   0.00000  Uiso   1.00
H79    H     0.42229   0.39072   0.89234   0.00000  Uiso   1.00
H80    H     0.37714   0.25846   0.68034   0.00000  Uiso   1.00
H81    H     0.27529   0.67243   0.92376   0.00000  Uiso   1.00
H82    H     0.47602   0.46284   0.97020   0.00000  Uiso   1.00
H83    H     0.38082   0.18396   0.52317   0.00000  Uiso   1.00
O84    O     0.25148   0.00349   0.92342   0.00000  Uiso   1.00
O85    O     0.51483   0.72851   0.98434   0.00000  Uiso   1.00
O86    O     0.38993   0.36262   0.39785   0.00000  Uiso   1.00
N87    N     0.29428   0.05482   0.85887   0.00000  Uiso   1.00
N88    N     0.48195   0.85888   0.90231   0.00000  Uiso   1.00
N89    N     0.39295   0.59814   0.48437   0.00000  Uiso   1.00
N90    N     0.28564   0.77666   0.89889   0.00000  Uiso   1.00
N91    N     0.47331   0.58073   0.94232   0.00000  Uiso   1.00
N92    N     0.38431   0.31998   0.52439   0.00000  Uiso   1.00
C93    C     0.89047   0.13823   0.75502   0.00000  Uiso   1.00
C94    C     0.86185   0.15301   0.71386   0.00000  Uiso   1.00
C95    C     0.84259   0.01049   0.70154   0.00000  Uiso   1.00
C96    C     0.81760   0.05197   0.66270   0.00000  Uiso   1.00
C97    C     0.77400   0.04786   0.60265   0.00000  Uiso   1.00
C98    C     0.91357   0.20700   0.70188   0.00000  Uiso   1.00
C99    C     0.93780   0.10988   0.67949   0.00000  Uiso   1.00
C100   C     0.95635   0.19682   0.63057   0.00000  Uiso   1.00
C101   C     0.99306   0.27659   0.55196   0.00000  Uiso   1.00
C102   C     0.88904   0.27885   0.81706   0.00000  Uiso   1.00
C103   C     0.89265   0.24215   0.89152   0.00000  Uiso   1.00
C104   C     0.89055   0.38961   0.93958   0.00000  Uiso   1.00
C105   C     0.88917   0.58093   0.03980   0.00000  Uiso   1.00
C106   C     0.88031   0.46534   0.70796   0.00000  Uiso   1.00
C107   C     0.85633   0.33069   0.68830   0.00000  Uiso   1.00
C108   C     0.83136   0.37240   0.64948   0.00000  Uiso   1.00
C109   C     0.81207   0.22996   0.63710   0.00000  Uiso   1.00
C110   C     0.90805   0.38467   0.67632   0.00000  Uiso   1.00
C111   C     0.92656   0.47178   0.62743   0.00000  Uiso   1.00
C112   C     0.95082   0.37482   0.60497   0.00000  Uiso   1.00
C113   C     0.88352   0.45653   0.79150   0.00000  Uiso   1.00
C114   C     0.88141   0.60406   0.83945   0.00000  Uiso   1.00
C115   C     0.88502   0.56760   0.91397   0.00000  Uiso   1.00
H116   H     0.89477   0.99991   0.77492   0.00000  Uiso   1.00
H117   H     0.84687   0.87300   0.72132   0.00000  Uiso   1.00
H118   H     0.94207   0.97239   0.69929   0.00000  Uiso   1.00
H119   H     0.89692   0.10465   0.91128   0.00000  Uiso   1.00
H120   H     0.79135   0.81064   0.65061   0.00000  Uiso   1.00
H121   H     0.99207   0.02023   0.60416   0.00000  Uiso   1.00
H122   H     0.89688   0.29912   0.05119   0.00000  Uiso   1.00
H123   H     0.87602   0.60368   0.68806   0.00000  Uiso   1.00
H124   H     0.82709   0.50990   0.62970   0.00000  Uiso   1.00
H125   H     0.92229   0.60928   0.60766   0.00000  Uiso   1.00
H126   H     0.87714   0.74154   0.81966   0.00000  Uiso   1.00
H127   H     0.77529   0.32757   0.57624   0.00000  Uiso   1.00
H128   H     0.97602   0.53716   0.52980   0.00000  Uiso   1.00
H129   H     0.88082   0.81604   0.97683   0.00000  Uiso   1.00
O130   O     0.75148   0.99651   0.57658   0.00000  Uiso   1.00
O131   O     0.01483   0.27149   0.51566   0.00000  Uiso   1.00
O132   O     0.88993   0.63738   0.10215   0.00000  Uiso   1.00
N133   N     0.79428   0.94518   0.64113   0.00000  Uiso   1.00
N134   N     0.98195   0.14112   0.59769   0.00000  Uiso   1.00
N135   N     0.89295   0.40186   0.01563   0.00000  Uiso   1.00
N136   N     0.78564   0.22334   0.60111   0.00000  Uiso   1.00
N137   N     0.97331   0.41927   0.55768   0.00000  Uiso   1.00
N138   N     0.88431   0.68002   0.97561   0.00000  Uiso   1.00
C139   C     0.60953   0.36177   0.75502   0.00000  Uiso   1.00
C140   C     0.63815   0.34699   0.71386   0.00000  Uiso   1.00
C141   C     0.65741   0.48951   0.70154   0.00000  Uiso   1.00
C142   C     0.68240   0.44803   0.66270   0.00000  Uiso   1.00
C143   C     0.72600   0.45214   0.60265   0.00000  Uiso   1.00
C144   C     0.58643   0.29300   0.70188   0.00000  Uiso   1.00
C145   C     0.56220   0.39012   0.67949   0.00000  Uiso   1.00
C146   C     0.54365   0.30318   0.63057   0.00000  Uiso   1.00
C147   C     0.50694   0.22341   0.55196   0.00000  Uiso   1.00
C148   C     0.61096   0.22115   0.81706   0.00000  Uiso   1.00
C149   C     0.60735   0.25785   0.89152   0.00000  Uiso   1.00
C150   C     0.60945   0.11039   0.93958   0.00000  Uiso   1.00
C151   C     0.61083   0.91907   0.03980   0.00000  Uiso   1.00
C152   C     0.61969   0.03466   0.70796   0.00000  Uiso   1.00
C153   C     0.64367   0.16931   0.68830   0.00000  Uiso   1.00
C154   C     0.66864   0.12760   0.64948   0.00000  Uiso   1.00
C155   C     0.68793   0.27004   0.63710   0.00000  Uiso   1.00
C156   C     0.59195   0.11533   0.67632   0.00000  Uiso   1.00
C157   C     0.57344   0.02822   0.62743   0.00000  Uiso   1.00
C158   C     0.54918   0.12518   0.60497   0.00000  Uiso   1.00
C159   C     0.61648   0.04347   0.79150   0.00000  Uiso   1.00
C160   C     0.61859   0.89594   0.83945   0.00000  Uiso   1.00
C161   C     0.61498   0.93240   0.91397   0.00000  Uiso   1.00
H162   H     0.60523   0.50009   0.77492   0.00000  Uiso   1.00
H163   H     0.65313   0.62700   0.72132   0.00000  Uiso   1.00
H164   H     0.55793   0.52761   0.69929   0.00000  Uiso   1.00
H165   H     0.60308   0.39535   0.91128   0.00000  Uiso   1.00
H166   H     0.70865   0.68936   0.65061   0.00000  Uiso   1.00
H167   H     0.50793   0.47977   0.60416   0.00000  Uiso   1.00
H168   H     0.60312   0.20088   0.05119   0.00000  Uiso   1.00
H169   H     0.62398   0.89632   0.68806   0.00000  Uiso   1.00
H170   H     0.67291   0.99010   0.62970   0.00000  Uiso   1.00
H171   H     0.57771   0.89072   0.60766   0.00000  Uiso   1.00
H172   H     0.62286   0.75846   0.81966   0.00000  Uiso   1.00
H173   H     0.72471   0.17243   0.57624   0.00000  Uiso   1.00
H174   H     0.52398   0.96284   0.52980   0.00000  Uiso   1.00
H175   H     0.61918   0.68396   0.97683   0.00000  Uiso   1.00
O176   O     0.74852   0.50349   0.57658   0.00000  Uiso   1.00
O177   O     0.48517   0.22851   0.51566   0.00000  Uiso   1.00
O178   O     0.61007   0.86262   0.10215   0.00000  Uiso   1.00
N179   N     0.70572   0.55482   0.64113   0.00000  Uiso   1.00
N180   N     0.51805   0.35888   0.59769   0.00000  Uiso   1.00
N181   N     0.60705   0.09814   0.01563   0.00000  Uiso   1.00
N182   N     0.71436   0.27666   0.60111   0.00000  Uiso   1.00
N183   N     0.52669   0.08073   0.55768   0.00000  Uiso   1.00
N184   N     0.61569   0.81998   0.97561   0.00000  Uiso   1.00
C185   C     0.89047   0.36177   0.25502   0.00000  Uiso   1.00
C186   C     0.86185   0.34699   0.21386   0.00000  Uiso   1.00
C187   C     0.84259   0.48951   0.20154   0.00000  Uiso   1.00
C188   C     0.81760   0.44803   0.16270   0.00000  Uiso   1.00
C189   C     0.77400   0.45214   0.10265   0.00000  Uiso   1.00
C190   C     0.91357   0.29300   0.20188   0.00000  Uiso   1.00
C191   C     0.93780   0.39012   0.17949   0.00000  Uiso   1.00
C192   C     0.95635   0.30318   0.13057   0.00000  Uiso   1.00
C193   C     0.99306   0.22341   0.05196   0.00000  Uiso   1.00
C194   C     0.88904   0.22115   0.31706   0.00000  Uiso   1.00
C195   C     0.89265   0.25785   0.39152   0.00000  Uiso   1.00
C196   C     0.89055   0.11039   0.43958   0.00000  Uiso   1.00
C197   C     0.88917   0.91907   0.53980   0.00000  Uiso   1.00
C198   C     0.88031   0.03466   0.20796   0.00000  Uiso   1.00
C199   C     0.85633   0.16931   0.18830   0.00000  Uiso   1.00
C200   C     0.83136   0.12760   0.14948   0.00000  Uiso   1.00
C201   C     0.81207   0.27004   0.13710   0.00000  Uiso   1.00
C202   C     0.90805   0.11533   0.17632   0.00000  Uiso   1.00
C203   C     0.92656   0.02822   0.12743   0.00000  Uiso   1.00
C204   C     0.95082   0.12518   0.10497   0.00000  Uiso   1.00
C205   C     0.88352   0.04347   0.29150   0.00000  Uiso   1.00
C206   C     0.88141   0.89594   0.33945   0.00000  Uiso   1.00
C207   C     0.88502   0.93240   0.41397   0.00000  Uiso   1.00
H208   H     0.89477   0.50009   0.27492   0.00000  Uiso   1.00
H209   H     0.84687   0.62700   0.22132   0.00000  Uiso   1.00
H210   H     0.94207   0.52761   0.19929   0.00000  Uiso   1.00
H211   H     0.89692   0.39535   0.41128   0.00000  Uiso   1.00
H212   H     0.79135   0.68936   0.15061   0.00000  Uiso   1.00
H213   H     0.99207   0.47977   0.10416   0.00000  Uiso   1.00
H214   H     0.89688   0.20088   0.55119   0.00000  Uiso   1.00
H215   H     0.87602   0.89632   0.18806   0.00000  Uiso   1.00
H216   H     0.82709   0.99010   0.12970   0.00000  Uiso   1.00
H217   H     0.92229   0.89072   0.10766   0.00000  Uiso   1.00
H218   H     0.87714   0.75846   0.31966   0.00000  Uiso   1.00
H219   H     0.77529   0.17243   0.07624   0.00000  Uiso   1.00
H220   H     0.97602   0.96284   0.02980   0.00000  Uiso   1.00
H221   H     0.88082   0.68396   0.47683   0.00000  Uiso   1.00
O222   O     0.75148   0.50349   0.07658   0.00000  Uiso   1.00
O223   O     0.01483   0.22851   0.01566   0.00000  Uiso   1.00
O224   O     0.88993   0.86262   0.60215   0.00000  Uiso   1.00
N225   N     0.79428   0.55482   0.14113   0.00000  Uiso   1.00
N226   N     0.98195   0.35888   0.09769   0.00000  Uiso   1.00
N227   N     0.89295   0.09814   0.51563   0.00000  Uiso   1.00
N228   N     0.78564   0.27666   0.10111   0.00000  Uiso   1.00
N229   N     0.97331   0.08073   0.05768   0.00000  Uiso   1.00
N230   N     0.88431   0.81998   0.47561   0.00000  Uiso   1.00
C231   C     0.60953   0.13823   0.25502   0.00000  Uiso   1.00
C232   C     0.63815   0.15301   0.21386   0.00000  Uiso   1.00
C233   C     0.65741   0.01049   0.20154   0.00000  Uiso   1.00
C234   C     0.68240   0.05197   0.16270   0.00000  Uiso   1.00
C235   C     0.72600   0.04786   0.10265   0.00000  Uiso   1.00
C236   C     0.58643   0.20700   0.20188   0.00000  Uiso   1.00
C237   C     0.56220   0.10988   0.17949   0.00000  Uiso   1.00
C238   C     0.54365   0.19682   0.13057   0.00000  Uiso   1.00
C239   C     0.50694   0.27659   0.05196   0.00000  Uiso   1.00
C240   C     0.61096   0.27885   0.31706   0.00000  Uiso   1.00
C241   C     0.60735   0.24215   0.39152   0.00000  Uiso   1.00
C242   C     0.60945   0.38961   0.43958   0.00000  Uiso   1.00
C243   C     0.61083   0.58093   0.53980   0.00000  Uiso   1.00
C244   C     0.61969   0.46534   0.20796   0.00000  Uiso   1.00
C245   C     0.64367   0.33069   0.18830   0.00000  Uiso   1.00
C246   C     0.66864   0.37240   0.14948   0.00000  Uiso   1.00
C247   C     0.68793   0.22996   0.13710   0.00000  Uiso   1.00
C248   C     0.59195   0.38467   0.17632   0.00000  Uiso   1.00
C249   C     0.57344   0.47178   0.12743   0.00000  Uiso   1.00
C250   C     0.54918   0.37482   0.10497   0.00000  Uiso   1.00
C251   C     0.61648   0.45653   0.29150   0.00000  Uiso   1.00
C252   C     0.61859   0.60406   0.33945   0.00000  Uiso   1.00
C253   C     0.61498   0.56760   0.41397   0.00000  Uiso   1.00
H254   H     0.60523   0.99991   0.27492   0.00000  Uiso   1.00
H255   H     0.65313   0.87300   0.22132   0.00000  Uiso   1.00
H256   H     0.55793   0.97239   0.19929   0.00000  Uiso   1.00
H257   H     0.60308   0.10465   0.41128   0.00000  Uiso   1.00
H258   H     0.70865   0.81064   0.15061   0.00000  Uiso   1.00
H259   H     0.50793   0.02023   0.10416   0.00000  Uiso   1.00
H260   H     0.60312   0.29912   0.55119   0.00000  Uiso   1.00
H261   H     0.62398   0.60368   0.18806   0.00000  Uiso   1.00
H262   H     0.67291   0.50990   0.12970   0.00000  Uiso   1.00
H263   H     0.57771   0.60928   0.10766   0.00000  Uiso   1.00
H264   H     0.62286   0.74154   0.31966   0.00000  Uiso   1.00
H265   H     0.72471   0.32757   0.07624   0.00000  Uiso   1.00
H266   H     0.52398   0.53716   0.02980   0.00000  Uiso   1.00
H267   H     0.61918   0.81604   0.47683   0.00000  Uiso   1.00
O268   O     0.74852   0.99651   0.07658   0.00000  Uiso   1.00
O269   O     0.48517   0.27149   0.01566   0.00000  Uiso   1.00
O270   O     0.61007   0.63738   0.60215   0.00000  Uiso   1.00
N271   N     0.70572   0.94518   0.14113   0.00000  Uiso   1.00
N272   N     0.51805   0.14112   0.09769   0.00000  Uiso   1.00
N273   N     0.60705   0.40186   0.51563   0.00000  Uiso   1.00
N274   N     0.71436   0.22334   0.10111   0.00000  Uiso   1.00
N275   N     0.52669   0.41927   0.05768   0.00000  Uiso   1.00
N276   N     0.61569   0.68002   0.47561   0.00000  Uiso   1.00
C277   C     0.10953   0.86177   0.24498   0.00000  Uiso   1.00
C278   C     0.13815   0.84699   0.28614   0.00000  Uiso   1.00
C279   C     0.15741   0.98951   0.29846   0.00000  Uiso   1.00
C280   C     0.18240   0.94803   0.33730   0.00000  Uiso   1.00
C281   C     0.22600   0.95214   0.39735   0.00000  Uiso   1.00
C282   C     0.08643   0.79300   0.29812   0.00000  Uiso   1.00
C283   C     0.06220   0.89012   0.32051   0.00000  Uiso   1.00
C284   C     0.04365   0.80318   0.36943   0.00000  Uiso   1.00
C285   C     0.00694   0.72341   0.44804   0.00000  Uiso   1.00
C286   C     0.11096   0.72115   0.18294   0.00000  Uiso   1.00
C287   C     0.10735   0.75785   0.10848   0.00000  Uiso   1.00
C288   C     0.10945   0.61039   0.06042   0.00000  Uiso   1.00
C289   C     0.11083   0.41907   0.96020   0.00000  Uiso   1.00
C290   C     0.11969   0.53466   0.29204   0.00000  Uiso   1.00
C291   C     0.14367   0.66931   0.31170   0.00000  Uiso   1.00
C292   C     0.16864   0.62760   0.35052   0.00000  Uiso   1.00
C293   C     0.18793   0.77004   0.36290   0.00000  Uiso   1.00
C294   C     0.09195   0.61533   0.32368   0.00000  Uiso   1.00
C295   C     0.07344   0.52822   0.37257   0.00000  Uiso   1.00
C296   C     0.04918   0.62518   0.39503   0.00000  Uiso   1.00
C297   C     0.11648   0.54347   0.20850   0.00000  Uiso   1.00
C298   C     0.11859   0.39594   0.16055   0.00000  Uiso   1.00
C299   C     0.11498   0.43240   0.08603   0.00000  Uiso   1.00
H300   H     0.10523   0.00009   0.22508   0.00000  Uiso   1.00
H301   H     0.15313   0.12700   0.27868   0.00000  Uiso   1.00
H302   H     0.05793   0.02761   0.30071   0.00000  Uiso   1.00
H303   H     0.10308   0.89535   0.08872   0.00000  Uiso   1.00
H304   H     0.20865   0.18936   0.34939   0.00000  Uiso   1.00
H305   H     0.00793   0.97977   0.39584   0.00000  Uiso   1.00
H306   H     0.10312   0.70088   0.94881   0.00000  Uiso   1.00
H307   H     0.12398   0.39632   0.31194   0.00000  Uiso   1.00
H308   H     0.17291   0.49010   0.37030   0.00000  Uiso   1.00
H309   H     0.07771   0.39072   0.39234   0.00000  Uiso   1.00
H310   H     0.12286   0.25846   0.18034   0.00000  Uiso   1.00
H311   H     0.22471   0.67243   0.42376   0.00000  Uiso   1.00
H312   H     0.02398   0.46284   0.47020   0.00000  Uiso   1.00
H313   H     0.11918   0.18396   0.02317   0.00000  Uiso   1.00
O314   O     0.24852   0.00349   0.42342   0.00000  Uiso   1.00
O315   O     0.98517   0.72851   0.48434   0.00000  Uiso   1.00
O316   O     0.11007   0.36262   0.89785   0.00000  Uiso   1.00
N317   N     0.20572   0.05482   0.35887   0.00000  Uiso   1.00
N318   N     0.01805   0.85888   0.40231   0.00000  Uiso   1.00
N319   N     0.10705   0.59814   0.98437   0.00000  Uiso   1.00
N320   N     0.21436   0.77666   0.39889   0.00000  Uiso   1.00
N321   N     0.02669   0.58073   0.44232   0.00000  Uiso   1.00
N322   N     0.11569   0.31998   0.02439   0.00000  Uiso   1.00
C323   C     0.39047   0.63823   0.24498   0.00000  Uiso   1.00
C324   C     0.36185   0.65301   0.28614   0.00000  Uiso   1.00
C325   C     0.34259   0.51049   0.29846   0.00000  Uiso   1.00
C326   C     0.31760   0.55197   0.33730   0.00000  Uiso   1.00
C327   C     0.27400   0.54786   0.39735   0.00000  Uiso   1.00
C328   C     0.41357   0.70700   0.29812   0.00000  Uiso   1.00
C329   C     0.43780   0.60988   0.32051   0.00000  Uiso   1.00
C330   C     0.45635   0.69682   0.36943   0.00000  Uiso   1.00
C331   C     0.49306   0.77659   0.44804   0.00000  Uiso   1.00
C332   C     0.38904   0.77885   0.18294   0.00000  Uiso   1.00
C333   C     0.39265   0.74215   0.10848   0.00000  Uiso   1.00
C334   C     0.39055   0.88961   0.06042   0.00000  Uiso   1.00
C335   C     0.38917   0.08093   0.96020   0.00000  Uiso   1.00
C336   C     0.38031   0.96534   0.29204   0.00000  Uiso   1.00
C337   C     0.35633   0.83069   0.31170   0.00000  Uiso   1.00
C338   C     0.33136   0.87240   0.35052   0.00000  Uiso   1.00
C339   C     0.31207   0.72996   0.36290   0.00000  Uiso   1.00
C340   C     0.40805   0.88467   0.32368   0.00000  Uiso   1.00
C341   C     0.42656   0.97178   0.37257   0.00000  Uiso   1.00
C342   C     0.45082   0.87482   0.39503   0.00000  Uiso   1.00
C343   C     0.38352   0.95653   0.20850   0.00000  Uiso   1.00
C344   C     0.38141   0.10406   0.16055   0.00000  Uiso   1.00
C345   C     0.38502   0.06760   0.08603   0.00000  Uiso   1.00
H346   H     0.39477   0.49991   0.22508   0.00000  Uiso   1.00
H347   H     0.34687   0.37300   0.27868   0.00000  Uiso   1.00
H348   H     0.44207   0.47239   0.30071   0.00000  Uiso   1.00
H349   H     0.39692   0.60465   0.08872   0.00000  Uiso   1.00
H350   H     0.29135   0.31064   0.34939   0.00000  Uiso   1.00
H351   H     0.49207   0.52023   0.39584   0.00000  Uiso   1.00
H352   H     0.39688   0.79912   0.94881   0.00000  Uiso   1.00
H353   H     0.37602   0.10368   0.31194   0.00000  Uiso   1.00
H354   H     0.32709   0.00990   0.37030   0.00000  Uiso   1.00
H355   H     0.42229   0.10928   0.39234   0.00000  Uiso   1.00
H356   H     0.37714   0.24154   0.18034   0.00000  Uiso   1.00
H357   H     0.27529   0.82757   0.42376   0.00000  Uiso   1.00
H358   H     0.47602   0.03716   0.47020   0.00000  Uiso   1.00
H359   H     0.38082   0.31604   0.02317   0.00000  Uiso   1.00
O360   O     0.25148   0.49651   0.42342   0.00000  Uiso   1.00
O361   O     0.51483   0.77149   0.48434   0.00000  Uiso   1.00
O362   O     0.38993   0.13738   0.89785   0.00000  Uiso   1.00
N363   N     0.29428   0.44518   0.35887   0.00000  Uiso   1.00
N364   N     0.48195   0.64112   0.40231   0.00000  Uiso   1.00
N365   N     0.39295   0.90186   0.98437   0.00000  Uiso   1.00
N366   N     0.28564   0.72334   0.39889   0.00000  Uiso   1.00
N367   N     0.47331   0.91927   0.44232   0.00000  Uiso   1.00
N368   N     0.38431   0.18002   0.02439   0.00000  Uiso   1.00
