data_job_05479
_audit_creation_date              2018-12-19
_audit_creation_method            'Materials Studio'
_symmetry_space_group_name_H-M    'P1'
_symmetry_Int_Tables_number       1
_symmetry_cell_setting            triclinic
loop_
_symmetry_equiv_pos_as_xyz
  x,y,z
_cell_length_a                    20.6998
_cell_length_b                    20.6998
_cell_length_c                    10.6482
_cell_angle_alpha                 90.0000
_cell_angle_beta                  90.0000
_cell_angle_gamma                 90.0000
loop_
_atom_site_label
_atom_site_type_symbol
_atom_site_fract_x
_atom_site_fract_y
_atom_site_fract_z
_atom_site_U_iso_or_equiv
_atom_site_adp_type
_atom_site_occupancy
C1     C     0.17890   0.06646   0.14707   0.00000  Uiso   1.00
C2     C     0.23440   0.04447   0.06315   0.00000  Uiso   1.00
C3     C     0.23850   0.05374   0.93432   0.00000  Uiso   1.00
C4     C     0.29319   0.03001   0.87459   0.00000  Uiso   1.00
C5     C     0.37193   0.00068   0.73412   0.00000  Uiso   1.00
C6     C     0.15467   0.00598   0.21391   0.00000  Uiso   1.00
C7     C     0.09173   0.98290   0.21184   0.00000  Uiso   1.00
C8     C     0.07931   0.92677   0.27904   0.00000  Uiso   1.00
C9     C     0.03425   0.83772   0.37269   0.00000  Uiso   1.00
C10    C     0.20920   0.10875   0.24845   0.00000  Uiso   1.00
C11    C     0.19211   0.17208   0.27546   0.00000  Uiso   1.00
C12    C     0.22559   0.20247   0.37176   0.00000  Uiso   1.00
C13    C     0.26520   0.27298   0.51905   0.00000  Uiso   1.00
C14    C     0.26875   0.00784   0.27010   0.00000  Uiso   1.00
C15    C     0.28320   0.01263   0.12998   0.00000  Uiso   1.00
C16    C     0.33791   0.98888   0.07043   0.00000  Uiso   1.00
C17    C     0.34209   0.99811   0.94153   0.00000  Uiso   1.00
C18    C     0.20347   0.97414   0.28073   0.00000  Uiso   1.00
C19    C     0.19114   0.91804   0.34796   0.00000  Uiso   1.00
C20    C     0.12820   0.89487   0.34599   0.00000  Uiso   1.00
C21    C     0.25801   0.07691   0.31528   0.00000  Uiso   1.00
C22    C     0.29152   0.10722   0.41156   0.00000  Uiso   1.00
C23    C     0.27448   0.17057   0.43871   0.00000  Uiso   1.00
H24    H     0.14090   0.09125   0.09505   0.00000  Uiso   1.00
H25    H     0.20072   0.07838   0.88264   0.00000  Uiso   1.00
H26    H     0.05397   0.00755   0.16013   0.00000  Uiso   1.00
H27    H     0.15434   0.19670   0.22373   0.00000  Uiso   1.00
H28    H     0.28854   0.05004   0.67661   0.00000  Uiso   1.00
H29    H     0.97912   0.90072   0.26175   0.00000  Uiso   1.00
H30    H     0.19076   0.29957   0.39586   0.00000  Uiso   1.00
H31    H     0.30675   0.98305   0.32212   0.00000  Uiso   1.00
H32    H     0.37566   0.96424   0.12217   0.00000  Uiso   1.00
H33    H     0.22892   0.89342   0.39966   0.00000  Uiso   1.00
H34    H     0.32928   0.08256   0.46326   0.00000  Uiso   1.00
H35    H     0.43053   0.95740   0.87101   0.00000  Uiso   1.00
H36    H     0.12111   0.80808   0.45616   0.00000  Uiso   1.00
H37    H     0.33275   0.20693   0.59027   0.00000  Uiso   1.00
O38    O     0.40187   0.99329   0.63817   0.00000  Uiso   1.00
O39    O     0.99592   0.79739   0.40588   0.00000  Uiso   1.00
O40    O     0.27358   0.32067   0.58182   0.00000  Uiso   1.00
N41    N     0.31251   0.03083   0.74981   0.00000  Uiso   1.00
N42    N     0.02322   0.89122   0.29686   0.00000  Uiso   1.00
N43    N     0.22107   0.26411   0.42227   0.00000  Uiso   1.00
N44    N     0.38891   0.98099   0.85441   0.00000  Uiso   1.00
N45    N     0.09962   0.84137   0.40147   0.00000  Uiso   1.00
N46    N     0.29747   0.21426   0.52688   0.00000  Uiso   1.00
C47    C     0.82110   0.93354   0.14707   0.00000  Uiso   1.00
C48    C     0.76560   0.95553   0.06315   0.00000  Uiso   1.00
C49    C     0.76150   0.94626   0.93432   0.00000  Uiso   1.00
C50    C     0.70681   0.96999   0.87459   0.00000  Uiso   1.00
C51    C     0.62807   0.99932   0.73412   0.00000  Uiso   1.00
C52    C     0.84533   0.99402   0.21391   0.00000  Uiso   1.00
C53    C     0.90827   0.01710   0.21184   0.00000  Uiso   1.00
C54    C     0.92069   0.07323   0.27904   0.00000  Uiso   1.00
C55    C     0.96575   0.16228   0.37269   0.00000  Uiso   1.00
C56    C     0.79080   0.89125   0.24845   0.00000  Uiso   1.00
C57    C     0.80789   0.82792   0.27546   0.00000  Uiso   1.00
C58    C     0.77441   0.79753   0.37176   0.00000  Uiso   1.00
C59    C     0.73480   0.72702   0.51905   0.00000  Uiso   1.00
C60    C     0.73125   0.99216   0.27010   0.00000  Uiso   1.00
C61    C     0.71680   0.98737   0.12998   0.00000  Uiso   1.00
C62    C     0.66209   0.01112   0.07043   0.00000  Uiso   1.00
C63    C     0.65791   0.00189   0.94153   0.00000  Uiso   1.00
C64    C     0.79653   0.02586   0.28073   0.00000  Uiso   1.00
C65    C     0.80886   0.08196   0.34796   0.00000  Uiso   1.00
C66    C     0.87180   0.10513   0.34599   0.00000  Uiso   1.00
C67    C     0.74199   0.92309   0.31528   0.00000  Uiso   1.00
C68    C     0.70848   0.89278   0.41156   0.00000  Uiso   1.00
C69    C     0.72552   0.82943   0.43871   0.00000  Uiso   1.00
H70    H     0.85910   0.90875   0.09505   0.00000  Uiso   1.00
H71    H     0.79928   0.92162   0.88264   0.00000  Uiso   1.00
H72    H     0.94603   0.99245   0.16013   0.00000  Uiso   1.00
H73    H     0.84566   0.80330   0.22373   0.00000  Uiso   1.00
H74    H     0.71146   0.94996   0.67661   0.00000  Uiso   1.00
H75    H     0.02088   0.09928   0.26175   0.00000  Uiso   1.00
H76    H     0.80924   0.70043   0.39586   0.00000  Uiso   1.00
H77    H     0.69325   0.01695   0.32212   0.00000  Uiso   1.00
H78    H     0.62434   0.03576   0.12217   0.00000  Uiso   1.00
H79    H     0.77108   0.10658   0.39966   0.00000  Uiso   1.00
H80    H     0.67072   0.91744   0.46326   0.00000  Uiso   1.00
H81    H     0.56947   0.04260   0.87101   0.00000  Uiso   1.00
H82    H     0.87889   0.19192   0.45616   0.00000  Uiso   1.00
H83    H     0.66725   0.79307   0.59027   0.00000  Uiso   1.00
O84    O     0.59813   0.00671   0.63817   0.00000  Uiso   1.00
O85    O     0.00408   0.20261   0.40588   0.00000  Uiso   1.00
O86    O     0.72642   0.67933   0.58182   0.00000  Uiso   1.00
N87    N     0.68749   0.96917   0.74981   0.00000  Uiso   1.00
N88    N     0.97678   0.10878   0.29686   0.00000  Uiso   1.00
N89    N     0.77893   0.73589   0.42227   0.00000  Uiso   1.00
N90    N     0.61109   0.01901   0.85441   0.00000  Uiso   1.00
N91    N     0.90038   0.15863   0.40147   0.00000  Uiso   1.00
N92    N     0.70253   0.78574   0.52688   0.00000  Uiso   1.00
C93    C     0.06646   0.82110   0.85293   0.00000  Uiso   1.00
C94    C     0.04447   0.76560   0.93685   0.00000  Uiso   1.00
C95    C     0.05374   0.76150   0.06568   0.00000  Uiso   1.00
C96    C     0.03001   0.70681   0.12541   0.00000  Uiso   1.00
C97    C     0.00068   0.62807   0.26588   0.00000  Uiso   1.00
C98    C     0.00598   0.84533   0.78609   0.00000  Uiso   1.00
C99    C     0.98290   0.90827   0.78816   0.00000  Uiso   1.00
C100   C     0.92677   0.92069   0.72096   0.00000  Uiso   1.00
C101   C     0.83772   0.96575   0.62731   0.00000  Uiso   1.00
C102   C     0.10875   0.79080   0.75155   0.00000  Uiso   1.00
C103   C     0.17208   0.80789   0.72454   0.00000  Uiso   1.00
C104   C     0.20247   0.77441   0.62824   0.00000  Uiso   1.00
C105   C     0.27298   0.73480   0.48095   0.00000  Uiso   1.00
C106   C     0.00784   0.73125   0.72990   0.00000  Uiso   1.00
C107   C     0.01263   0.71680   0.87002   0.00000  Uiso   1.00
C108   C     0.98888   0.66209   0.92957   0.00000  Uiso   1.00
C109   C     0.99811   0.65791   0.05847   0.00000  Uiso   1.00
C110   C     0.97414   0.79653   0.71927   0.00000  Uiso   1.00
C111   C     0.91804   0.80886   0.65204   0.00000  Uiso   1.00
C112   C     0.89487   0.87180   0.65401   0.00000  Uiso   1.00
C113   C     0.07691   0.74199   0.68472   0.00000  Uiso   1.00
C114   C     0.10722   0.70848   0.58844   0.00000  Uiso   1.00
C115   C     0.17057   0.72552   0.56129   0.00000  Uiso   1.00
H116   H     0.09125   0.85910   0.90495   0.00000  Uiso   1.00
H117   H     0.07838   0.79928   0.11736   0.00000  Uiso   1.00
H118   H     0.00755   0.94603   0.83987   0.00000  Uiso   1.00
H119   H     0.19670   0.84566   0.77627   0.00000  Uiso   1.00
H120   H     0.05004   0.71146   0.32339   0.00000  Uiso   1.00
H121   H     0.90072   0.02088   0.73825   0.00000  Uiso   1.00
H122   H     0.29957   0.80924   0.60414   0.00000  Uiso   1.00
H123   H     0.98305   0.69325   0.67788   0.00000  Uiso   1.00
H124   H     0.96424   0.62434   0.87783   0.00000  Uiso   1.00
H125   H     0.89342   0.77108   0.60034   0.00000  Uiso   1.00
H126   H     0.08256   0.67072   0.53674   0.00000  Uiso   1.00
H127   H     0.95740   0.56947   0.12899   0.00000  Uiso   1.00
H128   H     0.80808   0.87889   0.54384   0.00000  Uiso   1.00
H129   H     0.20693   0.66725   0.40973   0.00000  Uiso   1.00
O130   O     0.99329   0.59813   0.36183   0.00000  Uiso   1.00
O131   O     0.79739   0.00408   0.59412   0.00000  Uiso   1.00
O132   O     0.32067   0.72642   0.41818   0.00000  Uiso   1.00
N133   N     0.03083   0.68749   0.25019   0.00000  Uiso   1.00
N134   N     0.89122   0.97678   0.70314   0.00000  Uiso   1.00
N135   N     0.26411   0.77893   0.57773   0.00000  Uiso   1.00
N136   N     0.98099   0.61109   0.14559   0.00000  Uiso   1.00
N137   N     0.84137   0.90038   0.59853   0.00000  Uiso   1.00
N138   N     0.21426   0.70253   0.47312   0.00000  Uiso   1.00
C139   C     0.93354   0.17890   0.85293   0.00000  Uiso   1.00
C140   C     0.95553   0.23440   0.93685   0.00000  Uiso   1.00
C141   C     0.94626   0.23850   0.06568   0.00000  Uiso   1.00
C142   C     0.96999   0.29319   0.12541   0.00000  Uiso   1.00
C143   C     0.99932   0.37193   0.26588   0.00000  Uiso   1.00
C144   C     0.99402   0.15467   0.78609   0.00000  Uiso   1.00
C145   C     0.01710   0.09173   0.78816   0.00000  Uiso   1.00
C146   C     0.07323   0.07931   0.72096   0.00000  Uiso   1.00
C147   C     0.16228   0.03425   0.62731   0.00000  Uiso   1.00
C148   C     0.89125   0.20920   0.75155   0.00000  Uiso   1.00
C149   C     0.82792   0.19211   0.72454   0.00000  Uiso   1.00
C150   C     0.79753   0.22559   0.62824   0.00000  Uiso   1.00
C151   C     0.72702   0.26520   0.48095   0.00000  Uiso   1.00
C152   C     0.99216   0.26875   0.72990   0.00000  Uiso   1.00
C153   C     0.98737   0.28320   0.87002   0.00000  Uiso   1.00
C154   C     0.01112   0.33791   0.92957   0.00000  Uiso   1.00
C155   C     0.00189   0.34209   0.05847   0.00000  Uiso   1.00
C156   C     0.02586   0.20347   0.71927   0.00000  Uiso   1.00
C157   C     0.08196   0.19114   0.65204   0.00000  Uiso   1.00
C158   C     0.10513   0.12820   0.65401   0.00000  Uiso   1.00
C159   C     0.92309   0.25801   0.68472   0.00000  Uiso   1.00
C160   C     0.89278   0.29152   0.58844   0.00000  Uiso   1.00
C161   C     0.82943   0.27448   0.56129   0.00000  Uiso   1.00
H162   H     0.90875   0.14090   0.90495   0.00000  Uiso   1.00
H163   H     0.92162   0.20072   0.11736   0.00000  Uiso   1.00
H164   H     0.99245   0.05397   0.83987   0.00000  Uiso   1.00
H165   H     0.80330   0.15434   0.77627   0.00000  Uiso   1.00
H166   H     0.94996   0.28854   0.32339   0.00000  Uiso   1.00
H167   H     0.09928   0.97912   0.73825   0.00000  Uiso   1.00
H168   H     0.70043   0.19076   0.60414   0.00000  Uiso   1.00
H169   H     0.01695   0.30675   0.67788   0.00000  Uiso   1.00
H170   H     0.03576   0.37566   0.87783   0.00000  Uiso   1.00
H171   H     0.10658   0.22892   0.60034   0.00000  Uiso   1.00
H172   H     0.91744   0.32928   0.53674   0.00000  Uiso   1.00
H173   H     0.04260   0.43053   0.12899   0.00000  Uiso   1.00
H174   H     0.19192   0.12111   0.54384   0.00000  Uiso   1.00
H175   H     0.79307   0.33275   0.40973   0.00000  Uiso   1.00
O176   O     0.00671   0.40187   0.36183   0.00000  Uiso   1.00
O177   O     0.20261   0.99592   0.59412   0.00000  Uiso   1.00
O178   O     0.67933   0.27358   0.41818   0.00000  Uiso   1.00
N179   N     0.96917   0.31251   0.25019   0.00000  Uiso   1.00
N180   N     0.10878   0.02322   0.70314   0.00000  Uiso   1.00
N181   N     0.73589   0.22107   0.57773   0.00000  Uiso   1.00
N182   N     0.01901   0.38891   0.14559   0.00000  Uiso   1.00
N183   N     0.15863   0.09962   0.59853   0.00000  Uiso   1.00
N184   N     0.78574   0.29747   0.47312   0.00000  Uiso   1.00
C185   C     0.67890   0.43354   0.64707   0.00000  Uiso   1.00
C186   C     0.73440   0.45553   0.56315   0.00000  Uiso   1.00
C187   C     0.73850   0.44626   0.43432   0.00000  Uiso   1.00
C188   C     0.79319   0.46999   0.37459   0.00000  Uiso   1.00
C189   C     0.87193   0.49932   0.23412   0.00000  Uiso   1.00
C190   C     0.65467   0.49402   0.71391   0.00000  Uiso   1.00
C191   C     0.59173   0.51710   0.71184   0.00000  Uiso   1.00
C192   C     0.57931   0.57323   0.77904   0.00000  Uiso   1.00
C193   C     0.53425   0.66228   0.87269   0.00000  Uiso   1.00
C194   C     0.70920   0.39125   0.74845   0.00000  Uiso   1.00
C195   C     0.69211   0.32792   0.77546   0.00000  Uiso   1.00
C196   C     0.72559   0.29753   0.87176   0.00000  Uiso   1.00
C197   C     0.76520   0.22702   0.01905   0.00000  Uiso   1.00
C198   C     0.76875   0.49216   0.77010   0.00000  Uiso   1.00
C199   C     0.78320   0.48737   0.62998   0.00000  Uiso   1.00
C200   C     0.83791   0.51112   0.57043   0.00000  Uiso   1.00
C201   C     0.84209   0.50189   0.44153   0.00000  Uiso   1.00
C202   C     0.70347   0.52586   0.78073   0.00000  Uiso   1.00
C203   C     0.69114   0.58196   0.84796   0.00000  Uiso   1.00
C204   C     0.62820   0.60513   0.84599   0.00000  Uiso   1.00
C205   C     0.75801   0.42309   0.81528   0.00000  Uiso   1.00
C206   C     0.79152   0.39278   0.91156   0.00000  Uiso   1.00
C207   C     0.77448   0.32943   0.93871   0.00000  Uiso   1.00
H208   H     0.64090   0.40875   0.59505   0.00000  Uiso   1.00
H209   H     0.70072   0.42162   0.38264   0.00000  Uiso   1.00
H210   H     0.55397   0.49245   0.66013   0.00000  Uiso   1.00
H211   H     0.65434   0.30330   0.72373   0.00000  Uiso   1.00
H212   H     0.78854   0.44996   0.17661   0.00000  Uiso   1.00
H213   H     0.47912   0.59928   0.76175   0.00000  Uiso   1.00
H214   H     0.69076   0.20043   0.89586   0.00000  Uiso   1.00
H215   H     0.80675   0.51695   0.82212   0.00000  Uiso   1.00
H216   H     0.87566   0.53576   0.62217   0.00000  Uiso   1.00
H217   H     0.72892   0.60658   0.89966   0.00000  Uiso   1.00
H218   H     0.82928   0.41744   0.96326   0.00000  Uiso   1.00
H219   H     0.93053   0.54260   0.37101   0.00000  Uiso   1.00
H220   H     0.62111   0.69192   0.95616   0.00000  Uiso   1.00
H221   H     0.83275   0.29307   0.09027   0.00000  Uiso   1.00
O222   O     0.90187   0.50671   0.13817   0.00000  Uiso   1.00
O223   O     0.49592   0.70261   0.90588   0.00000  Uiso   1.00
O224   O     0.77358   0.17933   0.08182   0.00000  Uiso   1.00
N225   N     0.81251   0.46917   0.24981   0.00000  Uiso   1.00
N226   N     0.52322   0.60878   0.79686   0.00000  Uiso   1.00
N227   N     0.72107   0.23589   0.92227   0.00000  Uiso   1.00
N228   N     0.88891   0.51901   0.35441   0.00000  Uiso   1.00
N229   N     0.59962   0.65863   0.90147   0.00000  Uiso   1.00
N230   N     0.79747   0.28574   0.02688   0.00000  Uiso   1.00
C231   C     0.32110   0.56646   0.64707   0.00000  Uiso   1.00
C232   C     0.26560   0.54447   0.56315   0.00000  Uiso   1.00
C233   C     0.26150   0.55374   0.43432   0.00000  Uiso   1.00
C234   C     0.20681   0.53001   0.37459   0.00000  Uiso   1.00
C235   C     0.12807   0.50068   0.23412   0.00000  Uiso   1.00
C236   C     0.34533   0.50598   0.71391   0.00000  Uiso   1.00
C237   C     0.40827   0.48290   0.71184   0.00000  Uiso   1.00
C238   C     0.42069   0.42677   0.77904   0.00000  Uiso   1.00
C239   C     0.46575   0.33772   0.87269   0.00000  Uiso   1.00
C240   C     0.29080   0.60875   0.74845   0.00000  Uiso   1.00
C241   C     0.30789   0.67208   0.77546   0.00000  Uiso   1.00
C242   C     0.27441   0.70247   0.87176   0.00000  Uiso   1.00
C243   C     0.23480   0.77298   0.01905   0.00000  Uiso   1.00
C244   C     0.23125   0.50784   0.77010   0.00000  Uiso   1.00
C245   C     0.21680   0.51263   0.62998   0.00000  Uiso   1.00
C246   C     0.16209   0.48888   0.57043   0.00000  Uiso   1.00
C247   C     0.15791   0.49811   0.44153   0.00000  Uiso   1.00
C248   C     0.29653   0.47414   0.78073   0.00000  Uiso   1.00
C249   C     0.30886   0.41804   0.84796   0.00000  Uiso   1.00
C250   C     0.37180   0.39487   0.84599   0.00000  Uiso   1.00
C251   C     0.24199   0.57691   0.81528   0.00000  Uiso   1.00
C252   C     0.20848   0.60722   0.91156   0.00000  Uiso   1.00
C253   C     0.22552   0.67057   0.93871   0.00000  Uiso   1.00
H254   H     0.35910   0.59125   0.59505   0.00000  Uiso   1.00
H255   H     0.29928   0.57838   0.38264   0.00000  Uiso   1.00
H256   H     0.44603   0.50755   0.66013   0.00000  Uiso   1.00
H257   H     0.34566   0.69670   0.72373   0.00000  Uiso   1.00
H258   H     0.21146   0.55004   0.17661   0.00000  Uiso   1.00
H259   H     0.52088   0.40072   0.76175   0.00000  Uiso   1.00
H260   H     0.30924   0.79957   0.89586   0.00000  Uiso   1.00
H261   H     0.19325   0.48305   0.82212   0.00000  Uiso   1.00
H262   H     0.12434   0.46424   0.62217   0.00000  Uiso   1.00
H263   H     0.27108   0.39342   0.89966   0.00000  Uiso   1.00
H264   H     0.17072   0.58256   0.96326   0.00000  Uiso   1.00
H265   H     0.06947   0.45740   0.37101   0.00000  Uiso   1.00
H266   H     0.37889   0.30808   0.95616   0.00000  Uiso   1.00
H267   H     0.16725   0.70693   0.09027   0.00000  Uiso   1.00
O268   O     0.09813   0.49329   0.13817   0.00000  Uiso   1.00
O269   O     0.50408   0.29739   0.90588   0.00000  Uiso   1.00
O270   O     0.22642   0.82067   0.08182   0.00000  Uiso   1.00
N271   N     0.18749   0.53083   0.24981   0.00000  Uiso   1.00
N272   N     0.47678   0.39122   0.79686   0.00000  Uiso   1.00
N273   N     0.27893   0.76411   0.92227   0.00000  Uiso   1.00
N274   N     0.11109   0.48099   0.35441   0.00000  Uiso   1.00
N275   N     0.40038   0.34137   0.90147   0.00000  Uiso   1.00
N276   N     0.20253   0.71426   0.02688   0.00000  Uiso   1.00
C277   C     0.56646   0.67890   0.35293   0.00000  Uiso   1.00
C278   C     0.54447   0.73440   0.43685   0.00000  Uiso   1.00
C279   C     0.55374   0.73850   0.56568   0.00000  Uiso   1.00
C280   C     0.53001   0.79319   0.62541   0.00000  Uiso   1.00
C281   C     0.50068   0.87193   0.76588   0.00000  Uiso   1.00
C282   C     0.50598   0.65467   0.28609   0.00000  Uiso   1.00
C283   C     0.48290   0.59173   0.28816   0.00000  Uiso   1.00
C284   C     0.42677   0.57931   0.22096   0.00000  Uiso   1.00
C285   C     0.33772   0.53425   0.12731   0.00000  Uiso   1.00
C286   C     0.60875   0.70920   0.25155   0.00000  Uiso   1.00
C287   C     0.67208   0.69211   0.22454   0.00000  Uiso   1.00
C288   C     0.70247   0.72559   0.12824   0.00000  Uiso   1.00
C289   C     0.77298   0.76520   0.98095   0.00000  Uiso   1.00
C290   C     0.50784   0.76875   0.22990   0.00000  Uiso   1.00
C291   C     0.51263   0.78320   0.37002   0.00000  Uiso   1.00
C292   C     0.48888   0.83791   0.42957   0.00000  Uiso   1.00
C293   C     0.49811   0.84209   0.55847   0.00000  Uiso   1.00
C294   C     0.47414   0.70347   0.21927   0.00000  Uiso   1.00
C295   C     0.41804   0.69114   0.15204   0.00000  Uiso   1.00
C296   C     0.39487   0.62820   0.15401   0.00000  Uiso   1.00
C297   C     0.57691   0.75801   0.18472   0.00000  Uiso   1.00
C298   C     0.60722   0.79152   0.08844   0.00000  Uiso   1.00
C299   C     0.67057   0.77448   0.06129   0.00000  Uiso   1.00
H300   H     0.59125   0.64090   0.40495   0.00000  Uiso   1.00
H301   H     0.57838   0.70072   0.61736   0.00000  Uiso   1.00
H302   H     0.50755   0.55397   0.33987   0.00000  Uiso   1.00
H303   H     0.69670   0.65434   0.27627   0.00000  Uiso   1.00
H304   H     0.55004   0.78854   0.82339   0.00000  Uiso   1.00
H305   H     0.40072   0.47912   0.23825   0.00000  Uiso   1.00
H306   H     0.79957   0.69076   0.10414   0.00000  Uiso   1.00
H307   H     0.48305   0.80675   0.17788   0.00000  Uiso   1.00
H308   H     0.46424   0.87566   0.37783   0.00000  Uiso   1.00
H309   H     0.39342   0.72892   0.10034   0.00000  Uiso   1.00
H310   H     0.58256   0.82928   0.03674   0.00000  Uiso   1.00
H311   H     0.45740   0.93053   0.62899   0.00000  Uiso   1.00
H312   H     0.30808   0.62111   0.04384   0.00000  Uiso   1.00
H313   H     0.70693   0.83275   0.90973   0.00000  Uiso   1.00
O314   O     0.49329   0.90187   0.86183   0.00000  Uiso   1.00
O315   O     0.29739   0.49592   0.09412   0.00000  Uiso   1.00
O316   O     0.82067   0.77358   0.91818   0.00000  Uiso   1.00
N317   N     0.53083   0.81251   0.75019   0.00000  Uiso   1.00
N318   N     0.39122   0.52322   0.20314   0.00000  Uiso   1.00
N319   N     0.76411   0.72107   0.07773   0.00000  Uiso   1.00
N320   N     0.48099   0.88891   0.64559   0.00000  Uiso   1.00
N321   N     0.34137   0.59962   0.09853   0.00000  Uiso   1.00
N322   N     0.71426   0.79747   0.97312   0.00000  Uiso   1.00
C323   C     0.43354   0.32110   0.35293   0.00000  Uiso   1.00
C324   C     0.45553   0.26560   0.43685   0.00000  Uiso   1.00
C325   C     0.44626   0.26150   0.56568   0.00000  Uiso   1.00
C326   C     0.46999   0.20681   0.62541   0.00000  Uiso   1.00
C327   C     0.49932   0.12807   0.76588   0.00000  Uiso   1.00
C328   C     0.49402   0.34533   0.28609   0.00000  Uiso   1.00
C329   C     0.51710   0.40827   0.28816   0.00000  Uiso   1.00
C330   C     0.57323   0.42069   0.22096   0.00000  Uiso   1.00
C331   C     0.66228   0.46575   0.12731   0.00000  Uiso   1.00
C332   C     0.39125   0.29080   0.25155   0.00000  Uiso   1.00
C333   C     0.32792   0.30789   0.22454   0.00000  Uiso   1.00
C334   C     0.29753   0.27441   0.12824   0.00000  Uiso   1.00
C335   C     0.22702   0.23480   0.98095   0.00000  Uiso   1.00
C336   C     0.49216   0.23125   0.22990   0.00000  Uiso   1.00
C337   C     0.48737   0.21680   0.37002   0.00000  Uiso   1.00
C338   C     0.51112   0.16209   0.42957   0.00000  Uiso   1.00
C339   C     0.50189   0.15791   0.55847   0.00000  Uiso   1.00
C340   C     0.52586   0.29653   0.21927   0.00000  Uiso   1.00
C341   C     0.58196   0.30886   0.15204   0.00000  Uiso   1.00
C342   C     0.60513   0.37180   0.15401   0.00000  Uiso   1.00
C343   C     0.42309   0.24199   0.18472   0.00000  Uiso   1.00
C344   C     0.39278   0.20848   0.08844   0.00000  Uiso   1.00
C345   C     0.32943   0.22552   0.06129   0.00000  Uiso   1.00
H346   H     0.40875   0.35910   0.40495   0.00000  Uiso   1.00
H347   H     0.42162   0.29928   0.61736   0.00000  Uiso   1.00
H348   H     0.49245   0.44603   0.33987   0.00000  Uiso   1.00
H349   H     0.30330   0.34566   0.27627   0.00000  Uiso   1.00
H350   H     0.44996   0.21146   0.82339   0.00000  Uiso   1.00
H351   H     0.59928   0.52088   0.23825   0.00000  Uiso   1.00
H352   H     0.20043   0.30924   0.10414   0.00000  Uiso   1.00
H353   H     0.51695   0.19325   0.17788   0.00000  Uiso   1.00
H354   H     0.53576   0.12434   0.37783   0.00000  Uiso   1.00
H355   H     0.60658   0.27108   0.10034   0.00000  Uiso   1.00
H356   H     0.41744   0.17072   0.03674   0.00000  Uiso   1.00
H357   H     0.54260   0.06947   0.62899   0.00000  Uiso   1.00
H358   H     0.69192   0.37889   0.04384   0.00000  Uiso   1.00
H359   H     0.29307   0.16725   0.90973   0.00000  Uiso   1.00
O360   O     0.50671   0.09813   0.86183   0.00000  Uiso   1.00
O361   O     0.70261   0.50408   0.09412   0.00000  Uiso   1.00
O362   O     0.17933   0.22642   0.91818   0.00000  Uiso   1.00
N363   N     0.46917   0.18749   0.75019   0.00000  Uiso   1.00
N364   N     0.60878   0.47678   0.20314   0.00000  Uiso   1.00
N365   N     0.23589   0.27893   0.07773   0.00000  Uiso   1.00
N366   N     0.51901   0.11109   0.64559   0.00000  Uiso   1.00
N367   N     0.65863   0.40038   0.09853   0.00000  Uiso   1.00
N368   N     0.28574   0.20253   0.97312   0.00000  Uiso   1.00
