data_job_04138
_audit_creation_date              2018-12-19
_audit_creation_method            'Materials Studio'
_symmetry_space_group_name_H-M    'P1'
_symmetry_Int_Tables_number       1
_symmetry_cell_setting            triclinic
loop_
_symmetry_equiv_pos_as_xyz
  x,y,z
_cell_length_a                    12.4670
_cell_length_b                    28.2579
_cell_length_c                    7.2025
_cell_angle_alpha                 90.0000
_cell_angle_beta                  90.0000
_cell_angle_gamma                 90.0000
loop_
_atom_site_label
_atom_site_type_symbol
_atom_site_fract_x
_atom_site_fract_y
_atom_site_fract_z
_atom_site_U_iso_or_equiv
_atom_site_adp_type
_atom_site_occupancy
C1     C     0.14736   0.59905   0.20924   0.00000  Uiso   1.00
C2     C     0.15540   0.56000   0.35469   0.00000  Uiso   1.00
C3     C     0.13637   0.51223   0.32424   0.00000  Uiso   1.00
C4     C     0.14794   0.48215   0.47534   0.00000  Uiso   1.00
C5     C     0.15587   0.41891   0.67457   0.00000  Uiso   1.00
C6     C     0.06779   0.63505   0.28607   0.00000  Uiso   1.00
C7     C     0.97511   0.65040   0.19791   0.00000  Uiso   1.00
C8     C     0.91295   0.68351   0.29124   0.00000  Uiso   1.00
C9     C     0.78490   0.73682   0.38387   0.00000  Uiso   1.00
C10    C     0.25617   0.62370   0.20796   0.00000  Uiso   1.00
C11    C     0.32188   0.62951   0.05410   0.00000  Uiso   1.00
C12    C     0.41831   0.65307   0.08165   0.00000  Uiso   1.00
C13    C     0.58275   0.68876   0.05300   0.00000  Uiso   1.00
C14    C     0.20175   0.63056   0.53173   0.00000  Uiso   1.00
C15    C     0.18493   0.57711   0.52986   0.00000  Uiso   1.00
C16    C     0.19654   0.54710   0.68104   0.00000  Uiso   1.00
C17    C     0.17754   0.49930   0.65082   0.00000  Uiso   1.00
C18    C     0.09732   0.65217   0.46123   0.00000  Uiso   1.00
C19    C     0.03529   0.68526   0.55470   0.00000  Uiso   1.00
C20    C     0.94254   0.70065   0.46672   0.00000  Uiso   1.00
C21    C     0.28571   0.64082   0.38312   0.00000  Uiso   1.00
C22    C     0.38205   0.66438   0.41091   0.00000  Uiso   1.00
C23    C     0.44790   0.67022   0.25713   0.00000  Uiso   1.00
H24    H     0.12436   0.58573   0.07287   0.00000  Uiso   1.00
H25    H     0.11350   0.49900   0.18867   0.00000  Uiso   1.00
H26    H     0.95228   0.63715   0.06235   0.00000  Uiso   1.00
H27    H     0.29899   0.61626   0.91858   0.00000  Uiso   1.00
H28    H     0.11445   0.41040   0.39432   0.00000  Uiso   1.00
H29    H     0.77452   0.70171   0.12794   0.00000  Uiso   1.00
H30    H     0.50564   0.65767   0.82475   0.00000  Uiso   1.00
H31    H     0.22475   0.64389   0.66810   0.00000  Uiso   1.00
H32    H     0.21940   0.56036   0.81657   0.00000  Uiso   1.00
H33    H     0.05817   0.69850   0.69025   0.00000  Uiso   1.00
H34    H     0.40489   0.67762   0.54647   0.00000  Uiso   1.00
H35    H     0.20040   0.46020   0.90395   0.00000  Uiso   1.00
H36    H     0.86047   0.75150   0.63756   0.00000  Uiso   1.00
H37    H     0.59158   0.70746   0.33439   0.00000  Uiso   1.00
O38    O     0.15206   0.37930   0.73607   0.00000  Uiso   1.00
O39    O     0.70610   0.76149   0.38658   0.00000  Uiso   1.00
O40    O     0.66530   0.70371   0.98881   0.00000  Uiso   1.00
N41    N     0.13544   0.43359   0.49388   0.00000  Uiso   1.00
N42    N     0.81761   0.70593   0.24484   0.00000  Uiso   1.00
N43    N     0.50113   0.66477   0.96138   0.00000  Uiso   1.00
N44    N     0.18168   0.46038   0.76810   0.00000  Uiso   1.00
N45    N     0.86386   0.73273   0.51907   0.00000  Uiso   1.00
N46    N     0.54738   0.69156   0.23560   0.00000  Uiso   1.00
C47    C     0.85264   0.40095   0.20924   0.00000  Uiso   1.00
C48    C     0.84460   0.44000   0.35469   0.00000  Uiso   1.00
C49    C     0.86363   0.48777   0.32424   0.00000  Uiso   1.00
C50    C     0.85206   0.51785   0.47534   0.00000  Uiso   1.00
C51    C     0.84413   0.58109   0.67457   0.00000  Uiso   1.00
C52    C     0.93221   0.36495   0.28607   0.00000  Uiso   1.00
C53    C     0.02489   0.34960   0.19791   0.00000  Uiso   1.00
C54    C     0.08705   0.31649   0.29124   0.00000  Uiso   1.00
C55    C     0.21510   0.26318   0.38387   0.00000  Uiso   1.00
C56    C     0.74383   0.37630   0.20796   0.00000  Uiso   1.00
C57    C     0.67812   0.37049   0.05410   0.00000  Uiso   1.00
C58    C     0.58169   0.34693   0.08165   0.00000  Uiso   1.00
C59    C     0.41725   0.31124   0.05300   0.00000  Uiso   1.00
C60    C     0.79825   0.36944   0.53173   0.00000  Uiso   1.00
C61    C     0.81507   0.42289   0.52986   0.00000  Uiso   1.00
C62    C     0.80346   0.45290   0.68104   0.00000  Uiso   1.00
C63    C     0.82246   0.50070   0.65082   0.00000  Uiso   1.00
C64    C     0.90268   0.34783   0.46123   0.00000  Uiso   1.00
C65    C     0.96471   0.31474   0.55470   0.00000  Uiso   1.00
C66    C     0.05746   0.29935   0.46672   0.00000  Uiso   1.00
C67    C     0.71429   0.35918   0.38312   0.00000  Uiso   1.00
C68    C     0.61795   0.33562   0.41091   0.00000  Uiso   1.00
C69    C     0.55210   0.32978   0.25713   0.00000  Uiso   1.00
H70    H     0.87564   0.41427   0.07287   0.00000  Uiso   1.00
H71    H     0.88650   0.50100   0.18867   0.00000  Uiso   1.00
H72    H     0.04772   0.36285   0.06235   0.00000  Uiso   1.00
H73    H     0.70101   0.38374   0.91858   0.00000  Uiso   1.00
H74    H     0.88555   0.58960   0.39432   0.00000  Uiso   1.00
H75    H     0.22548   0.29829   0.12794   0.00000  Uiso   1.00
H76    H     0.49436   0.34233   0.82475   0.00000  Uiso   1.00
H77    H     0.77525   0.35611   0.66810   0.00000  Uiso   1.00
H78    H     0.78060   0.43964   0.81657   0.00000  Uiso   1.00
H79    H     0.94183   0.30150   0.69025   0.00000  Uiso   1.00
H80    H     0.59511   0.32238   0.54647   0.00000  Uiso   1.00
H81    H     0.79960   0.53980   0.90395   0.00000  Uiso   1.00
H82    H     0.13953   0.24850   0.63756   0.00000  Uiso   1.00
H83    H     0.40842   0.29254   0.33439   0.00000  Uiso   1.00
O84    O     0.84794   0.62070   0.73607   0.00000  Uiso   1.00
O85    O     0.29390   0.23851   0.38658   0.00000  Uiso   1.00
O86    O     0.33470   0.29629   0.98881   0.00000  Uiso   1.00
N87    N     0.86456   0.56641   0.49388   0.00000  Uiso   1.00
N88    N     0.18239   0.29407   0.24484   0.00000  Uiso   1.00
N89    N     0.49887   0.33523   0.96138   0.00000  Uiso   1.00
N90    N     0.81832   0.53962   0.76810   0.00000  Uiso   1.00
N91    N     0.13614   0.26727   0.51907   0.00000  Uiso   1.00
N92    N     0.45262   0.30844   0.23560   0.00000  Uiso   1.00
C93    C     0.64736   0.90095   0.70924   0.00000  Uiso   1.00
C94    C     0.65540   0.94000   0.85469   0.00000  Uiso   1.00
C95    C     0.63637   0.98777   0.82424   0.00000  Uiso   1.00
C96    C     0.64794   0.01785   0.97534   0.00000  Uiso   1.00
C97    C     0.65587   0.08109   0.17457   0.00000  Uiso   1.00
C98    C     0.56779   0.86495   0.78607   0.00000  Uiso   1.00
C99    C     0.47511   0.84960   0.69791   0.00000  Uiso   1.00
C100   C     0.41295   0.81649   0.79124   0.00000  Uiso   1.00
C101   C     0.28490   0.76318   0.88387   0.00000  Uiso   1.00
C102   C     0.75617   0.87630   0.70796   0.00000  Uiso   1.00
C103   C     0.82188   0.87049   0.55410   0.00000  Uiso   1.00
C104   C     0.91831   0.84693   0.58165   0.00000  Uiso   1.00
C105   C     0.08275   0.81124   0.55300   0.00000  Uiso   1.00
C106   C     0.70175   0.86944   0.03173   0.00000  Uiso   1.00
C107   C     0.68493   0.92289   0.02986   0.00000  Uiso   1.00
C108   C     0.69654   0.95290   0.18104   0.00000  Uiso   1.00
C109   C     0.67754   0.00070   0.15082   0.00000  Uiso   1.00
C110   C     0.59732   0.84783   0.96123   0.00000  Uiso   1.00
C111   C     0.53529   0.81474   0.05470   0.00000  Uiso   1.00
C112   C     0.44254   0.79935   0.96672   0.00000  Uiso   1.00
C113   C     0.78571   0.85918   0.88312   0.00000  Uiso   1.00
C114   C     0.88205   0.83562   0.91091   0.00000  Uiso   1.00
C115   C     0.94790   0.82978   0.75713   0.00000  Uiso   1.00
H116   H     0.62436   0.91427   0.57287   0.00000  Uiso   1.00
H117   H     0.61350   0.00100   0.68867   0.00000  Uiso   1.00
H118   H     0.45228   0.86285   0.56235   0.00000  Uiso   1.00
H119   H     0.79899   0.88374   0.41858   0.00000  Uiso   1.00
H120   H     0.61445   0.08960   0.89432   0.00000  Uiso   1.00
H121   H     0.27452   0.79829   0.62794   0.00000  Uiso   1.00
H122   H     0.00564   0.84233   0.32475   0.00000  Uiso   1.00
H123   H     0.72475   0.85611   0.16810   0.00000  Uiso   1.00
H124   H     0.71940   0.93964   0.31657   0.00000  Uiso   1.00
H125   H     0.55817   0.80150   0.19025   0.00000  Uiso   1.00
H126   H     0.90489   0.82238   0.04647   0.00000  Uiso   1.00
H127   H     0.70040   0.03980   0.40395   0.00000  Uiso   1.00
H128   H     0.36047   0.74850   0.13756   0.00000  Uiso   1.00
H129   H     0.09158   0.79254   0.83439   0.00000  Uiso   1.00
O130   O     0.65206   0.12070   0.23607   0.00000  Uiso   1.00
O131   O     0.20610   0.73851   0.88658   0.00000  Uiso   1.00
O132   O     0.16530   0.79629   0.48881   0.00000  Uiso   1.00
N133   N     0.63544   0.06641   0.99388   0.00000  Uiso   1.00
N134   N     0.31761   0.79407   0.74484   0.00000  Uiso   1.00
N135   N     0.00113   0.83523   0.46138   0.00000  Uiso   1.00
N136   N     0.68168   0.03962   0.26810   0.00000  Uiso   1.00
N137   N     0.36386   0.76727   0.01907   0.00000  Uiso   1.00
N138   N     0.04738   0.80844   0.73560   0.00000  Uiso   1.00
C139   C     0.35264   0.09905   0.70924   0.00000  Uiso   1.00
C140   C     0.34460   0.06000   0.85469   0.00000  Uiso   1.00
C141   C     0.36363   0.01223   0.82424   0.00000  Uiso   1.00
C142   C     0.35206   0.98215   0.97534   0.00000  Uiso   1.00
C143   C     0.34413   0.91891   0.17457   0.00000  Uiso   1.00
C144   C     0.43221   0.13505   0.78607   0.00000  Uiso   1.00
C145   C     0.52489   0.15040   0.69791   0.00000  Uiso   1.00
C146   C     0.58705   0.18351   0.79124   0.00000  Uiso   1.00
C147   C     0.71510   0.23682   0.88387   0.00000  Uiso   1.00
C148   C     0.24383   0.12370   0.70796   0.00000  Uiso   1.00
C149   C     0.17812   0.12951   0.55410   0.00000  Uiso   1.00
C150   C     0.08169   0.15307   0.58165   0.00000  Uiso   1.00
C151   C     0.91725   0.18876   0.55300   0.00000  Uiso   1.00
C152   C     0.29825   0.13056   0.03173   0.00000  Uiso   1.00
C153   C     0.31507   0.07711   0.02986   0.00000  Uiso   1.00
C154   C     0.30346   0.04710   0.18104   0.00000  Uiso   1.00
C155   C     0.32246   0.99930   0.15082   0.00000  Uiso   1.00
C156   C     0.40268   0.15217   0.96123   0.00000  Uiso   1.00
C157   C     0.46471   0.18526   0.05470   0.00000  Uiso   1.00
C158   C     0.55746   0.20065   0.96672   0.00000  Uiso   1.00
C159   C     0.21429   0.14082   0.88312   0.00000  Uiso   1.00
C160   C     0.11795   0.16438   0.91091   0.00000  Uiso   1.00
C161   C     0.05210   0.17022   0.75713   0.00000  Uiso   1.00
H162   H     0.37564   0.08573   0.57287   0.00000  Uiso   1.00
H163   H     0.38650   0.99900   0.68867   0.00000  Uiso   1.00
H164   H     0.54772   0.13715   0.56235   0.00000  Uiso   1.00
H165   H     0.20101   0.11626   0.41858   0.00000  Uiso   1.00
H166   H     0.38555   0.91040   0.89432   0.00000  Uiso   1.00
H167   H     0.72548   0.20171   0.62794   0.00000  Uiso   1.00
H168   H     0.99436   0.15767   0.32475   0.00000  Uiso   1.00
H169   H     0.27525   0.14389   0.16810   0.00000  Uiso   1.00
H170   H     0.28060   0.06036   0.31657   0.00000  Uiso   1.00
H171   H     0.44183   0.19850   0.19025   0.00000  Uiso   1.00
H172   H     0.09511   0.17762   0.04647   0.00000  Uiso   1.00
H173   H     0.29960   0.96020   0.40395   0.00000  Uiso   1.00
H174   H     0.63953   0.25150   0.13756   0.00000  Uiso   1.00
H175   H     0.90842   0.20746   0.83439   0.00000  Uiso   1.00
O176   O     0.34794   0.87930   0.23607   0.00000  Uiso   1.00
O177   O     0.79390   0.26149   0.88658   0.00000  Uiso   1.00
O178   O     0.83470   0.20371   0.48881   0.00000  Uiso   1.00
N179   N     0.36456   0.93359   0.99388   0.00000  Uiso   1.00
N180   N     0.68239   0.20593   0.74484   0.00000  Uiso   1.00
N181   N     0.99887   0.16477   0.46138   0.00000  Uiso   1.00
N182   N     0.31832   0.96038   0.26810   0.00000  Uiso   1.00
N183   N     0.63614   0.23273   0.01907   0.00000  Uiso   1.00
N184   N     0.95262   0.19156   0.73560   0.00000  Uiso   1.00
