data_job_05522
_audit_creation_date              2018-12-19
_audit_creation_method            'Materials Studio'
_symmetry_space_group_name_H-M    'P1'
_symmetry_Int_Tables_number       1
_symmetry_cell_setting            triclinic
loop_
_symmetry_equiv_pos_as_xyz
  x,y,z
_cell_length_a                    30.5791
_cell_length_b                    19.5247
_cell_length_c                    9.3749
_cell_angle_alpha                 90.0000
_cell_angle_beta                  99.8395
_cell_angle_gamma                 90.0000
loop_
_atom_site_label
_atom_site_type_symbol
_atom_site_fract_x
_atom_site_fract_y
_atom_site_fract_z
_atom_site_U_iso_or_equiv
_atom_site_adp_type
_atom_site_occupancy
C1     C     0.62803   0.72660   0.40013   0.00000  Uiso   1.00
C2     C     0.60875   0.78069   0.48902   0.00000  Uiso   1.00
C3     C     0.60790   0.77714   0.63637   0.00000  Uiso   1.00
C4     C     0.58877   0.83185   0.69759   0.00000  Uiso   1.00
C5     C     0.56149   0.90727   0.84826   0.00000  Uiso   1.00
C6     C     0.59058   0.70664   0.27805   0.00000  Uiso   1.00
C7     C     0.57447   0.64081   0.24801   0.00000  Uiso   1.00
C8     C     0.54006   0.63320   0.13162   0.00000  Uiso   1.00
C9     C     0.48460   0.59363   0.95469   0.00000  Uiso   1.00
C10    C     0.66252   0.76341   0.32826   0.00000  Uiso   1.00
C11    C     0.70689   0.74532   0.34040   0.00000  Uiso   1.00
C12    C     0.73304   0.78549   0.26625   0.00000  Uiso   1.00
C13    C     0.78926   0.83408   0.16728   0.00000  Uiso   1.00
C14    C     0.59556   0.83011   0.24682   0.00000  Uiso   1.00
C15    C     0.59111   0.83691   0.40574   0.00000  Uiso   1.00
C16    C     0.57198   0.89165   0.46675   0.00000  Uiso   1.00
C17    C     0.57111   0.88818   0.61417   0.00000  Uiso   1.00
C18    C     0.57295   0.76285   0.19478   0.00000  Uiso   1.00
C19    C     0.53855   0.75533   0.07839   0.00000  Uiso   1.00
C20    C     0.52239   0.68951   0.04819   0.00000  Uiso   1.00
C21    C     0.64488   0.81963   0.24499   0.00000  Uiso   1.00
C22    C     0.67097   0.85984   0.17079   0.00000  Uiso   1.00
C23    C     0.71537   0.84181   0.18282   0.00000  Uiso   1.00
H24    H     0.64176   0.68283   0.46496   0.00000  Uiso   1.00
H25    H     0.62155   0.73362   0.70078   0.00000  Uiso   1.00
H26    H     0.58813   0.59732   0.31247   0.00000  Uiso   1.00
H27    H     0.72052   0.70181   0.40485   0.00000  Uiso   1.00
H28    H     0.59135   0.81470   0.92549   0.00000  Uiso   1.00
H29    H     0.52089   0.52730   0.10669   0.00000  Uiso   1.00
H30    H     0.80007   0.74764   0.30150   0.00000  Uiso   1.00
H31    H     0.58183   0.87388   0.18198   0.00000  Uiso   1.00
H32    H     0.55833   0.93515   0.40228   0.00000  Uiso   1.00
H33    H     0.52491   0.79884   0.01397   0.00000  Uiso   1.00
H34    H     0.65731   0.90334   0.10636   0.00000  Uiso   1.00
H35    H     0.54004   0.97827   0.68322   0.00000  Uiso   1.00
H36    H     0.46958   0.69087   0.86441   0.00000  Uiso   1.00
H37    H     0.74876   0.91121   0.05923   0.00000  Uiso   1.00
O38    O     0.55130   0.93333   0.95437   0.00000  Uiso   1.00
O39    O     0.45888   0.55628   0.88012   0.00000  Uiso   1.00
O40    O     0.82515   0.84536   0.13571   0.00000  Uiso   1.00
N41    N     0.58251   0.84479   0.83824   0.00000  Uiso   1.00
N42    N     0.51663   0.57610   0.07273   0.00000  Uiso   1.00
N43    N     0.77763   0.78209   0.25483   0.00000  Uiso   1.00
N44    N     0.55490   0.93281   0.70788   0.00000  Uiso   1.00
N45    N     0.48902   0.66411   0.94237   0.00000  Uiso   1.00
N46    N     0.75003   0.87010   0.12447   0.00000  Uiso   1.00
C47    C     0.12803   0.22660   0.40013   0.00000  Uiso   1.00
C48    C     0.10875   0.28069   0.48902   0.00000  Uiso   1.00
C49    C     0.10790   0.27714   0.63637   0.00000  Uiso   1.00
C50    C     0.08877   0.33185   0.69759   0.00000  Uiso   1.00
C51    C     0.06149   0.40727   0.84826   0.00000  Uiso   1.00
C52    C     0.09058   0.20664   0.27805   0.00000  Uiso   1.00
C53    C     0.07447   0.14081   0.24801   0.00000  Uiso   1.00
C54    C     0.04006   0.13320   0.13162   0.00000  Uiso   1.00
C55    C     0.98460   0.09363   0.95469   0.00000  Uiso   1.00
C56    C     0.16252   0.26341   0.32826   0.00000  Uiso   1.00
C57    C     0.20689   0.24532   0.34040   0.00000  Uiso   1.00
C58    C     0.23304   0.28549   0.26625   0.00000  Uiso   1.00
C59    C     0.28926   0.33408   0.16728   0.00000  Uiso   1.00
C60    C     0.09556   0.33011   0.24682   0.00000  Uiso   1.00
C61    C     0.09111   0.33691   0.40574   0.00000  Uiso   1.00
C62    C     0.07198   0.39165   0.46675   0.00000  Uiso   1.00
C63    C     0.07111   0.38818   0.61417   0.00000  Uiso   1.00
C64    C     0.07295   0.26285   0.19478   0.00000  Uiso   1.00
C65    C     0.03855   0.25533   0.07839   0.00000  Uiso   1.00
C66    C     0.02239   0.18951   0.04819   0.00000  Uiso   1.00
C67    C     0.14488   0.31963   0.24499   0.00000  Uiso   1.00
C68    C     0.17097   0.35984   0.17079   0.00000  Uiso   1.00
C69    C     0.21537   0.34181   0.18282   0.00000  Uiso   1.00
H70    H     0.14176   0.18283   0.46496   0.00000  Uiso   1.00
H71    H     0.12155   0.23362   0.70078   0.00000  Uiso   1.00
H72    H     0.08813   0.09732   0.31247   0.00000  Uiso   1.00
H73    H     0.22052   0.20181   0.40485   0.00000  Uiso   1.00
H74    H     0.09135   0.31470   0.92549   0.00000  Uiso   1.00
H75    H     0.02089   0.02730   0.10669   0.00000  Uiso   1.00
H76    H     0.30007   0.24764   0.30150   0.00000  Uiso   1.00
H77    H     0.08183   0.37388   0.18198   0.00000  Uiso   1.00
H78    H     0.05833   0.43515   0.40228   0.00000  Uiso   1.00
H79    H     0.02491   0.29884   0.01397   0.00000  Uiso   1.00
H80    H     0.15731   0.40334   0.10636   0.00000  Uiso   1.00
H81    H     0.04004   0.47827   0.68322   0.00000  Uiso   1.00
H82    H     0.96958   0.19087   0.86441   0.00000  Uiso   1.00
H83    H     0.24876   0.41121   0.05923   0.00000  Uiso   1.00
O84    O     0.05130   0.43333   0.95437   0.00000  Uiso   1.00
O85    O     0.95888   0.05628   0.88012   0.00000  Uiso   1.00
O86    O     0.32515   0.34536   0.13571   0.00000  Uiso   1.00
N87    N     0.08251   0.34479   0.83824   0.00000  Uiso   1.00
N88    N     0.01663   0.07610   0.07273   0.00000  Uiso   1.00
N89    N     0.27763   0.28209   0.25483   0.00000  Uiso   1.00
N90    N     0.05490   0.43281   0.70788   0.00000  Uiso   1.00
N91    N     0.98902   0.16411   0.94237   0.00000  Uiso   1.00
N92    N     0.25003   0.37010   0.12447   0.00000  Uiso   1.00
C93    C     0.37197   0.72660   0.09987   0.00000  Uiso   1.00
C94    C     0.39125   0.78069   0.01098   0.00000  Uiso   1.00
C95    C     0.39210   0.77714   0.86363   0.00000  Uiso   1.00
C96    C     0.41123   0.83185   0.80241   0.00000  Uiso   1.00
C97    C     0.43851   0.90727   0.65174   0.00000  Uiso   1.00
C98    C     0.40942   0.70664   0.22195   0.00000  Uiso   1.00
C99    C     0.42553   0.64081   0.25199   0.00000  Uiso   1.00
C100   C     0.45994   0.63320   0.36838   0.00000  Uiso   1.00
C101   C     0.51540   0.59363   0.54531   0.00000  Uiso   1.00
C102   C     0.33748   0.76341   0.17174   0.00000  Uiso   1.00
C103   C     0.29311   0.74532   0.15960   0.00000  Uiso   1.00
C104   C     0.26696   0.78549   0.23375   0.00000  Uiso   1.00
C105   C     0.21074   0.83408   0.33272   0.00000  Uiso   1.00
C106   C     0.40444   0.83011   0.25318   0.00000  Uiso   1.00
C107   C     0.40889   0.83691   0.09426   0.00000  Uiso   1.00
C108   C     0.42802   0.89165   0.03325   0.00000  Uiso   1.00
C109   C     0.42889   0.88818   0.88583   0.00000  Uiso   1.00
C110   C     0.42705   0.76285   0.30522   0.00000  Uiso   1.00
C111   C     0.46145   0.75533   0.42161   0.00000  Uiso   1.00
C112   C     0.47761   0.68951   0.45181   0.00000  Uiso   1.00
C113   C     0.35512   0.81963   0.25501   0.00000  Uiso   1.00
C114   C     0.32903   0.85984   0.32921   0.00000  Uiso   1.00
C115   C     0.28463   0.84181   0.31718   0.00000  Uiso   1.00
H116   H     0.35824   0.68283   0.03504   0.00000  Uiso   1.00
H117   H     0.37845   0.73362   0.79922   0.00000  Uiso   1.00
H118   H     0.41187   0.59732   0.18753   0.00000  Uiso   1.00
H119   H     0.27948   0.70181   0.09515   0.00000  Uiso   1.00
H120   H     0.40865   0.81470   0.57451   0.00000  Uiso   1.00
H121   H     0.47911   0.52730   0.39331   0.00000  Uiso   1.00
H122   H     0.19993   0.74764   0.19850   0.00000  Uiso   1.00
H123   H     0.41817   0.87388   0.31802   0.00000  Uiso   1.00
H124   H     0.44167   0.93515   0.09772   0.00000  Uiso   1.00
H125   H     0.47509   0.79884   0.48603   0.00000  Uiso   1.00
H126   H     0.34269   0.90334   0.39364   0.00000  Uiso   1.00
H127   H     0.45996   0.97827   0.81678   0.00000  Uiso   1.00
H128   H     0.53042   0.69087   0.63559   0.00000  Uiso   1.00
H129   H     0.25124   0.91121   0.44077   0.00000  Uiso   1.00
O130   O     0.44870   0.93333   0.54563   0.00000  Uiso   1.00
O131   O     0.54112   0.55628   0.61988   0.00000  Uiso   1.00
O132   O     0.17485   0.84536   0.36429   0.00000  Uiso   1.00
N133   N     0.41749   0.84479   0.66176   0.00000  Uiso   1.00
N134   N     0.48337   0.57610   0.42727   0.00000  Uiso   1.00
N135   N     0.22237   0.78209   0.24517   0.00000  Uiso   1.00
N136   N     0.44510   0.93281   0.79212   0.00000  Uiso   1.00
N137   N     0.51098   0.66411   0.55763   0.00000  Uiso   1.00
N138   N     0.24997   0.87010   0.37553   0.00000  Uiso   1.00
C139   C     0.87197   0.22660   0.09987   0.00000  Uiso   1.00
C140   C     0.89125   0.28069   0.01098   0.00000  Uiso   1.00
C141   C     0.89210   0.27714   0.86363   0.00000  Uiso   1.00
C142   C     0.91123   0.33185   0.80241   0.00000  Uiso   1.00
C143   C     0.93851   0.40727   0.65174   0.00000  Uiso   1.00
C144   C     0.90942   0.20664   0.22195   0.00000  Uiso   1.00
C145   C     0.92553   0.14081   0.25199   0.00000  Uiso   1.00
C146   C     0.95994   0.13320   0.36838   0.00000  Uiso   1.00
C147   C     0.01540   0.09363   0.54531   0.00000  Uiso   1.00
C148   C     0.83748   0.26341   0.17174   0.00000  Uiso   1.00
C149   C     0.79311   0.24532   0.15960   0.00000  Uiso   1.00
C150   C     0.76696   0.28549   0.23375   0.00000  Uiso   1.00
C151   C     0.71074   0.33408   0.33272   0.00000  Uiso   1.00
C152   C     0.90444   0.33011   0.25318   0.00000  Uiso   1.00
C153   C     0.90889   0.33691   0.09426   0.00000  Uiso   1.00
C154   C     0.92802   0.39165   0.03325   0.00000  Uiso   1.00
C155   C     0.92889   0.38818   0.88583   0.00000  Uiso   1.00
C156   C     0.92705   0.26285   0.30522   0.00000  Uiso   1.00
C157   C     0.96145   0.25533   0.42161   0.00000  Uiso   1.00
C158   C     0.97761   0.18951   0.45181   0.00000  Uiso   1.00
C159   C     0.85512   0.31963   0.25501   0.00000  Uiso   1.00
C160   C     0.82903   0.35984   0.32921   0.00000  Uiso   1.00
C161   C     0.78463   0.34181   0.31718   0.00000  Uiso   1.00
H162   H     0.85824   0.18283   0.03504   0.00000  Uiso   1.00
H163   H     0.87845   0.23362   0.79922   0.00000  Uiso   1.00
H164   H     0.91187   0.09732   0.18753   0.00000  Uiso   1.00
H165   H     0.77948   0.20181   0.09515   0.00000  Uiso   1.00
H166   H     0.90865   0.31470   0.57451   0.00000  Uiso   1.00
H167   H     0.97911   0.02730   0.39331   0.00000  Uiso   1.00
H168   H     0.69993   0.24764   0.19850   0.00000  Uiso   1.00
H169   H     0.91817   0.37388   0.31802   0.00000  Uiso   1.00
H170   H     0.94167   0.43515   0.09772   0.00000  Uiso   1.00
H171   H     0.97509   0.29884   0.48603   0.00000  Uiso   1.00
H172   H     0.84269   0.40334   0.39364   0.00000  Uiso   1.00
H173   H     0.95996   0.47827   0.81678   0.00000  Uiso   1.00
H174   H     0.03042   0.19087   0.63559   0.00000  Uiso   1.00
H175   H     0.75124   0.41121   0.44077   0.00000  Uiso   1.00
O176   O     0.94870   0.43333   0.54563   0.00000  Uiso   1.00
O177   O     0.04112   0.05628   0.61988   0.00000  Uiso   1.00
O178   O     0.67485   0.34536   0.36429   0.00000  Uiso   1.00
N179   N     0.91749   0.34479   0.66176   0.00000  Uiso   1.00
N180   N     0.98337   0.07610   0.42727   0.00000  Uiso   1.00
N181   N     0.72237   0.28209   0.24517   0.00000  Uiso   1.00
N182   N     0.94510   0.43281   0.79212   0.00000  Uiso   1.00
N183   N     0.01098   0.16411   0.55763   0.00000  Uiso   1.00
N184   N     0.74997   0.37010   0.37553   0.00000  Uiso   1.00
C185   C     0.37197   0.27340   0.59987   0.00000  Uiso   1.00
C186   C     0.39125   0.21931   0.51098   0.00000  Uiso   1.00
C187   C     0.39210   0.22286   0.36363   0.00000  Uiso   1.00
C188   C     0.41123   0.16815   0.30241   0.00000  Uiso   1.00
C189   C     0.43851   0.09273   0.15174   0.00000  Uiso   1.00
C190   C     0.40942   0.29336   0.72195   0.00000  Uiso   1.00
C191   C     0.42553   0.35919   0.75199   0.00000  Uiso   1.00
C192   C     0.45994   0.36680   0.86838   0.00000  Uiso   1.00
C193   C     0.51540   0.40637   0.04531   0.00000  Uiso   1.00
C194   C     0.33748   0.23659   0.67174   0.00000  Uiso   1.00
C195   C     0.29311   0.25468   0.65960   0.00000  Uiso   1.00
C196   C     0.26696   0.21451   0.73375   0.00000  Uiso   1.00
C197   C     0.21074   0.16592   0.83272   0.00000  Uiso   1.00
C198   C     0.40444   0.16989   0.75318   0.00000  Uiso   1.00
C199   C     0.40889   0.16309   0.59426   0.00000  Uiso   1.00
C200   C     0.42802   0.10835   0.53325   0.00000  Uiso   1.00
C201   C     0.42889   0.11182   0.38583   0.00000  Uiso   1.00
C202   C     0.42705   0.23715   0.80522   0.00000  Uiso   1.00
C203   C     0.46145   0.24467   0.92161   0.00000  Uiso   1.00
C204   C     0.47761   0.31049   0.95181   0.00000  Uiso   1.00
C205   C     0.35512   0.18037   0.75501   0.00000  Uiso   1.00
C206   C     0.32903   0.14016   0.82921   0.00000  Uiso   1.00
C207   C     0.28463   0.15819   0.81718   0.00000  Uiso   1.00
H208   H     0.35824   0.31717   0.53504   0.00000  Uiso   1.00
H209   H     0.37845   0.26638   0.29922   0.00000  Uiso   1.00
H210   H     0.41187   0.40268   0.68753   0.00000  Uiso   1.00
H211   H     0.27948   0.29819   0.59515   0.00000  Uiso   1.00
H212   H     0.40865   0.18530   0.07451   0.00000  Uiso   1.00
H213   H     0.47911   0.47270   0.89331   0.00000  Uiso   1.00
H214   H     0.19993   0.25236   0.69850   0.00000  Uiso   1.00
H215   H     0.41817   0.12612   0.81802   0.00000  Uiso   1.00
H216   H     0.44167   0.06485   0.59772   0.00000  Uiso   1.00
H217   H     0.47509   0.20116   0.98603   0.00000  Uiso   1.00
H218   H     0.34269   0.09666   0.89364   0.00000  Uiso   1.00
H219   H     0.45996   0.02173   0.31678   0.00000  Uiso   1.00
H220   H     0.53042   0.30913   0.13559   0.00000  Uiso   1.00
H221   H     0.25124   0.08879   0.94077   0.00000  Uiso   1.00
O222   O     0.44870   0.06667   0.04563   0.00000  Uiso   1.00
O223   O     0.54112   0.44372   0.11988   0.00000  Uiso   1.00
O224   O     0.17485   0.15464   0.86429   0.00000  Uiso   1.00
N225   N     0.41749   0.15521   0.16176   0.00000  Uiso   1.00
N226   N     0.48337   0.42390   0.92727   0.00000  Uiso   1.00
N227   N     0.22237   0.21791   0.74517   0.00000  Uiso   1.00
N228   N     0.44510   0.06719   0.29212   0.00000  Uiso   1.00
N229   N     0.51098   0.33589   0.05763   0.00000  Uiso   1.00
N230   N     0.24997   0.12990   0.87553   0.00000  Uiso   1.00
C231   C     0.87197   0.77340   0.59987   0.00000  Uiso   1.00
C232   C     0.89125   0.71931   0.51098   0.00000  Uiso   1.00
C233   C     0.89210   0.72286   0.36363   0.00000  Uiso   1.00
C234   C     0.91123   0.66815   0.30241   0.00000  Uiso   1.00
C235   C     0.93851   0.59273   0.15174   0.00000  Uiso   1.00
C236   C     0.90942   0.79336   0.72195   0.00000  Uiso   1.00
C237   C     0.92553   0.85919   0.75199   0.00000  Uiso   1.00
C238   C     0.95994   0.86680   0.86838   0.00000  Uiso   1.00
C239   C     0.01540   0.90637   0.04531   0.00000  Uiso   1.00
C240   C     0.83748   0.73659   0.67174   0.00000  Uiso   1.00
C241   C     0.79311   0.75468   0.65960   0.00000  Uiso   1.00
C242   C     0.76696   0.71451   0.73375   0.00000  Uiso   1.00
C243   C     0.71074   0.66592   0.83272   0.00000  Uiso   1.00
C244   C     0.90444   0.66989   0.75318   0.00000  Uiso   1.00
C245   C     0.90889   0.66309   0.59426   0.00000  Uiso   1.00
C246   C     0.92802   0.60835   0.53325   0.00000  Uiso   1.00
C247   C     0.92889   0.61182   0.38583   0.00000  Uiso   1.00
C248   C     0.92705   0.73715   0.80522   0.00000  Uiso   1.00
C249   C     0.96145   0.74467   0.92161   0.00000  Uiso   1.00
C250   C     0.97761   0.81049   0.95181   0.00000  Uiso   1.00
C251   C     0.85512   0.68037   0.75501   0.00000  Uiso   1.00
C252   C     0.82903   0.64016   0.82921   0.00000  Uiso   1.00
C253   C     0.78463   0.65819   0.81718   0.00000  Uiso   1.00
H254   H     0.85824   0.81717   0.53504   0.00000  Uiso   1.00
H255   H     0.87845   0.76638   0.29922   0.00000  Uiso   1.00
H256   H     0.91187   0.90268   0.68753   0.00000  Uiso   1.00
H257   H     0.77948   0.79819   0.59515   0.00000  Uiso   1.00
H258   H     0.90865   0.68530   0.07451   0.00000  Uiso   1.00
H259   H     0.97911   0.97270   0.89331   0.00000  Uiso   1.00
H260   H     0.69993   0.75236   0.69850   0.00000  Uiso   1.00
H261   H     0.91817   0.62612   0.81802   0.00000  Uiso   1.00
H262   H     0.94167   0.56485   0.59772   0.00000  Uiso   1.00
H263   H     0.97509   0.70116   0.98603   0.00000  Uiso   1.00
H264   H     0.84269   0.59666   0.89364   0.00000  Uiso   1.00
H265   H     0.95996   0.52173   0.31678   0.00000  Uiso   1.00
H266   H     0.03042   0.80913   0.13559   0.00000  Uiso   1.00
H267   H     0.75124   0.58879   0.94077   0.00000  Uiso   1.00
O268   O     0.94870   0.56667   0.04563   0.00000  Uiso   1.00
O269   O     0.04112   0.94372   0.11988   0.00000  Uiso   1.00
O270   O     0.67485   0.65464   0.86429   0.00000  Uiso   1.00
N271   N     0.91749   0.65521   0.16176   0.00000  Uiso   1.00
N272   N     0.98337   0.92390   0.92727   0.00000  Uiso   1.00
N273   N     0.72237   0.71791   0.74517   0.00000  Uiso   1.00
N274   N     0.94510   0.56719   0.29212   0.00000  Uiso   1.00
N275   N     0.01098   0.83589   0.05763   0.00000  Uiso   1.00
N276   N     0.74997   0.62990   0.87553   0.00000  Uiso   1.00
C277   C     0.62803   0.27340   0.90013   0.00000  Uiso   1.00
C278   C     0.60875   0.21931   0.98902   0.00000  Uiso   1.00
C279   C     0.60790   0.22286   0.13637   0.00000  Uiso   1.00
C280   C     0.58877   0.16815   0.19759   0.00000  Uiso   1.00
C281   C     0.56149   0.09273   0.34826   0.00000  Uiso   1.00
C282   C     0.59058   0.29336   0.77805   0.00000  Uiso   1.00
C283   C     0.57447   0.35919   0.74801   0.00000  Uiso   1.00
C284   C     0.54006   0.36680   0.63162   0.00000  Uiso   1.00
C285   C     0.48460   0.40637   0.45469   0.00000  Uiso   1.00
C286   C     0.66252   0.23659   0.82826   0.00000  Uiso   1.00
C287   C     0.70689   0.25468   0.84040   0.00000  Uiso   1.00
C288   C     0.73304   0.21451   0.76625   0.00000  Uiso   1.00
C289   C     0.78926   0.16592   0.66728   0.00000  Uiso   1.00
C290   C     0.59556   0.16989   0.74682   0.00000  Uiso   1.00
C291   C     0.59111   0.16309   0.90574   0.00000  Uiso   1.00
C292   C     0.57198   0.10835   0.96675   0.00000  Uiso   1.00
C293   C     0.57111   0.11182   0.11417   0.00000  Uiso   1.00
C294   C     0.57295   0.23715   0.69478   0.00000  Uiso   1.00
C295   C     0.53855   0.24467   0.57839   0.00000  Uiso   1.00
C296   C     0.52239   0.31049   0.54819   0.00000  Uiso   1.00
C297   C     0.64488   0.18037   0.74499   0.00000  Uiso   1.00
C298   C     0.67097   0.14016   0.67079   0.00000  Uiso   1.00
C299   C     0.71537   0.15819   0.68282   0.00000  Uiso   1.00
H300   H     0.64176   0.31717   0.96496   0.00000  Uiso   1.00
H301   H     0.62155   0.26638   0.20078   0.00000  Uiso   1.00
H302   H     0.58813   0.40268   0.81247   0.00000  Uiso   1.00
H303   H     0.72052   0.29819   0.90485   0.00000  Uiso   1.00
H304   H     0.59135   0.18530   0.42549   0.00000  Uiso   1.00
H305   H     0.52089   0.47270   0.60669   0.00000  Uiso   1.00
H306   H     0.80007   0.25236   0.80150   0.00000  Uiso   1.00
H307   H     0.58183   0.12612   0.68198   0.00000  Uiso   1.00
H308   H     0.55833   0.06485   0.90228   0.00000  Uiso   1.00
H309   H     0.52491   0.20116   0.51397   0.00000  Uiso   1.00
H310   H     0.65731   0.09666   0.60636   0.00000  Uiso   1.00
H311   H     0.54004   0.02173   0.18322   0.00000  Uiso   1.00
H312   H     0.46958   0.30913   0.36441   0.00000  Uiso   1.00
H313   H     0.74876   0.08879   0.55923   0.00000  Uiso   1.00
O314   O     0.55130   0.06667   0.45437   0.00000  Uiso   1.00
O315   O     0.45888   0.44372   0.38012   0.00000  Uiso   1.00
O316   O     0.82515   0.15464   0.63571   0.00000  Uiso   1.00
N317   N     0.58251   0.15521   0.33824   0.00000  Uiso   1.00
N318   N     0.51663   0.42390   0.57273   0.00000  Uiso   1.00
N319   N     0.77763   0.21791   0.75483   0.00000  Uiso   1.00
N320   N     0.55490   0.06719   0.20788   0.00000  Uiso   1.00
N321   N     0.48902   0.33589   0.44237   0.00000  Uiso   1.00
N322   N     0.75003   0.12990   0.62447   0.00000  Uiso   1.00
C323   C     0.12803   0.77340   0.90013   0.00000  Uiso   1.00
C324   C     0.10875   0.71931   0.98902   0.00000  Uiso   1.00
C325   C     0.10790   0.72286   0.13637   0.00000  Uiso   1.00
C326   C     0.08877   0.66815   0.19759   0.00000  Uiso   1.00
C327   C     0.06149   0.59273   0.34826   0.00000  Uiso   1.00
C328   C     0.09058   0.79336   0.77805   0.00000  Uiso   1.00
C329   C     0.07447   0.85919   0.74801   0.00000  Uiso   1.00
C330   C     0.04006   0.86680   0.63162   0.00000  Uiso   1.00
C331   C     0.98460   0.90637   0.45469   0.00000  Uiso   1.00
C332   C     0.16252   0.73659   0.82826   0.00000  Uiso   1.00
C333   C     0.20689   0.75468   0.84040   0.00000  Uiso   1.00
C334   C     0.23304   0.71451   0.76625   0.00000  Uiso   1.00
C335   C     0.28926   0.66592   0.66728   0.00000  Uiso   1.00
C336   C     0.09556   0.66989   0.74682   0.00000  Uiso   1.00
C337   C     0.09111   0.66309   0.90574   0.00000  Uiso   1.00
C338   C     0.07198   0.60835   0.96675   0.00000  Uiso   1.00
C339   C     0.07111   0.61182   0.11417   0.00000  Uiso   1.00
C340   C     0.07295   0.73715   0.69478   0.00000  Uiso   1.00
C341   C     0.03855   0.74467   0.57839   0.00000  Uiso   1.00
C342   C     0.02239   0.81049   0.54819   0.00000  Uiso   1.00
C343   C     0.14488   0.68037   0.74499   0.00000  Uiso   1.00
C344   C     0.17097   0.64016   0.67079   0.00000  Uiso   1.00
C345   C     0.21537   0.65819   0.68282   0.00000  Uiso   1.00
H346   H     0.14176   0.81717   0.96496   0.00000  Uiso   1.00
H347   H     0.12155   0.76638   0.20078   0.00000  Uiso   1.00
H348   H     0.08813   0.90268   0.81247   0.00000  Uiso   1.00
H349   H     0.22052   0.79819   0.90485   0.00000  Uiso   1.00
H350   H     0.09135   0.68530   0.42549   0.00000  Uiso   1.00
H351   H     0.02089   0.97270   0.60669   0.00000  Uiso   1.00
H352   H     0.30007   0.75236   0.80150   0.00000  Uiso   1.00
H353   H     0.08183   0.62612   0.68198   0.00000  Uiso   1.00
H354   H     0.05833   0.56485   0.90228   0.00000  Uiso   1.00
H355   H     0.02491   0.70116   0.51397   0.00000  Uiso   1.00
H356   H     0.15731   0.59666   0.60636   0.00000  Uiso   1.00
H357   H     0.04004   0.52173   0.18322   0.00000  Uiso   1.00
H358   H     0.96958   0.80913   0.36441   0.00000  Uiso   1.00
H359   H     0.24876   0.58879   0.55923   0.00000  Uiso   1.00
O360   O     0.05130   0.56667   0.45437   0.00000  Uiso   1.00
O361   O     0.95888   0.94372   0.38012   0.00000  Uiso   1.00
O362   O     0.32515   0.65464   0.63571   0.00000  Uiso   1.00
N363   N     0.08251   0.65521   0.33824   0.00000  Uiso   1.00
N364   N     0.01663   0.92390   0.57273   0.00000  Uiso   1.00
N365   N     0.27763   0.71791   0.75483   0.00000  Uiso   1.00
N366   N     0.05490   0.56719   0.20788   0.00000  Uiso   1.00
N367   N     0.98902   0.83589   0.44237   0.00000  Uiso   1.00
N368   N     0.25003   0.62990   0.62447   0.00000  Uiso   1.00
