data_job_04735
_audit_creation_date              2018-12-19
_audit_creation_method            'Materials Studio'
_symmetry_space_group_name_H-M    'P1'
_symmetry_Int_Tables_number       1
_symmetry_cell_setting            triclinic
loop_
_symmetry_equiv_pos_as_xyz
  x,y,z
_cell_length_a                    17.5530
_cell_length_b                    20.5170
_cell_length_c                    15.9093
_cell_angle_alpha                 90.0000
_cell_angle_beta                  90.0000
_cell_angle_gamma                 90.0000
loop_
_atom_site_label
_atom_site_type_symbol
_atom_site_fract_x
_atom_site_fract_y
_atom_site_fract_z
_atom_site_U_iso_or_equiv
_atom_site_adp_type
_atom_site_occupancy
C1     C     0.54801   0.56963   0.96450   0.00000  Uiso   1.00
C2     C     0.62124   0.60936   0.95853   0.00000  Uiso   1.00
C3     C     0.65559   0.64285   0.02416   0.00000  Uiso   1.00
C4     C     0.72233   0.67629   0.00589   0.00000  Uiso   1.00
C5     C     0.83126   0.73802   0.00894   0.00000  Uiso   1.00
C6     C     0.49407   0.59807   0.89892   0.00000  Uiso   1.00
C7     C     0.42150   0.62207   0.91442   0.00000  Uiso   1.00
C8     C     0.38119   0.64600   0.84597   0.00000  Uiso   1.00
C9     C     0.29268   0.69016   0.75646   0.00000  Uiso   1.00
C10    C     0.56809   0.50134   0.93383   0.00000  Uiso   1.00
C11    C     0.55774   0.44400   0.97868   0.00000  Uiso   1.00
C12    C     0.57973   0.38649   0.93960   0.00000  Uiso   1.00
C13    C     0.60615   0.28047   0.90430   0.00000  Uiso   1.00
C14    C     0.60547   0.56945   0.81535   0.00000  Uiso   1.00
C15    C     0.65244   0.60926   0.87752   0.00000  Uiso   1.00
C16    C     0.71916   0.64265   0.85914   0.00000  Uiso   1.00
C17    C     0.75360   0.67619   0.92473   0.00000  Uiso   1.00
C18    C     0.52528   0.59797   0.81791   0.00000  Uiso   1.00
C19    C     0.48507   0.62187   0.74941   0.00000  Uiso   1.00
C20    C     0.41246   0.64590   0.76481   0.00000  Uiso   1.00
C21    C     0.59930   0.50124   0.85282   0.00000  Uiso   1.00
C22    C     0.62131   0.44381   0.81366   0.00000  Uiso   1.00
C23    C     0.61100   0.38639   0.85845   0.00000  Uiso   1.00
H24    H     0.52371   0.56971   0.02756   0.00000  Uiso   1.00
H25    H     0.63141   0.64292   0.08684   0.00000  Uiso   1.00
H26    H     0.39736   0.62213   0.97712   0.00000  Uiso   1.00
H27    H     0.53358   0.44410   0.04137   0.00000  Uiso   1.00
H28    H     0.76457   0.72407   0.11683   0.00000  Uiso   1.00
H29    H     0.27105   0.68022   0.88547   0.00000  Uiso   1.00
H30    H     0.55829   0.30480   0.02095   0.00000  Uiso   1.00
H31    H     0.62977   0.56937   0.75227   0.00000  Uiso   1.00
H32    H     0.74329   0.64256   0.79645   0.00000  Uiso   1.00
H33    H     0.50924   0.62178   0.68672   0.00000  Uiso   1.00
H34    H     0.64546   0.44375   0.75097   0.00000  Uiso   1.00
H35    H     0.85537   0.72378   0.88113   0.00000  Uiso   1.00
H36    H     0.36185   0.67993   0.64977   0.00000  Uiso   1.00
H37    H     0.64910   0.30451   0.78525   0.00000  Uiso   1.00
O38    O     0.88272   0.77210   0.03300   0.00000  Uiso   1.00
O39    O     0.23524   0.71456   0.72947   0.00000  Uiso   1.00
O40    O     0.61210   0.22202   0.90721   0.00000  Uiso   1.00
N41    N     0.77037   0.71394   0.05530   0.00000  Uiso   1.00
N42    N     0.30896   0.67296   0.83900   0.00000  Uiso   1.00
N43    N     0.57749   0.32197   0.96565   0.00000  Uiso   1.00
N44    N     0.81923   0.71379   0.92847   0.00000  Uiso   1.00
N45    N     0.35782   0.67280   0.71217   0.00000  Uiso   1.00
N46    N     0.62635   0.32181   0.83882   0.00000  Uiso   1.00
C47    C     0.10435   0.07725   0.06326   0.00000  Uiso   1.00
C48    C     0.03180   0.11773   0.07077   0.00000  Uiso   1.00
C49    C     0.99810   0.15323   0.00650   0.00000  Uiso   1.00
C50    C     0.93192   0.18704   0.02606   0.00000  Uiso   1.00
C51    C     0.82406   0.25017   0.02541   0.00000  Uiso   1.00
C52    C     0.15870   0.10342   0.12999   0.00000  Uiso   1.00
C53    C     0.23170   0.12686   0.11551   0.00000  Uiso   1.00
C54    C     0.27234   0.14862   0.18493   0.00000  Uiso   1.00
C55    C     0.36151   0.18948   0.27623   0.00000  Uiso   1.00
C56    C     0.08307   0.00852   0.09116   0.00000  Uiso   1.00
C57    C     0.09249   0.95217   0.04403   0.00000  Uiso   1.00
C58    C     0.06947   0.89402   0.08076   0.00000  Uiso   1.00
C59    C     0.04121   0.78754   0.11176   0.00000  Uiso   1.00
C60    C     0.04675   0.07419   0.21229   0.00000  Uiso   1.00
C61    C     0.00052   0.11607   0.15172   0.00000  Uiso   1.00
C62    C     0.93437   0.14983   0.17138   0.00000  Uiso   1.00
C63    C     0.90057   0.18537   0.10715   0.00000  Uiso   1.00
C64    C     0.12742   0.10175   0.21094   0.00000  Uiso   1.00
C65    C     0.16796   0.12347   0.28039   0.00000  Uiso   1.00
C66    C     0.24100   0.14695   0.26602   0.00000  Uiso   1.00
C67    C     0.05178   0.00685   0.17210   0.00000  Uiso   1.00
C68    C     0.02875   0.94878   0.20891   0.00000  Uiso   1.00
C69    C     0.03813   0.89235   0.16185   0.00000  Uiso   1.00
H70    H     0.12871   0.07855   0.00025   0.00000  Uiso   1.00
H71    H     0.02233   0.15451   0.94387   0.00000  Uiso   1.00
H72    H     0.25589   0.12814   0.05286   0.00000  Uiso   1.00
H73    H     0.11670   0.95348   0.98139   0.00000  Uiso   1.00
H74    H     0.89061   0.23800   0.91706   0.00000  Uiso   1.00
H75    H     0.38310   0.18239   0.14689   0.00000  Uiso   1.00
H76    H     0.08959   0.81407   0.99618   0.00000  Uiso   1.00
H77    H     0.02239   0.07289   0.27532   0.00000  Uiso   1.00
H78    H     0.91017   0.14854   0.23403   0.00000  Uiso   1.00
H79    H     0.14374   0.12217   0.34303   0.00000  Uiso   1.00
H80    H     0.00454   0.94751   0.27155   0.00000  Uiso   1.00
H81    H     0.79958   0.23316   0.15257   0.00000  Uiso   1.00
H82    H     0.29207   0.17754   0.38240   0.00000  Uiso   1.00
H83    H     0.99855   0.80923   0.23169   0.00000  Uiso   1.00
O84    O     0.77321   0.28546   0.00270   0.00000  Uiso   1.00
O85    O     0.41934   0.21249   0.30423   0.00000  Uiso   1.00
O86    O     0.03425   0.72927   0.10650   0.00000  Uiso   1.00
N87    N     0.88458   0.22647   0.97815   0.00000  Uiso   1.00
N88    N     0.34502   0.17448   0.19303   0.00000  Uiso   1.00
N89    N     0.07063   0.83014   0.05213   0.00000  Uiso   1.00
N90    N     0.83560   0.22386   0.10488   0.00000  Uiso   1.00
N91    N     0.29604   0.17188   0.31975   0.00000  Uiso   1.00
N92    N     0.02164   0.82753   0.17886   0.00000  Uiso   1.00
C93    C     0.45199   0.43037   0.46450   0.00000  Uiso   1.00
C94    C     0.37876   0.39064   0.45853   0.00000  Uiso   1.00
C95    C     0.34441   0.35715   0.52416   0.00000  Uiso   1.00
C96    C     0.27767   0.32371   0.50589   0.00000  Uiso   1.00
C97    C     0.16874   0.26198   0.50894   0.00000  Uiso   1.00
C98    C     0.50593   0.40193   0.39892   0.00000  Uiso   1.00
C99    C     0.57850   0.37793   0.41442   0.00000  Uiso   1.00
C100   C     0.61881   0.35400   0.34597   0.00000  Uiso   1.00
C101   C     0.70732   0.30984   0.25646   0.00000  Uiso   1.00
C102   C     0.43191   0.49866   0.43383   0.00000  Uiso   1.00
C103   C     0.44226   0.55600   0.47868   0.00000  Uiso   1.00
C104   C     0.42027   0.61351   0.43960   0.00000  Uiso   1.00
C105   C     0.39385   0.71953   0.40430   0.00000  Uiso   1.00
C106   C     0.39453   0.43055   0.31535   0.00000  Uiso   1.00
C107   C     0.34756   0.39074   0.37752   0.00000  Uiso   1.00
C108   C     0.28084   0.35735   0.35914   0.00000  Uiso   1.00
C109   C     0.24640   0.32381   0.42473   0.00000  Uiso   1.00
C110   C     0.47472   0.40203   0.31791   0.00000  Uiso   1.00
C111   C     0.51493   0.37813   0.24941   0.00000  Uiso   1.00
C112   C     0.58754   0.35410   0.26481   0.00000  Uiso   1.00
C113   C     0.40070   0.49876   0.35282   0.00000  Uiso   1.00
C114   C     0.37869   0.55619   0.31366   0.00000  Uiso   1.00
C115   C     0.38900   0.61361   0.35845   0.00000  Uiso   1.00
H116   H     0.47629   0.43029   0.52756   0.00000  Uiso   1.00
H117   H     0.36859   0.35708   0.58684   0.00000  Uiso   1.00
H118   H     0.60264   0.37787   0.47712   0.00000  Uiso   1.00
H119   H     0.46642   0.55590   0.54137   0.00000  Uiso   1.00
H120   H     0.23543   0.27593   0.61683   0.00000  Uiso   1.00
H121   H     0.72895   0.31978   0.38547   0.00000  Uiso   1.00
H122   H     0.44171   0.69520   0.52095   0.00000  Uiso   1.00
H123   H     0.37023   0.43063   0.25227   0.00000  Uiso   1.00
H124   H     0.25671   0.35744   0.29645   0.00000  Uiso   1.00
H125   H     0.49076   0.37822   0.18672   0.00000  Uiso   1.00
H126   H     0.35454   0.55625   0.25097   0.00000  Uiso   1.00
H127   H     0.14463   0.27622   0.38113   0.00000  Uiso   1.00
H128   H     0.63815   0.32007   0.14977   0.00000  Uiso   1.00
H129   H     0.35090   0.69549   0.28525   0.00000  Uiso   1.00
O130   O     0.11728   0.22790   0.53300   0.00000  Uiso   1.00
O131   O     0.76476   0.28544   0.22947   0.00000  Uiso   1.00
O132   O     0.38790   0.77798   0.40721   0.00000  Uiso   1.00
N133   N     0.22963   0.28606   0.55530   0.00000  Uiso   1.00
N134   N     0.69104   0.32704   0.33900   0.00000  Uiso   1.00
N135   N     0.42251   0.67803   0.46565   0.00000  Uiso   1.00
N136   N     0.18077   0.28621   0.42847   0.00000  Uiso   1.00
N137   N     0.64218   0.32720   0.21217   0.00000  Uiso   1.00
N138   N     0.37365   0.67819   0.33882   0.00000  Uiso   1.00
C139   C     0.89565   0.92275   0.56326   0.00000  Uiso   1.00
C140   C     0.96820   0.88227   0.57077   0.00000  Uiso   1.00
C141   C     0.00190   0.84677   0.50650   0.00000  Uiso   1.00
C142   C     0.06808   0.81296   0.52606   0.00000  Uiso   1.00
C143   C     0.17594   0.74983   0.52541   0.00000  Uiso   1.00
C144   C     0.84130   0.89658   0.62999   0.00000  Uiso   1.00
C145   C     0.76830   0.87314   0.61551   0.00000  Uiso   1.00
C146   C     0.72766   0.85138   0.68493   0.00000  Uiso   1.00
C147   C     0.63849   0.81052   0.77623   0.00000  Uiso   1.00
C148   C     0.91693   0.99148   0.59116   0.00000  Uiso   1.00
C149   C     0.90751   0.04783   0.54403   0.00000  Uiso   1.00
C150   C     0.93053   0.10598   0.58076   0.00000  Uiso   1.00
C151   C     0.95879   0.21246   0.61176   0.00000  Uiso   1.00
C152   C     0.95325   0.92581   0.71229   0.00000  Uiso   1.00
C153   C     0.99948   0.88393   0.65172   0.00000  Uiso   1.00
C154   C     0.06563   0.85017   0.67138   0.00000  Uiso   1.00
C155   C     0.09943   0.81463   0.60715   0.00000  Uiso   1.00
C156   C     0.87258   0.89825   0.71094   0.00000  Uiso   1.00
C157   C     0.83204   0.87653   0.78039   0.00000  Uiso   1.00
C158   C     0.75900   0.85305   0.76602   0.00000  Uiso   1.00
C159   C     0.94822   0.99315   0.67210   0.00000  Uiso   1.00
C160   C     0.97125   0.05122   0.70891   0.00000  Uiso   1.00
C161   C     0.96187   0.10765   0.66185   0.00000  Uiso   1.00
H162   H     0.87129   0.92145   0.50025   0.00000  Uiso   1.00
H163   H     0.97767   0.84549   0.44387   0.00000  Uiso   1.00
H164   H     0.74411   0.87186   0.55286   0.00000  Uiso   1.00
H165   H     0.88330   0.04652   0.48139   0.00000  Uiso   1.00
H166   H     0.10939   0.76200   0.41706   0.00000  Uiso   1.00
H167   H     0.61690   0.81761   0.64689   0.00000  Uiso   1.00
H168   H     0.91041   0.18593   0.49618   0.00000  Uiso   1.00
H169   H     0.97761   0.92711   0.77532   0.00000  Uiso   1.00
H170   H     0.08983   0.85146   0.73403   0.00000  Uiso   1.00
H171   H     0.85626   0.87783   0.84303   0.00000  Uiso   1.00
H172   H     0.99546   0.05249   0.77155   0.00000  Uiso   1.00
H173   H     0.20042   0.76684   0.65257   0.00000  Uiso   1.00
H174   H     0.70793   0.82246   0.88240   0.00000  Uiso   1.00
H175   H     0.00145   0.19077   0.73169   0.00000  Uiso   1.00
O176   O     0.22679   0.71454   0.50270   0.00000  Uiso   1.00
O177   O     0.58066   0.78751   0.80423   0.00000  Uiso   1.00
O178   O     0.96575   0.27073   0.60650   0.00000  Uiso   1.00
N179   N     0.11542   0.77353   0.47815   0.00000  Uiso   1.00
N180   N     0.65498   0.82552   0.69303   0.00000  Uiso   1.00
N181   N     0.92937   0.16986   0.55213   0.00000  Uiso   1.00
N182   N     0.16440   0.77614   0.60488   0.00000  Uiso   1.00
N183   N     0.70396   0.82812   0.81975   0.00000  Uiso   1.00
N184   N     0.97836   0.17247   0.67886   0.00000  Uiso   1.00
C185   C     0.04801   0.43037   0.96450   0.00000  Uiso   1.00
C186   C     0.12124   0.39064   0.95853   0.00000  Uiso   1.00
C187   C     0.15559   0.35715   0.02416   0.00000  Uiso   1.00
C188   C     0.22233   0.32371   0.00589   0.00000  Uiso   1.00
C189   C     0.33126   0.26198   0.00894   0.00000  Uiso   1.00
C190   C     0.99407   0.40193   0.89892   0.00000  Uiso   1.00
C191   C     0.92150   0.37793   0.91442   0.00000  Uiso   1.00
C192   C     0.88119   0.35400   0.84597   0.00000  Uiso   1.00
C193   C     0.79268   0.30984   0.75646   0.00000  Uiso   1.00
C194   C     0.06809   0.49866   0.93383   0.00000  Uiso   1.00
C195   C     0.05774   0.55600   0.97868   0.00000  Uiso   1.00
C196   C     0.07973   0.61351   0.93960   0.00000  Uiso   1.00
C197   C     0.10615   0.71953   0.90430   0.00000  Uiso   1.00
C198   C     0.10547   0.43055   0.81535   0.00000  Uiso   1.00
C199   C     0.15244   0.39074   0.87752   0.00000  Uiso   1.00
C200   C     0.21916   0.35735   0.85914   0.00000  Uiso   1.00
C201   C     0.25360   0.32381   0.92473   0.00000  Uiso   1.00
C202   C     0.02528   0.40203   0.81791   0.00000  Uiso   1.00
C203   C     0.98507   0.37813   0.74941   0.00000  Uiso   1.00
C204   C     0.91246   0.35410   0.76481   0.00000  Uiso   1.00
C205   C     0.09930   0.49876   0.85282   0.00000  Uiso   1.00
C206   C     0.12131   0.55619   0.81366   0.00000  Uiso   1.00
C207   C     0.11100   0.61361   0.85845   0.00000  Uiso   1.00
H208   H     0.02371   0.43029   0.02756   0.00000  Uiso   1.00
H209   H     0.13141   0.35708   0.08684   0.00000  Uiso   1.00
H210   H     0.89736   0.37787   0.97712   0.00000  Uiso   1.00
H211   H     0.03358   0.55590   0.04137   0.00000  Uiso   1.00
H212   H     0.26457   0.27593   0.11683   0.00000  Uiso   1.00
H213   H     0.77105   0.31978   0.88547   0.00000  Uiso   1.00
H214   H     0.05829   0.69520   0.02095   0.00000  Uiso   1.00
H215   H     0.12977   0.43063   0.75227   0.00000  Uiso   1.00
H216   H     0.24329   0.35744   0.79645   0.00000  Uiso   1.00
H217   H     0.00924   0.37822   0.68672   0.00000  Uiso   1.00
H218   H     0.14546   0.55625   0.75097   0.00000  Uiso   1.00
H219   H     0.35537   0.27622   0.88113   0.00000  Uiso   1.00
H220   H     0.86185   0.32007   0.64977   0.00000  Uiso   1.00
H221   H     0.14910   0.69549   0.78525   0.00000  Uiso   1.00
O222   O     0.38272   0.22790   0.03300   0.00000  Uiso   1.00
O223   O     0.73524   0.28544   0.72947   0.00000  Uiso   1.00
O224   O     0.11210   0.77798   0.90721   0.00000  Uiso   1.00
N225   N     0.27037   0.28606   0.05530   0.00000  Uiso   1.00
N226   N     0.80896   0.32704   0.83900   0.00000  Uiso   1.00
N227   N     0.07749   0.67803   0.96565   0.00000  Uiso   1.00
N228   N     0.31923   0.28621   0.92847   0.00000  Uiso   1.00
N229   N     0.85782   0.32720   0.71217   0.00000  Uiso   1.00
N230   N     0.12635   0.67819   0.83882   0.00000  Uiso   1.00
C231   C     0.60435   0.92275   0.06326   0.00000  Uiso   1.00
C232   C     0.53180   0.88227   0.07077   0.00000  Uiso   1.00
C233   C     0.49810   0.84677   0.00650   0.00000  Uiso   1.00
C234   C     0.43192   0.81296   0.02606   0.00000  Uiso   1.00
C235   C     0.32406   0.74983   0.02541   0.00000  Uiso   1.00
C236   C     0.65870   0.89658   0.12999   0.00000  Uiso   1.00
C237   C     0.73170   0.87314   0.11551   0.00000  Uiso   1.00
C238   C     0.77234   0.85138   0.18493   0.00000  Uiso   1.00
C239   C     0.86151   0.81052   0.27623   0.00000  Uiso   1.00
C240   C     0.58307   0.99148   0.09116   0.00000  Uiso   1.00
C241   C     0.59249   0.04783   0.04403   0.00000  Uiso   1.00
C242   C     0.56947   0.10598   0.08076   0.00000  Uiso   1.00
C243   C     0.54121   0.21246   0.11176   0.00000  Uiso   1.00
C244   C     0.54675   0.92581   0.21229   0.00000  Uiso   1.00
C245   C     0.50052   0.88393   0.15172   0.00000  Uiso   1.00
C246   C     0.43437   0.85017   0.17138   0.00000  Uiso   1.00
C247   C     0.40057   0.81463   0.10715   0.00000  Uiso   1.00
C248   C     0.62742   0.89825   0.21094   0.00000  Uiso   1.00
C249   C     0.66796   0.87653   0.28039   0.00000  Uiso   1.00
C250   C     0.74100   0.85305   0.26602   0.00000  Uiso   1.00
C251   C     0.55178   0.99315   0.17210   0.00000  Uiso   1.00
C252   C     0.52875   0.05122   0.20891   0.00000  Uiso   1.00
C253   C     0.53813   0.10765   0.16185   0.00000  Uiso   1.00
H254   H     0.62871   0.92145   0.00025   0.00000  Uiso   1.00
H255   H     0.52233   0.84549   0.94387   0.00000  Uiso   1.00
H256   H     0.75589   0.87186   0.05286   0.00000  Uiso   1.00
H257   H     0.61670   0.04652   0.98139   0.00000  Uiso   1.00
H258   H     0.39061   0.76200   0.91706   0.00000  Uiso   1.00
H259   H     0.88310   0.81761   0.14689   0.00000  Uiso   1.00
H260   H     0.58959   0.18593   0.99618   0.00000  Uiso   1.00
H261   H     0.52239   0.92711   0.27532   0.00000  Uiso   1.00
H262   H     0.41017   0.85146   0.23403   0.00000  Uiso   1.00
H263   H     0.64374   0.87783   0.34303   0.00000  Uiso   1.00
H264   H     0.50454   0.05249   0.27155   0.00000  Uiso   1.00
H265   H     0.29958   0.76684   0.15257   0.00000  Uiso   1.00
H266   H     0.79207   0.82246   0.38240   0.00000  Uiso   1.00
H267   H     0.49855   0.19077   0.23169   0.00000  Uiso   1.00
O268   O     0.27321   0.71454   0.00270   0.00000  Uiso   1.00
O269   O     0.91934   0.78751   0.30423   0.00000  Uiso   1.00
O270   O     0.53425   0.27073   0.10650   0.00000  Uiso   1.00
N271   N     0.38458   0.77353   0.97815   0.00000  Uiso   1.00
N272   N     0.84502   0.82552   0.19303   0.00000  Uiso   1.00
N273   N     0.57063   0.16986   0.05213   0.00000  Uiso   1.00
N274   N     0.33560   0.77614   0.10488   0.00000  Uiso   1.00
N275   N     0.79604   0.82812   0.31975   0.00000  Uiso   1.00
N276   N     0.52164   0.17247   0.17886   0.00000  Uiso   1.00
C277   C     0.95199   0.56963   0.46450   0.00000  Uiso   1.00
C278   C     0.87876   0.60936   0.45853   0.00000  Uiso   1.00
C279   C     0.84441   0.64285   0.52416   0.00000  Uiso   1.00
C280   C     0.77767   0.67629   0.50589   0.00000  Uiso   1.00
C281   C     0.66874   0.73802   0.50894   0.00000  Uiso   1.00
C282   C     0.00593   0.59807   0.39892   0.00000  Uiso   1.00
C283   C     0.07850   0.62207   0.41442   0.00000  Uiso   1.00
C284   C     0.11881   0.64600   0.34597   0.00000  Uiso   1.00
C285   C     0.20732   0.69016   0.25646   0.00000  Uiso   1.00
C286   C     0.93191   0.50134   0.43383   0.00000  Uiso   1.00
C287   C     0.94226   0.44400   0.47868   0.00000  Uiso   1.00
C288   C     0.92027   0.38649   0.43960   0.00000  Uiso   1.00
C289   C     0.89385   0.28047   0.40430   0.00000  Uiso   1.00
C290   C     0.89453   0.56945   0.31535   0.00000  Uiso   1.00
C291   C     0.84756   0.60926   0.37752   0.00000  Uiso   1.00
C292   C     0.78084   0.64265   0.35914   0.00000  Uiso   1.00
C293   C     0.74640   0.67619   0.42473   0.00000  Uiso   1.00
C294   C     0.97472   0.59797   0.31791   0.00000  Uiso   1.00
C295   C     0.01493   0.62187   0.24941   0.00000  Uiso   1.00
C296   C     0.08754   0.64590   0.26481   0.00000  Uiso   1.00
C297   C     0.90070   0.50124   0.35282   0.00000  Uiso   1.00
C298   C     0.87869   0.44381   0.31366   0.00000  Uiso   1.00
C299   C     0.88900   0.38639   0.35845   0.00000  Uiso   1.00
H300   H     0.97629   0.56971   0.52756   0.00000  Uiso   1.00
H301   H     0.86859   0.64292   0.58684   0.00000  Uiso   1.00
H302   H     0.10264   0.62213   0.47712   0.00000  Uiso   1.00
H303   H     0.96642   0.44410   0.54137   0.00000  Uiso   1.00
H304   H     0.73543   0.72407   0.61683   0.00000  Uiso   1.00
H305   H     0.22895   0.68022   0.38547   0.00000  Uiso   1.00
H306   H     0.94171   0.30480   0.52095   0.00000  Uiso   1.00
H307   H     0.87023   0.56937   0.25227   0.00000  Uiso   1.00
H308   H     0.75671   0.64256   0.29645   0.00000  Uiso   1.00
H309   H     0.99076   0.62178   0.18672   0.00000  Uiso   1.00
H310   H     0.85454   0.44375   0.25097   0.00000  Uiso   1.00
H311   H     0.64463   0.72378   0.38113   0.00000  Uiso   1.00
H312   H     0.13815   0.67993   0.14977   0.00000  Uiso   1.00
H313   H     0.85090   0.30451   0.28525   0.00000  Uiso   1.00
O314   O     0.61728   0.77210   0.53300   0.00000  Uiso   1.00
O315   O     0.26476   0.71456   0.22947   0.00000  Uiso   1.00
O316   O     0.88790   0.22202   0.40721   0.00000  Uiso   1.00
N317   N     0.72963   0.71394   0.55530   0.00000  Uiso   1.00
N318   N     0.19104   0.67296   0.33900   0.00000  Uiso   1.00
N319   N     0.92251   0.32197   0.46565   0.00000  Uiso   1.00
N320   N     0.68077   0.71379   0.42847   0.00000  Uiso   1.00
N321   N     0.14218   0.67280   0.21217   0.00000  Uiso   1.00
N322   N     0.87365   0.32181   0.33882   0.00000  Uiso   1.00
C323   C     0.39565   0.07725   0.56326   0.00000  Uiso   1.00
C324   C     0.46820   0.11773   0.57077   0.00000  Uiso   1.00
C325   C     0.50190   0.15323   0.50650   0.00000  Uiso   1.00
C326   C     0.56808   0.18704   0.52606   0.00000  Uiso   1.00
C327   C     0.67594   0.25017   0.52541   0.00000  Uiso   1.00
C328   C     0.34130   0.10342   0.62999   0.00000  Uiso   1.00
C329   C     0.26830   0.12686   0.61551   0.00000  Uiso   1.00
C330   C     0.22766   0.14862   0.68493   0.00000  Uiso   1.00
C331   C     0.13849   0.18948   0.77623   0.00000  Uiso   1.00
C332   C     0.41693   0.00852   0.59116   0.00000  Uiso   1.00
C333   C     0.40751   0.95217   0.54403   0.00000  Uiso   1.00
C334   C     0.43053   0.89402   0.58076   0.00000  Uiso   1.00
C335   C     0.45879   0.78754   0.61176   0.00000  Uiso   1.00
C336   C     0.45325   0.07419   0.71229   0.00000  Uiso   1.00
C337   C     0.49948   0.11607   0.65172   0.00000  Uiso   1.00
C338   C     0.56563   0.14983   0.67138   0.00000  Uiso   1.00
C339   C     0.59943   0.18537   0.60715   0.00000  Uiso   1.00
C340   C     0.37258   0.10175   0.71094   0.00000  Uiso   1.00
C341   C     0.33204   0.12347   0.78039   0.00000  Uiso   1.00
C342   C     0.25900   0.14695   0.76602   0.00000  Uiso   1.00
C343   C     0.44822   0.00685   0.67210   0.00000  Uiso   1.00
C344   C     0.47125   0.94878   0.70891   0.00000  Uiso   1.00
C345   C     0.46187   0.89235   0.66185   0.00000  Uiso   1.00
H346   H     0.37129   0.07855   0.50025   0.00000  Uiso   1.00
H347   H     0.47767   0.15451   0.44387   0.00000  Uiso   1.00
H348   H     0.24411   0.12814   0.55286   0.00000  Uiso   1.00
H349   H     0.38330   0.95348   0.48139   0.00000  Uiso   1.00
H350   H     0.60939   0.23800   0.41706   0.00000  Uiso   1.00
H351   H     0.11690   0.18239   0.64689   0.00000  Uiso   1.00
H352   H     0.41041   0.81407   0.49618   0.00000  Uiso   1.00
H353   H     0.47761   0.07289   0.77532   0.00000  Uiso   1.00
H354   H     0.58983   0.14854   0.73403   0.00000  Uiso   1.00
H355   H     0.35626   0.12217   0.84303   0.00000  Uiso   1.00
H356   H     0.49546   0.94751   0.77155   0.00000  Uiso   1.00
H357   H     0.70042   0.23316   0.65257   0.00000  Uiso   1.00
H358   H     0.20793   0.17754   0.88240   0.00000  Uiso   1.00
H359   H     0.50145   0.80923   0.73169   0.00000  Uiso   1.00
O360   O     0.72679   0.28546   0.50270   0.00000  Uiso   1.00
O361   O     0.08066   0.21249   0.80423   0.00000  Uiso   1.00
O362   O     0.46575   0.72927   0.60650   0.00000  Uiso   1.00
N363   N     0.61542   0.22647   0.47815   0.00000  Uiso   1.00
N364   N     0.15498   0.17448   0.69303   0.00000  Uiso   1.00
N365   N     0.42937   0.83014   0.55213   0.00000  Uiso   1.00
N366   N     0.66440   0.22386   0.60488   0.00000  Uiso   1.00
N367   N     0.20396   0.17188   0.81975   0.00000  Uiso   1.00
N368   N     0.47836   0.82753   0.67886   0.00000  Uiso   1.00
