data_job_02017
_audit_creation_date              2018-12-19
_audit_creation_method            'Materials Studio'
_symmetry_space_group_name_H-M    'P1'
_symmetry_Int_Tables_number       1
_symmetry_cell_setting            triclinic
loop_
_symmetry_equiv_pos_as_xyz
  x,y,z
_cell_length_a                    9.5680
_cell_length_b                    26.2682
_cell_length_c                    18.5660
_cell_angle_alpha                 90.0000
_cell_angle_beta                  90.0000
_cell_angle_gamma                 90.0000
loop_
_atom_site_label
_atom_site_type_symbol
_atom_site_fract_x
_atom_site_fract_y
_atom_site_fract_z
_atom_site_U_iso_or_equiv
_atom_site_adp_type
_atom_site_occupancy
C1     C     0.74452   0.85989   0.69698   0.00000  Uiso   1.00
C2     C     0.66169   0.90928   0.70353   0.00000  Uiso   1.00
C3     C     0.65449   0.93992   0.76430   0.00000  Uiso   1.00
C4     C     0.57308   0.98354   0.75945   0.00000  Uiso   1.00
C5     C     0.45542   0.05833   0.77925   0.00000  Uiso   1.00
C6     C     0.84200   0.86699   0.63278   0.00000  Uiso   1.00
C7     C     0.98640   0.86207   0.63407   0.00000  Uiso   1.00
C8     C     0.05677   0.87009   0.56966   0.00000  Uiso   1.00
C9     C     0.21904   0.87920   0.47961   0.00000  Uiso   1.00
C10    C     0.63956   0.81916   0.67466   0.00000  Uiso   1.00
C11    C     0.61376   0.77402   0.71115   0.00000  Uiso   1.00
C12    C     0.51371   0.74175   0.68199   0.00000  Uiso   1.00
C13    C     0.36165   0.67660   0.65696   0.00000  Uiso   1.00
C14    C     0.61273   0.88286   0.58029   0.00000  Uiso   1.00
C15    C     0.59011   0.92175   0.64014   0.00000  Uiso   1.00
C16    C     0.50868   0.96533   0.63520   0.00000  Uiso   1.00
C17    C     0.50136   0.99603   0.69595   0.00000  Uiso   1.00
C18    C     0.77043   0.87947   0.56940   0.00000  Uiso   1.00
C19    C     0.84059   0.88749   0.50497   0.00000  Uiso   1.00
C20    C     0.98506   0.88259   0.50616   0.00000  Uiso   1.00
C21    C     0.56797   0.83163   0.61128   0.00000  Uiso   1.00
C22    C     0.46795   0.79943   0.58205   0.00000  Uiso   1.00
C23    C     0.44200   0.75425   0.61849   0.00000  Uiso   1.00
H24    H     0.80025   0.85018   0.74632   0.00000  Uiso   1.00
H25    H     0.70991   0.93025   0.81334   0.00000  Uiso   1.00
H26    H     0.04177   0.85242   0.68312   0.00000  Uiso   1.00
H27    H     0.66918   0.76438   0.76019   0.00000  Uiso   1.00
H28    H     0.57823   0.02454   0.85968   0.00000  Uiso   1.00
H29    H     0.27796   0.86040   0.58512   0.00000  Uiso   1.00
H30    H     0.49228   0.67475   0.74763   0.00000  Uiso   1.00
H31    H     0.55700   0.89257   0.53094   0.00000  Uiso   1.00
H32    H     0.45330   0.97498   0.58614   0.00000  Uiso   1.00
H33    H     0.78516   0.89714   0.45593   0.00000  Uiso   1.00
H34    H     0.41257   0.80910   0.53300   0.00000  Uiso   1.00
H35    H     0.36996   0.06084   0.67528   0.00000  Uiso   1.00
H36    H     0.06969   0.89669   0.40071   0.00000  Uiso   1.00
H37    H     0.28401   0.71104   0.56323   0.00000  Uiso   1.00
O38    O     0.41031   0.09614   0.80767   0.00000  Uiso   1.00
O39    O     0.32832   0.88078   0.44745   0.00000  Uiso   1.00
O40    O     0.29753   0.63721   0.66067   0.00000  Uiso   1.00
N41    N     0.54342   0.02177   0.80871   0.00000  Uiso   1.00
N42    N     0.19763   0.86831   0.55201   0.00000  Uiso   1.00
N43    N     0.46312   0.69474   0.70394   0.00000  Uiso   1.00
N44    N     0.43135   0.04130   0.70949   0.00000  Uiso   1.00
N45    N     0.08556   0.88784   0.45279   0.00000  Uiso   1.00
N46    N     0.35105   0.71427   0.60471   0.00000  Uiso   1.00
C47    C     0.75548   0.14011   0.19698   0.00000  Uiso   1.00
C48    C     0.83831   0.09072   0.20353   0.00000  Uiso   1.00
C49    C     0.84551   0.06008   0.26430   0.00000  Uiso   1.00
C50    C     0.92692   0.01646   0.25945   0.00000  Uiso   1.00
C51    C     0.04458   0.94167   0.27925   0.00000  Uiso   1.00
C52    C     0.65800   0.13301   0.13278   0.00000  Uiso   1.00
C53    C     0.51360   0.13793   0.13407   0.00000  Uiso   1.00
C54    C     0.44323   0.12991   0.06966   0.00000  Uiso   1.00
C55    C     0.28096   0.12080   0.97961   0.00000  Uiso   1.00
C56    C     0.86044   0.18084   0.17466   0.00000  Uiso   1.00
C57    C     0.88624   0.22598   0.21115   0.00000  Uiso   1.00
C58    C     0.98629   0.25825   0.18199   0.00000  Uiso   1.00
C59    C     0.13835   0.32340   0.15696   0.00000  Uiso   1.00
C60    C     0.88727   0.11714   0.08029   0.00000  Uiso   1.00
C61    C     0.90989   0.07825   0.14014   0.00000  Uiso   1.00
C62    C     0.99132   0.03467   0.13520   0.00000  Uiso   1.00
C63    C     0.99864   0.00397   0.19595   0.00000  Uiso   1.00
C64    C     0.72957   0.12053   0.06940   0.00000  Uiso   1.00
C65    C     0.65941   0.11251   0.00497   0.00000  Uiso   1.00
C66    C     0.51494   0.11741   0.00616   0.00000  Uiso   1.00
C67    C     0.93203   0.16837   0.11128   0.00000  Uiso   1.00
C68    C     0.03205   0.20057   0.08205   0.00000  Uiso   1.00
C69    C     0.05800   0.24575   0.11849   0.00000  Uiso   1.00
H70    H     0.69975   0.14982   0.24632   0.00000  Uiso   1.00
H71    H     0.79009   0.06975   0.31334   0.00000  Uiso   1.00
H72    H     0.45823   0.14758   0.18312   0.00000  Uiso   1.00
H73    H     0.83082   0.23562   0.26019   0.00000  Uiso   1.00
H74    H     0.92177   0.97546   0.35968   0.00000  Uiso   1.00
H75    H     0.22204   0.13960   0.08512   0.00000  Uiso   1.00
H76    H     0.00772   0.32525   0.24763   0.00000  Uiso   1.00
H77    H     0.94300   0.10743   0.03094   0.00000  Uiso   1.00
H78    H     0.04670   0.02502   0.08614   0.00000  Uiso   1.00
H79    H     0.71484   0.10286   0.95593   0.00000  Uiso   1.00
H80    H     0.08743   0.19090   0.03300   0.00000  Uiso   1.00
H81    H     0.13004   0.93916   0.17528   0.00000  Uiso   1.00
H82    H     0.43031   0.10331   0.90071   0.00000  Uiso   1.00
H83    H     0.21599   0.28896   0.06323   0.00000  Uiso   1.00
O84    O     0.08969   0.90386   0.30767   0.00000  Uiso   1.00
O85    O     0.17168   0.11922   0.94745   0.00000  Uiso   1.00
O86    O     0.20247   0.36279   0.16067   0.00000  Uiso   1.00
N87    N     0.95658   0.97823   0.30871   0.00000  Uiso   1.00
N88    N     0.30237   0.13169   0.05201   0.00000  Uiso   1.00
N89    N     0.03688   0.30526   0.20394   0.00000  Uiso   1.00
N90    N     0.06865   0.95870   0.20949   0.00000  Uiso   1.00
N91    N     0.41444   0.11216   0.95279   0.00000  Uiso   1.00
N92    N     0.14895   0.28573   0.10471   0.00000  Uiso   1.00
C93    C     0.25548   0.35989   0.80302   0.00000  Uiso   1.00
C94    C     0.33831   0.40928   0.79647   0.00000  Uiso   1.00
C95    C     0.34551   0.43992   0.73570   0.00000  Uiso   1.00
C96    C     0.42692   0.48354   0.74055   0.00000  Uiso   1.00
C97    C     0.54458   0.55833   0.72075   0.00000  Uiso   1.00
C98    C     0.15800   0.36699   0.86722   0.00000  Uiso   1.00
C99    C     0.01360   0.36207   0.86593   0.00000  Uiso   1.00
C100   C     0.94323   0.37009   0.93034   0.00000  Uiso   1.00
C101   C     0.78096   0.37920   0.02039   0.00000  Uiso   1.00
C102   C     0.36044   0.31916   0.82534   0.00000  Uiso   1.00
C103   C     0.38624   0.27402   0.78885   0.00000  Uiso   1.00
C104   C     0.48629   0.24175   0.81801   0.00000  Uiso   1.00
C105   C     0.63835   0.17660   0.84304   0.00000  Uiso   1.00
C106   C     0.38727   0.38286   0.91971   0.00000  Uiso   1.00
C107   C     0.40989   0.42175   0.85986   0.00000  Uiso   1.00
C108   C     0.49132   0.46533   0.86480   0.00000  Uiso   1.00
C109   C     0.49864   0.49603   0.80405   0.00000  Uiso   1.00
C110   C     0.22957   0.37947   0.93060   0.00000  Uiso   1.00
C111   C     0.15941   0.38749   0.99503   0.00000  Uiso   1.00
C112   C     0.01494   0.38259   0.99384   0.00000  Uiso   1.00
C113   C     0.43203   0.33163   0.88872   0.00000  Uiso   1.00
C114   C     0.53205   0.29943   0.91795   0.00000  Uiso   1.00
C115   C     0.55800   0.25425   0.88151   0.00000  Uiso   1.00
H116   H     0.19975   0.35018   0.75368   0.00000  Uiso   1.00
H117   H     0.29009   0.43025   0.68666   0.00000  Uiso   1.00
H118   H     0.95823   0.35242   0.81688   0.00000  Uiso   1.00
H119   H     0.33082   0.26438   0.73981   0.00000  Uiso   1.00
H120   H     0.42177   0.52454   0.64032   0.00000  Uiso   1.00
H121   H     0.72204   0.36040   0.91488   0.00000  Uiso   1.00
H122   H     0.50772   0.17475   0.75237   0.00000  Uiso   1.00
H123   H     0.44300   0.39257   0.96906   0.00000  Uiso   1.00
H124   H     0.54670   0.47498   0.91386   0.00000  Uiso   1.00
H125   H     0.21484   0.39714   0.04407   0.00000  Uiso   1.00
H126   H     0.58743   0.30910   0.96700   0.00000  Uiso   1.00
H127   H     0.63004   0.56084   0.82472   0.00000  Uiso   1.00
H128   H     0.93031   0.39669   0.09929   0.00000  Uiso   1.00
H129   H     0.71599   0.21104   0.93677   0.00000  Uiso   1.00
O130   O     0.58969   0.59614   0.69233   0.00000  Uiso   1.00
O131   O     0.67168   0.38078   0.05255   0.00000  Uiso   1.00
O132   O     0.70247   0.13721   0.83933   0.00000  Uiso   1.00
N133   N     0.45658   0.52177   0.69129   0.00000  Uiso   1.00
N134   N     0.80237   0.36831   0.94799   0.00000  Uiso   1.00
N135   N     0.53688   0.19474   0.79606   0.00000  Uiso   1.00
N136   N     0.56865   0.54130   0.79051   0.00000  Uiso   1.00
N137   N     0.91444   0.38784   0.04721   0.00000  Uiso   1.00
N138   N     0.64895   0.21427   0.89529   0.00000  Uiso   1.00
C139   C     0.24452   0.64011   0.30302   0.00000  Uiso   1.00
C140   C     0.16169   0.59072   0.29647   0.00000  Uiso   1.00
C141   C     0.15449   0.56008   0.23570   0.00000  Uiso   1.00
C142   C     0.07308   0.51646   0.24055   0.00000  Uiso   1.00
C143   C     0.95542   0.44167   0.22075   0.00000  Uiso   1.00
C144   C     0.34200   0.63301   0.36722   0.00000  Uiso   1.00
C145   C     0.48640   0.63793   0.36593   0.00000  Uiso   1.00
C146   C     0.55677   0.62991   0.43034   0.00000  Uiso   1.00
C147   C     0.71904   0.62080   0.52039   0.00000  Uiso   1.00
C148   C     0.13956   0.68084   0.32534   0.00000  Uiso   1.00
C149   C     0.11376   0.72598   0.28885   0.00000  Uiso   1.00
C150   C     0.01371   0.75825   0.31801   0.00000  Uiso   1.00
C151   C     0.86165   0.82340   0.34304   0.00000  Uiso   1.00
C152   C     0.11273   0.61714   0.41971   0.00000  Uiso   1.00
C153   C     0.09011   0.57825   0.35986   0.00000  Uiso   1.00
C154   C     0.00868   0.53467   0.36480   0.00000  Uiso   1.00
C155   C     0.00136   0.50397   0.30405   0.00000  Uiso   1.00
C156   C     0.27043   0.62053   0.43060   0.00000  Uiso   1.00
C157   C     0.34059   0.61251   0.49503   0.00000  Uiso   1.00
C158   C     0.48506   0.61741   0.49384   0.00000  Uiso   1.00
C159   C     0.06797   0.66837   0.38872   0.00000  Uiso   1.00
C160   C     0.96795   0.70057   0.41795   0.00000  Uiso   1.00
C161   C     0.94200   0.74575   0.38151   0.00000  Uiso   1.00
H162   H     0.30025   0.64982   0.25368   0.00000  Uiso   1.00
H163   H     0.20991   0.56975   0.18666   0.00000  Uiso   1.00
H164   H     0.54177   0.64758   0.31688   0.00000  Uiso   1.00
H165   H     0.16918   0.73562   0.23981   0.00000  Uiso   1.00
H166   H     0.07823   0.47546   0.14032   0.00000  Uiso   1.00
H167   H     0.77796   0.63960   0.41488   0.00000  Uiso   1.00
H168   H     0.99228   0.82525   0.25237   0.00000  Uiso   1.00
H169   H     0.05700   0.60743   0.46906   0.00000  Uiso   1.00
H170   H     0.95330   0.52502   0.41386   0.00000  Uiso   1.00
H171   H     0.28516   0.60286   0.54407   0.00000  Uiso   1.00
H172   H     0.91257   0.69090   0.46700   0.00000  Uiso   1.00
H173   H     0.86996   0.43916   0.32472   0.00000  Uiso   1.00
H174   H     0.56969   0.60331   0.59929   0.00000  Uiso   1.00
H175   H     0.78401   0.78896   0.43677   0.00000  Uiso   1.00
O176   O     0.91031   0.40386   0.19233   0.00000  Uiso   1.00
O177   O     0.82832   0.61922   0.55255   0.00000  Uiso   1.00
O178   O     0.79753   0.86279   0.33933   0.00000  Uiso   1.00
N179   N     0.04342   0.47823   0.19129   0.00000  Uiso   1.00
N180   N     0.69763   0.63169   0.44799   0.00000  Uiso   1.00
N181   N     0.96312   0.80526   0.29606   0.00000  Uiso   1.00
N182   N     0.93135   0.45870   0.29051   0.00000  Uiso   1.00
N183   N     0.58556   0.61216   0.54721   0.00000  Uiso   1.00
N184   N     0.85105   0.78573   0.39529   0.00000  Uiso   1.00
C185   C     0.25548   0.14011   0.30302   0.00000  Uiso   1.00
C186   C     0.33831   0.09072   0.29647   0.00000  Uiso   1.00
C187   C     0.34551   0.06008   0.23570   0.00000  Uiso   1.00
C188   C     0.42692   0.01646   0.24055   0.00000  Uiso   1.00
C189   C     0.54458   0.94167   0.22075   0.00000  Uiso   1.00
C190   C     0.15800   0.13301   0.36722   0.00000  Uiso   1.00
C191   C     0.01360   0.13793   0.36593   0.00000  Uiso   1.00
C192   C     0.94323   0.12991   0.43034   0.00000  Uiso   1.00
C193   C     0.78096   0.12080   0.52039   0.00000  Uiso   1.00
C194   C     0.36044   0.18084   0.32534   0.00000  Uiso   1.00
C195   C     0.38624   0.22598   0.28885   0.00000  Uiso   1.00
C196   C     0.48629   0.25825   0.31801   0.00000  Uiso   1.00
C197   C     0.63835   0.32340   0.34304   0.00000  Uiso   1.00
C198   C     0.38727   0.11714   0.41971   0.00000  Uiso   1.00
C199   C     0.40989   0.07825   0.35986   0.00000  Uiso   1.00
C200   C     0.49132   0.03467   0.36480   0.00000  Uiso   1.00
C201   C     0.49864   0.00397   0.30405   0.00000  Uiso   1.00
C202   C     0.22957   0.12053   0.43060   0.00000  Uiso   1.00
C203   C     0.15941   0.11251   0.49503   0.00000  Uiso   1.00
C204   C     0.01494   0.11741   0.49384   0.00000  Uiso   1.00
C205   C     0.43203   0.16837   0.38872   0.00000  Uiso   1.00
C206   C     0.53205   0.20057   0.41795   0.00000  Uiso   1.00
C207   C     0.55800   0.24575   0.38151   0.00000  Uiso   1.00
H208   H     0.19975   0.14982   0.25368   0.00000  Uiso   1.00
H209   H     0.29009   0.06975   0.18666   0.00000  Uiso   1.00
H210   H     0.95823   0.14758   0.31688   0.00000  Uiso   1.00
H211   H     0.33082   0.23562   0.23981   0.00000  Uiso   1.00
H212   H     0.42177   0.97546   0.14032   0.00000  Uiso   1.00
H213   H     0.72204   0.13960   0.41488   0.00000  Uiso   1.00
H214   H     0.50772   0.32525   0.25237   0.00000  Uiso   1.00
H215   H     0.44300   0.10743   0.46906   0.00000  Uiso   1.00
H216   H     0.54670   0.02502   0.41386   0.00000  Uiso   1.00
H217   H     0.21484   0.10286   0.54407   0.00000  Uiso   1.00
H218   H     0.58743   0.19090   0.46700   0.00000  Uiso   1.00
H219   H     0.63004   0.93916   0.32472   0.00000  Uiso   1.00
H220   H     0.93031   0.10331   0.59929   0.00000  Uiso   1.00
H221   H     0.71599   0.28896   0.43677   0.00000  Uiso   1.00
O222   O     0.58969   0.90386   0.19233   0.00000  Uiso   1.00
O223   O     0.67168   0.11922   0.55255   0.00000  Uiso   1.00
O224   O     0.70247   0.36279   0.33933   0.00000  Uiso   1.00
N225   N     0.45658   0.97823   0.19129   0.00000  Uiso   1.00
N226   N     0.80237   0.13169   0.44799   0.00000  Uiso   1.00
N227   N     0.53688   0.30526   0.29606   0.00000  Uiso   1.00
N228   N     0.56865   0.95870   0.29051   0.00000  Uiso   1.00
N229   N     0.91444   0.11216   0.54721   0.00000  Uiso   1.00
N230   N     0.64895   0.28573   0.39529   0.00000  Uiso   1.00
C231   C     0.24452   0.85989   0.80302   0.00000  Uiso   1.00
C232   C     0.16169   0.90928   0.79647   0.00000  Uiso   1.00
C233   C     0.15449   0.93992   0.73570   0.00000  Uiso   1.00
C234   C     0.07308   0.98354   0.74055   0.00000  Uiso   1.00
C235   C     0.95542   0.05833   0.72075   0.00000  Uiso   1.00
C236   C     0.34200   0.86699   0.86722   0.00000  Uiso   1.00
C237   C     0.48640   0.86207   0.86593   0.00000  Uiso   1.00
C238   C     0.55677   0.87009   0.93034   0.00000  Uiso   1.00
C239   C     0.71904   0.87920   0.02039   0.00000  Uiso   1.00
C240   C     0.13956   0.81916   0.82534   0.00000  Uiso   1.00
C241   C     0.11376   0.77402   0.78885   0.00000  Uiso   1.00
C242   C     0.01371   0.74175   0.81801   0.00000  Uiso   1.00
C243   C     0.86165   0.67660   0.84304   0.00000  Uiso   1.00
C244   C     0.11273   0.88286   0.91971   0.00000  Uiso   1.00
C245   C     0.09011   0.92175   0.85986   0.00000  Uiso   1.00
C246   C     0.00868   0.96533   0.86480   0.00000  Uiso   1.00
C247   C     0.00136   0.99603   0.80405   0.00000  Uiso   1.00
C248   C     0.27043   0.87947   0.93060   0.00000  Uiso   1.00
C249   C     0.34059   0.88749   0.99503   0.00000  Uiso   1.00
C250   C     0.48506   0.88259   0.99384   0.00000  Uiso   1.00
C251   C     0.06797   0.83163   0.88872   0.00000  Uiso   1.00
C252   C     0.96795   0.79943   0.91795   0.00000  Uiso   1.00
C253   C     0.94200   0.75425   0.88151   0.00000  Uiso   1.00
H254   H     0.30025   0.85018   0.75368   0.00000  Uiso   1.00
H255   H     0.20991   0.93025   0.68666   0.00000  Uiso   1.00
H256   H     0.54177   0.85242   0.81688   0.00000  Uiso   1.00
H257   H     0.16918   0.76438   0.73981   0.00000  Uiso   1.00
H258   H     0.07823   0.02454   0.64032   0.00000  Uiso   1.00
H259   H     0.77796   0.86040   0.91488   0.00000  Uiso   1.00
H260   H     0.99228   0.67475   0.75237   0.00000  Uiso   1.00
H261   H     0.05700   0.89257   0.96906   0.00000  Uiso   1.00
H262   H     0.95330   0.97498   0.91386   0.00000  Uiso   1.00
H263   H     0.28516   0.89714   0.04407   0.00000  Uiso   1.00
H264   H     0.91257   0.80910   0.96700   0.00000  Uiso   1.00
H265   H     0.86996   0.06084   0.82472   0.00000  Uiso   1.00
H266   H     0.56969   0.89669   0.09929   0.00000  Uiso   1.00
H267   H     0.78401   0.71104   0.93677   0.00000  Uiso   1.00
O268   O     0.91031   0.09614   0.69233   0.00000  Uiso   1.00
O269   O     0.82832   0.88078   0.05255   0.00000  Uiso   1.00
O270   O     0.79753   0.63721   0.83933   0.00000  Uiso   1.00
N271   N     0.04342   0.02177   0.69129   0.00000  Uiso   1.00
N272   N     0.69763   0.86831   0.94799   0.00000  Uiso   1.00
N273   N     0.96312   0.69474   0.79606   0.00000  Uiso   1.00
N274   N     0.93135   0.04130   0.79051   0.00000  Uiso   1.00
N275   N     0.58556   0.88784   0.04721   0.00000  Uiso   1.00
N276   N     0.85105   0.71427   0.89529   0.00000  Uiso   1.00
C277   C     0.74452   0.64011   0.19698   0.00000  Uiso   1.00
C278   C     0.66169   0.59072   0.20353   0.00000  Uiso   1.00
C279   C     0.65449   0.56008   0.26430   0.00000  Uiso   1.00
C280   C     0.57308   0.51646   0.25945   0.00000  Uiso   1.00
C281   C     0.45542   0.44167   0.27925   0.00000  Uiso   1.00
C282   C     0.84200   0.63301   0.13278   0.00000  Uiso   1.00
C283   C     0.98640   0.63793   0.13407   0.00000  Uiso   1.00
C284   C     0.05677   0.62991   0.06966   0.00000  Uiso   1.00
C285   C     0.21904   0.62080   0.97961   0.00000  Uiso   1.00
C286   C     0.63956   0.68084   0.17466   0.00000  Uiso   1.00
C287   C     0.61376   0.72598   0.21115   0.00000  Uiso   1.00
C288   C     0.51371   0.75825   0.18199   0.00000  Uiso   1.00
C289   C     0.36165   0.82340   0.15696   0.00000  Uiso   1.00
C290   C     0.61273   0.61714   0.08029   0.00000  Uiso   1.00
C291   C     0.59011   0.57825   0.14014   0.00000  Uiso   1.00
C292   C     0.50868   0.53467   0.13520   0.00000  Uiso   1.00
C293   C     0.50136   0.50397   0.19595   0.00000  Uiso   1.00
C294   C     0.77043   0.62053   0.06940   0.00000  Uiso   1.00
C295   C     0.84059   0.61251   0.00497   0.00000  Uiso   1.00
C296   C     0.98506   0.61741   0.00616   0.00000  Uiso   1.00
C297   C     0.56797   0.66837   0.11128   0.00000  Uiso   1.00
C298   C     0.46795   0.70057   0.08205   0.00000  Uiso   1.00
C299   C     0.44200   0.74575   0.11849   0.00000  Uiso   1.00
H300   H     0.80025   0.64982   0.24632   0.00000  Uiso   1.00
H301   H     0.70991   0.56975   0.31334   0.00000  Uiso   1.00
H302   H     0.04177   0.64758   0.18312   0.00000  Uiso   1.00
H303   H     0.66918   0.73562   0.26019   0.00000  Uiso   1.00
H304   H     0.57823   0.47546   0.35968   0.00000  Uiso   1.00
H305   H     0.27796   0.63960   0.08512   0.00000  Uiso   1.00
H306   H     0.49228   0.82525   0.24763   0.00000  Uiso   1.00
H307   H     0.55700   0.60743   0.03094   0.00000  Uiso   1.00
H308   H     0.45330   0.52502   0.08614   0.00000  Uiso   1.00
H309   H     0.78516   0.60286   0.95593   0.00000  Uiso   1.00
H310   H     0.41257   0.69090   0.03300   0.00000  Uiso   1.00
H311   H     0.36996   0.43916   0.17528   0.00000  Uiso   1.00
H312   H     0.06969   0.60331   0.90071   0.00000  Uiso   1.00
H313   H     0.28401   0.78896   0.06323   0.00000  Uiso   1.00
O314   O     0.41031   0.40386   0.30767   0.00000  Uiso   1.00
O315   O     0.32832   0.61922   0.94745   0.00000  Uiso   1.00
O316   O     0.29753   0.86279   0.16067   0.00000  Uiso   1.00
N317   N     0.54342   0.47823   0.30871   0.00000  Uiso   1.00
N318   N     0.19763   0.63169   0.05201   0.00000  Uiso   1.00
N319   N     0.46312   0.80526   0.20394   0.00000  Uiso   1.00
N320   N     0.43135   0.45870   0.20949   0.00000  Uiso   1.00
N321   N     0.08556   0.61216   0.95279   0.00000  Uiso   1.00
N322   N     0.35105   0.78573   0.10471   0.00000  Uiso   1.00
C323   C     0.75548   0.35989   0.69698   0.00000  Uiso   1.00
C324   C     0.83831   0.40928   0.70353   0.00000  Uiso   1.00
C325   C     0.84551   0.43992   0.76430   0.00000  Uiso   1.00
C326   C     0.92692   0.48354   0.75945   0.00000  Uiso   1.00
C327   C     0.04458   0.55833   0.77925   0.00000  Uiso   1.00
C328   C     0.65800   0.36699   0.63278   0.00000  Uiso   1.00
C329   C     0.51360   0.36207   0.63407   0.00000  Uiso   1.00
C330   C     0.44323   0.37009   0.56966   0.00000  Uiso   1.00
C331   C     0.28096   0.37920   0.47961   0.00000  Uiso   1.00
C332   C     0.86044   0.31916   0.67466   0.00000  Uiso   1.00
C333   C     0.88624   0.27402   0.71115   0.00000  Uiso   1.00
C334   C     0.98629   0.24175   0.68199   0.00000  Uiso   1.00
C335   C     0.13835   0.17660   0.65696   0.00000  Uiso   1.00
C336   C     0.88727   0.38286   0.58029   0.00000  Uiso   1.00
C337   C     0.90989   0.42175   0.64014   0.00000  Uiso   1.00
C338   C     0.99132   0.46533   0.63520   0.00000  Uiso   1.00
C339   C     0.99864   0.49603   0.69595   0.00000  Uiso   1.00
C340   C     0.72957   0.37947   0.56940   0.00000  Uiso   1.00
C341   C     0.65941   0.38749   0.50497   0.00000  Uiso   1.00
C342   C     0.51494   0.38259   0.50616   0.00000  Uiso   1.00
C343   C     0.93203   0.33163   0.61128   0.00000  Uiso   1.00
C344   C     0.03205   0.29943   0.58205   0.00000  Uiso   1.00
C345   C     0.05800   0.25425   0.61849   0.00000  Uiso   1.00
H346   H     0.69975   0.35018   0.74632   0.00000  Uiso   1.00
H347   H     0.79009   0.43025   0.81334   0.00000  Uiso   1.00
H348   H     0.45823   0.35242   0.68312   0.00000  Uiso   1.00
H349   H     0.83082   0.26438   0.76019   0.00000  Uiso   1.00
H350   H     0.92177   0.52454   0.85968   0.00000  Uiso   1.00
H351   H     0.22204   0.36040   0.58512   0.00000  Uiso   1.00
H352   H     0.00772   0.17475   0.74763   0.00000  Uiso   1.00
H353   H     0.94300   0.39257   0.53094   0.00000  Uiso   1.00
H354   H     0.04670   0.47498   0.58614   0.00000  Uiso   1.00
H355   H     0.71484   0.39714   0.45593   0.00000  Uiso   1.00
H356   H     0.08743   0.30910   0.53300   0.00000  Uiso   1.00
H357   H     0.13004   0.56084   0.67528   0.00000  Uiso   1.00
H358   H     0.43031   0.39669   0.40071   0.00000  Uiso   1.00
H359   H     0.21599   0.21104   0.56323   0.00000  Uiso   1.00
O360   O     0.08969   0.59614   0.80767   0.00000  Uiso   1.00
O361   O     0.17168   0.38078   0.44745   0.00000  Uiso   1.00
O362   O     0.20247   0.13721   0.66067   0.00000  Uiso   1.00
N363   N     0.95658   0.52177   0.80871   0.00000  Uiso   1.00
N364   N     0.30237   0.36831   0.55201   0.00000  Uiso   1.00
N365   N     0.03688   0.19474   0.70394   0.00000  Uiso   1.00
N366   N     0.06865   0.54130   0.70949   0.00000  Uiso   1.00
N367   N     0.41444   0.38784   0.45279   0.00000  Uiso   1.00
N368   N     0.14895   0.21427   0.60471   0.00000  Uiso   1.00
