data_job_01016
_audit_creation_date              2018-12-19
_audit_creation_method            'Materials Studio'
_symmetry_space_group_name_H-M    'P1'
_symmetry_Int_Tables_number       1
_symmetry_cell_setting            triclinic
loop_
_symmetry_equiv_pos_as_xyz
  x,y,z
_cell_length_a                    25.7858
_cell_length_b                    14.3261
_cell_length_c                    20.4441
_cell_angle_alpha                 90.0000
_cell_angle_beta                  144.9841
_cell_angle_gamma                 90.0000
loop_
_atom_site_label
_atom_site_type_symbol
_atom_site_fract_x
_atom_site_fract_y
_atom_site_fract_z
_atom_site_U_iso_or_equiv
_atom_site_adp_type
_atom_site_occupancy
C1     C     0.23614   0.74832   0.25113   0.00000  Uiso   1.00
C2     C     0.32081   0.71375   0.30363   0.00000  Uiso   1.00
C3     C     0.33844   0.72234   0.25545   0.00000  Uiso   1.00
C4     C     0.41975   0.68615   0.31694   0.00000  Uiso   1.00
C5     C     0.54185   0.63899   0.38233   0.00000  Uiso   1.00
C6     C     0.19610   0.66341   0.24417   0.00000  Uiso   1.00
C7     C     0.10887   0.62970   0.14599   0.00000  Uiso   1.00
C8     C     0.08520   0.55115   0.15744   0.00000  Uiso   1.00
C9     C     0.01367   0.42590   0.13053   0.00000  Uiso   1.00
C10    C     0.26899   0.81329   0.33915   0.00000  Uiso   1.00
C11    C     0.24303   0.90559   0.32083   0.00000  Uiso   1.00
C12    C     0.28071   0.95321   0.41225   0.00000  Uiso   1.00
C13    C     0.32236   0.06065   0.53281   0.00000  Uiso   1.00
C14    C     0.34919   0.66877   0.44604   0.00000  Uiso   1.00
C15    C     0.38221   0.67053   0.40949   0.00000  Uiso   1.00
C16    C     0.46352   0.63433   0.47108   0.00000  Uiso   1.00
C17    C     0.48127   0.64287   0.42300   0.00000  Uiso   1.00
C18    C     0.25750   0.62021   0.35003   0.00000  Uiso   1.00
C19    C     0.23395   0.54169   0.36163   0.00000  Uiso   1.00
C20    C     0.14671   0.50787   0.26350   0.00000  Uiso   1.00
C21    C     0.33040   0.77008   0.44502   0.00000  Uiso   1.00
C22    C     0.36812   0.81757   0.53647   0.00000  Uiso   1.00
C23    C     0.34223   0.90992   0.51830   0.00000  Uiso   1.00
H24    H     0.18833   0.78196   0.16871   0.00000  Uiso   1.00
H25    H     0.29090   0.75578   0.17351   0.00000  Uiso   1.00
H26    H     0.06137   0.66316   0.06408   0.00000  Uiso   1.00
H27    H     0.19551   0.93900   0.23890   0.00000  Uiso   1.00
H28    H     0.43167   0.70766   0.22550   0.00000  Uiso   1.00
H29    H     0.94769   0.51240   0.99477   0.00000  Uiso   1.00
H30    H     0.23055   0.09405   0.36340   0.00000  Uiso   1.00
H31    H     0.39700   0.63513   0.52846   0.00000  Uiso   1.00
H32    H     0.51102   0.60089   0.55300   0.00000  Uiso   1.00
H33    H     0.28149   0.50827   0.44357   0.00000  Uiso   1.00
H34    H     0.41563   0.78411   0.61838   0.00000  Uiso   1.00
H35    H     0.61033   0.58195   0.53351   0.00000  Uiso   1.00
H36    H     0.12634   0.38668   0.30277   0.00000  Uiso   1.00
H37    H     0.40921   0.96834   0.67141   0.00000  Uiso   1.00
O38    O     0.59223   0.62490   0.38914   0.00000  Uiso   1.00
O39    O     0.95725   0.36874   0.08643   0.00000  Uiso   1.00
O40    O     0.32837   0.13185   0.57007   0.00000  Uiso   1.00
N41    N     0.45808   0.68279   0.29463   0.00000  Uiso   1.00
N42    N     0.00559   0.50022   0.07891   0.00000  Uiso   1.00
N43    N     0.27003   0.04401   0.42354   0.00000  Uiso   1.00
N44    N     0.55422   0.61515   0.46037   0.00000  Uiso   1.00
N45    N     0.10172   0.43258   0.24464   0.00000  Uiso   1.00
N46    N     0.36616   0.97637   0.58928   0.00000  Uiso   1.00
C47    C     0.73614   0.24832   0.25113   0.00000  Uiso   1.00
C48    C     0.82081   0.21375   0.30363   0.00000  Uiso   1.00
C49    C     0.83844   0.22234   0.25545   0.00000  Uiso   1.00
C50    C     0.91975   0.18615   0.31694   0.00000  Uiso   1.00
C51    C     0.04185   0.13899   0.38233   0.00000  Uiso   1.00
C52    C     0.69610   0.16341   0.24417   0.00000  Uiso   1.00
C53    C     0.60887   0.12970   0.14599   0.00000  Uiso   1.00
C54    C     0.58520   0.05115   0.15744   0.00000  Uiso   1.00
C55    C     0.51367   0.92590   0.13053   0.00000  Uiso   1.00
C56    C     0.76899   0.31329   0.33915   0.00000  Uiso   1.00
C57    C     0.74303   0.40559   0.32083   0.00000  Uiso   1.00
C58    C     0.78071   0.45321   0.41225   0.00000  Uiso   1.00
C59    C     0.82236   0.56065   0.53281   0.00000  Uiso   1.00
C60    C     0.84919   0.16877   0.44604   0.00000  Uiso   1.00
C61    C     0.88221   0.17053   0.40949   0.00000  Uiso   1.00
C62    C     0.96352   0.13433   0.47108   0.00000  Uiso   1.00
C63    C     0.98127   0.14287   0.42300   0.00000  Uiso   1.00
C64    C     0.75750   0.12021   0.35003   0.00000  Uiso   1.00
C65    C     0.73395   0.04169   0.36163   0.00000  Uiso   1.00
C66    C     0.64671   0.00787   0.26350   0.00000  Uiso   1.00
C67    C     0.83040   0.27008   0.44502   0.00000  Uiso   1.00
C68    C     0.86812   0.31757   0.53647   0.00000  Uiso   1.00
C69    C     0.84223   0.40992   0.51830   0.00000  Uiso   1.00
H70    H     0.68833   0.28196   0.16871   0.00000  Uiso   1.00
H71    H     0.79090   0.25578   0.17351   0.00000  Uiso   1.00
H72    H     0.56137   0.16316   0.06408   0.00000  Uiso   1.00
H73    H     0.69551   0.43900   0.23890   0.00000  Uiso   1.00
H74    H     0.93167   0.20766   0.22550   0.00000  Uiso   1.00
H75    H     0.44769   0.01240   0.99477   0.00000  Uiso   1.00
H76    H     0.73055   0.59405   0.36340   0.00000  Uiso   1.00
H77    H     0.89700   0.13513   0.52846   0.00000  Uiso   1.00
H78    H     0.01102   0.10089   0.55300   0.00000  Uiso   1.00
H79    H     0.78149   0.00827   0.44357   0.00000  Uiso   1.00
H80    H     0.91563   0.28411   0.61838   0.00000  Uiso   1.00
H81    H     0.11033   0.08195   0.53351   0.00000  Uiso   1.00
H82    H     0.62634   0.88668   0.30277   0.00000  Uiso   1.00
H83    H     0.90921   0.46834   0.67141   0.00000  Uiso   1.00
O84    O     0.09223   0.12490   0.38914   0.00000  Uiso   1.00
O85    O     0.45725   0.86874   0.08643   0.00000  Uiso   1.00
O86    O     0.82837   0.63185   0.57007   0.00000  Uiso   1.00
N87    N     0.95808   0.18279   0.29463   0.00000  Uiso   1.00
N88    N     0.50559   0.00022   0.07891   0.00000  Uiso   1.00
N89    N     0.77003   0.54401   0.42354   0.00000  Uiso   1.00
N90    N     0.05422   0.11515   0.46037   0.00000  Uiso   1.00
N91    N     0.60172   0.93258   0.24464   0.00000  Uiso   1.00
N92    N     0.86616   0.47637   0.58928   0.00000  Uiso   1.00
C93    C     0.76386   0.74832   0.24887   0.00000  Uiso   1.00
C94    C     0.67919   0.71375   0.19637   0.00000  Uiso   1.00
C95    C     0.66156   0.72234   0.24455   0.00000  Uiso   1.00
C96    C     0.58025   0.68615   0.18306   0.00000  Uiso   1.00
C97    C     0.45815   0.63899   0.11767   0.00000  Uiso   1.00
C98    C     0.80390   0.66341   0.25583   0.00000  Uiso   1.00
C99    C     0.89113   0.62970   0.35401   0.00000  Uiso   1.00
C100   C     0.91480   0.55115   0.34256   0.00000  Uiso   1.00
C101   C     0.98633   0.42590   0.36947   0.00000  Uiso   1.00
C102   C     0.73101   0.81329   0.16085   0.00000  Uiso   1.00
C103   C     0.75697   0.90559   0.17917   0.00000  Uiso   1.00
C104   C     0.71929   0.95321   0.08775   0.00000  Uiso   1.00
C105   C     0.67764   0.06065   0.96719   0.00000  Uiso   1.00
C106   C     0.65081   0.66877   0.05396   0.00000  Uiso   1.00
C107   C     0.61779   0.67053   0.09051   0.00000  Uiso   1.00
C108   C     0.53648   0.63433   0.02892   0.00000  Uiso   1.00
C109   C     0.51873   0.64287   0.07700   0.00000  Uiso   1.00
C110   C     0.74250   0.62021   0.14997   0.00000  Uiso   1.00
C111   C     0.76605   0.54169   0.13837   0.00000  Uiso   1.00
C112   C     0.85329   0.50787   0.23650   0.00000  Uiso   1.00
C113   C     0.66960   0.77008   0.05498   0.00000  Uiso   1.00
C114   C     0.63188   0.81757   0.96353   0.00000  Uiso   1.00
C115   C     0.65777   0.90992   0.98170   0.00000  Uiso   1.00
H116   H     0.81167   0.78196   0.33129   0.00000  Uiso   1.00
H117   H     0.70910   0.75578   0.32649   0.00000  Uiso   1.00
H118   H     0.93863   0.66316   0.43592   0.00000  Uiso   1.00
H119   H     0.80449   0.93900   0.26110   0.00000  Uiso   1.00
H120   H     0.56833   0.70766   0.27450   0.00000  Uiso   1.00
H121   H     0.05231   0.51240   0.50523   0.00000  Uiso   1.00
H122   H     0.76945   0.09405   0.13660   0.00000  Uiso   1.00
H123   H     0.60300   0.63513   0.97154   0.00000  Uiso   1.00
H124   H     0.48898   0.60089   0.94700   0.00000  Uiso   1.00
H125   H     0.71851   0.50827   0.05643   0.00000  Uiso   1.00
H126   H     0.58437   0.78411   0.88162   0.00000  Uiso   1.00
H127   H     0.38967   0.58195   0.96649   0.00000  Uiso   1.00
H128   H     0.87366   0.38668   0.19723   0.00000  Uiso   1.00
H129   H     0.59079   0.96834   0.82859   0.00000  Uiso   1.00
O130   O     0.40777   0.62490   0.11086   0.00000  Uiso   1.00
O131   O     0.04275   0.36874   0.41357   0.00000  Uiso   1.00
O132   O     0.67163   0.13185   0.92993   0.00000  Uiso   1.00
N133   N     0.54192   0.68279   0.20537   0.00000  Uiso   1.00
N134   N     0.99441   0.50022   0.42109   0.00000  Uiso   1.00
N135   N     0.72997   0.04401   0.07646   0.00000  Uiso   1.00
N136   N     0.44578   0.61515   0.03963   0.00000  Uiso   1.00
N137   N     0.89828   0.43258   0.25536   0.00000  Uiso   1.00
N138   N     0.63384   0.97637   0.91072   0.00000  Uiso   1.00
C139   C     0.26386   0.24832   0.24887   0.00000  Uiso   1.00
C140   C     0.17919   0.21375   0.19637   0.00000  Uiso   1.00
C141   C     0.16156   0.22234   0.24455   0.00000  Uiso   1.00
C142   C     0.08025   0.18615   0.18306   0.00000  Uiso   1.00
C143   C     0.95815   0.13899   0.11767   0.00000  Uiso   1.00
C144   C     0.30390   0.16341   0.25583   0.00000  Uiso   1.00
C145   C     0.39113   0.12970   0.35401   0.00000  Uiso   1.00
C146   C     0.41480   0.05115   0.34256   0.00000  Uiso   1.00
C147   C     0.48633   0.92590   0.36947   0.00000  Uiso   1.00
C148   C     0.23101   0.31329   0.16085   0.00000  Uiso   1.00
C149   C     0.25697   0.40559   0.17917   0.00000  Uiso   1.00
C150   C     0.21929   0.45321   0.08775   0.00000  Uiso   1.00
C151   C     0.17764   0.56065   0.96719   0.00000  Uiso   1.00
C152   C     0.15081   0.16877   0.05396   0.00000  Uiso   1.00
C153   C     0.11779   0.17053   0.09051   0.00000  Uiso   1.00
C154   C     0.03648   0.13433   0.02892   0.00000  Uiso   1.00
C155   C     0.01873   0.14287   0.07700   0.00000  Uiso   1.00
C156   C     0.24250   0.12021   0.14997   0.00000  Uiso   1.00
C157   C     0.26605   0.04169   0.13837   0.00000  Uiso   1.00
C158   C     0.35329   0.00787   0.23650   0.00000  Uiso   1.00
C159   C     0.16960   0.27008   0.05498   0.00000  Uiso   1.00
C160   C     0.13188   0.31757   0.96353   0.00000  Uiso   1.00
C161   C     0.15777   0.40992   0.98170   0.00000  Uiso   1.00
H162   H     0.31167   0.28196   0.33129   0.00000  Uiso   1.00
H163   H     0.20910   0.25578   0.32649   0.00000  Uiso   1.00
H164   H     0.43863   0.16316   0.43592   0.00000  Uiso   1.00
H165   H     0.30449   0.43900   0.26110   0.00000  Uiso   1.00
H166   H     0.06833   0.20766   0.27450   0.00000  Uiso   1.00
H167   H     0.55231   0.01240   0.50523   0.00000  Uiso   1.00
H168   H     0.26945   0.59405   0.13660   0.00000  Uiso   1.00
H169   H     0.10300   0.13513   0.97154   0.00000  Uiso   1.00
H170   H     0.98898   0.10089   0.94700   0.00000  Uiso   1.00
H171   H     0.21851   0.00827   0.05643   0.00000  Uiso   1.00
H172   H     0.08437   0.28411   0.88162   0.00000  Uiso   1.00
H173   H     0.88967   0.08195   0.96649   0.00000  Uiso   1.00
H174   H     0.37366   0.88668   0.19723   0.00000  Uiso   1.00
H175   H     0.09079   0.46834   0.82859   0.00000  Uiso   1.00
O176   O     0.90777   0.12490   0.11086   0.00000  Uiso   1.00
O177   O     0.54275   0.86874   0.41357   0.00000  Uiso   1.00
O178   O     0.17163   0.63185   0.92993   0.00000  Uiso   1.00
N179   N     0.04192   0.18279   0.20537   0.00000  Uiso   1.00
N180   N     0.49441   0.00022   0.42109   0.00000  Uiso   1.00
N181   N     0.22997   0.54401   0.07646   0.00000  Uiso   1.00
N182   N     0.94578   0.11515   0.03963   0.00000  Uiso   1.00
N183   N     0.39828   0.93258   0.25536   0.00000  Uiso   1.00
N184   N     0.13384   0.47637   0.91072   0.00000  Uiso   1.00
C185   C     0.76386   0.25168   0.74887   0.00000  Uiso   1.00
C186   C     0.67919   0.28625   0.69637   0.00000  Uiso   1.00
C187   C     0.66156   0.27766   0.74455   0.00000  Uiso   1.00
C188   C     0.58025   0.31385   0.68306   0.00000  Uiso   1.00
C189   C     0.45815   0.36101   0.61767   0.00000  Uiso   1.00
C190   C     0.80390   0.33659   0.75583   0.00000  Uiso   1.00
C191   C     0.89113   0.37030   0.85401   0.00000  Uiso   1.00
C192   C     0.91480   0.44885   0.84256   0.00000  Uiso   1.00
C193   C     0.98633   0.57410   0.86947   0.00000  Uiso   1.00
C194   C     0.73101   0.18671   0.66085   0.00000  Uiso   1.00
C195   C     0.75697   0.09441   0.67917   0.00000  Uiso   1.00
C196   C     0.71929   0.04679   0.58775   0.00000  Uiso   1.00
C197   C     0.67764   0.93935   0.46719   0.00000  Uiso   1.00
C198   C     0.65081   0.33123   0.55396   0.00000  Uiso   1.00
C199   C     0.61779   0.32947   0.59051   0.00000  Uiso   1.00
C200   C     0.53648   0.36567   0.52892   0.00000  Uiso   1.00
C201   C     0.51873   0.35713   0.57700   0.00000  Uiso   1.00
C202   C     0.74250   0.37979   0.64997   0.00000  Uiso   1.00
C203   C     0.76605   0.45831   0.63837   0.00000  Uiso   1.00
C204   C     0.85329   0.49213   0.73650   0.00000  Uiso   1.00
C205   C     0.66960   0.22992   0.55498   0.00000  Uiso   1.00
C206   C     0.63188   0.18243   0.46353   0.00000  Uiso   1.00
C207   C     0.65777   0.09008   0.48170   0.00000  Uiso   1.00
H208   H     0.81167   0.21804   0.83129   0.00000  Uiso   1.00
H209   H     0.70910   0.24422   0.82649   0.00000  Uiso   1.00
H210   H     0.93863   0.33684   0.93592   0.00000  Uiso   1.00
H211   H     0.80449   0.06100   0.76110   0.00000  Uiso   1.00
H212   H     0.56833   0.29234   0.77450   0.00000  Uiso   1.00
H213   H     0.05231   0.48760   0.00523   0.00000  Uiso   1.00
H214   H     0.76945   0.90595   0.63660   0.00000  Uiso   1.00
H215   H     0.60300   0.36487   0.47154   0.00000  Uiso   1.00
H216   H     0.48898   0.39911   0.44700   0.00000  Uiso   1.00
H217   H     0.71851   0.49173   0.55643   0.00000  Uiso   1.00
H218   H     0.58437   0.21589   0.38162   0.00000  Uiso   1.00
H219   H     0.38967   0.41805   0.46649   0.00000  Uiso   1.00
H220   H     0.87366   0.61332   0.69723   0.00000  Uiso   1.00
H221   H     0.59079   0.03166   0.32859   0.00000  Uiso   1.00
O222   O     0.40777   0.37510   0.61086   0.00000  Uiso   1.00
O223   O     0.04275   0.63126   0.91357   0.00000  Uiso   1.00
O224   O     0.67163   0.86815   0.42993   0.00000  Uiso   1.00
N225   N     0.54192   0.31721   0.70537   0.00000  Uiso   1.00
N226   N     0.99441   0.49978   0.92109   0.00000  Uiso   1.00
N227   N     0.72997   0.95599   0.57646   0.00000  Uiso   1.00
N228   N     0.44578   0.38485   0.53963   0.00000  Uiso   1.00
N229   N     0.89828   0.56742   0.75536   0.00000  Uiso   1.00
N230   N     0.63384   0.02363   0.41072   0.00000  Uiso   1.00
C231   C     0.26386   0.75168   0.74887   0.00000  Uiso   1.00
C232   C     0.17919   0.78625   0.69637   0.00000  Uiso   1.00
C233   C     0.16156   0.77766   0.74455   0.00000  Uiso   1.00
C234   C     0.08025   0.81385   0.68306   0.00000  Uiso   1.00
C235   C     0.95815   0.86101   0.61767   0.00000  Uiso   1.00
C236   C     0.30390   0.83659   0.75583   0.00000  Uiso   1.00
C237   C     0.39113   0.87030   0.85401   0.00000  Uiso   1.00
C238   C     0.41480   0.94885   0.84256   0.00000  Uiso   1.00
C239   C     0.48633   0.07410   0.86947   0.00000  Uiso   1.00
C240   C     0.23101   0.68671   0.66085   0.00000  Uiso   1.00
C241   C     0.25697   0.59441   0.67917   0.00000  Uiso   1.00
C242   C     0.21929   0.54679   0.58775   0.00000  Uiso   1.00
C243   C     0.17764   0.43935   0.46719   0.00000  Uiso   1.00
C244   C     0.15081   0.83123   0.55396   0.00000  Uiso   1.00
C245   C     0.11779   0.82947   0.59051   0.00000  Uiso   1.00
C246   C     0.03648   0.86567   0.52892   0.00000  Uiso   1.00
C247   C     0.01873   0.85713   0.57700   0.00000  Uiso   1.00
C248   C     0.24250   0.87979   0.64997   0.00000  Uiso   1.00
C249   C     0.26605   0.95831   0.63837   0.00000  Uiso   1.00
C250   C     0.35329   0.99213   0.73650   0.00000  Uiso   1.00
C251   C     0.16960   0.72992   0.55498   0.00000  Uiso   1.00
C252   C     0.13188   0.68243   0.46353   0.00000  Uiso   1.00
C253   C     0.15777   0.59008   0.48170   0.00000  Uiso   1.00
H254   H     0.31167   0.71804   0.83129   0.00000  Uiso   1.00
H255   H     0.20910   0.74422   0.82649   0.00000  Uiso   1.00
H256   H     0.43863   0.83684   0.93592   0.00000  Uiso   1.00
H257   H     0.30449   0.56100   0.76110   0.00000  Uiso   1.00
H258   H     0.06833   0.79234   0.77450   0.00000  Uiso   1.00
H259   H     0.55231   0.98760   0.00523   0.00000  Uiso   1.00
H260   H     0.26945   0.40595   0.63660   0.00000  Uiso   1.00
H261   H     0.10300   0.86487   0.47154   0.00000  Uiso   1.00
H262   H     0.98898   0.89911   0.44700   0.00000  Uiso   1.00
H263   H     0.21851   0.99173   0.55643   0.00000  Uiso   1.00
H264   H     0.08437   0.71589   0.38162   0.00000  Uiso   1.00
H265   H     0.88967   0.91805   0.46649   0.00000  Uiso   1.00
H266   H     0.37366   0.11332   0.69723   0.00000  Uiso   1.00
H267   H     0.09079   0.53166   0.32859   0.00000  Uiso   1.00
O268   O     0.90777   0.87510   0.61086   0.00000  Uiso   1.00
O269   O     0.54275   0.13126   0.91357   0.00000  Uiso   1.00
O270   O     0.17163   0.36815   0.42993   0.00000  Uiso   1.00
N271   N     0.04192   0.81721   0.70537   0.00000  Uiso   1.00
N272   N     0.49441   0.99978   0.92109   0.00000  Uiso   1.00
N273   N     0.22997   0.45599   0.57646   0.00000  Uiso   1.00
N274   N     0.94578   0.88485   0.53963   0.00000  Uiso   1.00
N275   N     0.39828   0.06742   0.75536   0.00000  Uiso   1.00
N276   N     0.13384   0.52363   0.41072   0.00000  Uiso   1.00
C277   C     0.23614   0.25168   0.75113   0.00000  Uiso   1.00
C278   C     0.32081   0.28625   0.80363   0.00000  Uiso   1.00
C279   C     0.33844   0.27766   0.75545   0.00000  Uiso   1.00
C280   C     0.41975   0.31385   0.81694   0.00000  Uiso   1.00
C281   C     0.54185   0.36101   0.88233   0.00000  Uiso   1.00
C282   C     0.19610   0.33659   0.74417   0.00000  Uiso   1.00
C283   C     0.10887   0.37030   0.64599   0.00000  Uiso   1.00
C284   C     0.08520   0.44885   0.65744   0.00000  Uiso   1.00
C285   C     0.01367   0.57410   0.63053   0.00000  Uiso   1.00
C286   C     0.26899   0.18671   0.83915   0.00000  Uiso   1.00
C287   C     0.24303   0.09441   0.82083   0.00000  Uiso   1.00
C288   C     0.28071   0.04679   0.91225   0.00000  Uiso   1.00
C289   C     0.32236   0.93935   0.03281   0.00000  Uiso   1.00
C290   C     0.34919   0.33123   0.94604   0.00000  Uiso   1.00
C291   C     0.38221   0.32947   0.90949   0.00000  Uiso   1.00
C292   C     0.46352   0.36567   0.97108   0.00000  Uiso   1.00
C293   C     0.48127   0.35713   0.92300   0.00000  Uiso   1.00
C294   C     0.25750   0.37979   0.85003   0.00000  Uiso   1.00
C295   C     0.23395   0.45831   0.86163   0.00000  Uiso   1.00
C296   C     0.14671   0.49213   0.76350   0.00000  Uiso   1.00
C297   C     0.33040   0.22992   0.94502   0.00000  Uiso   1.00
C298   C     0.36812   0.18243   0.03647   0.00000  Uiso   1.00
C299   C     0.34223   0.09008   0.01830   0.00000  Uiso   1.00
H300   H     0.18833   0.21804   0.66871   0.00000  Uiso   1.00
H301   H     0.29090   0.24422   0.67351   0.00000  Uiso   1.00
H302   H     0.06137   0.33684   0.56408   0.00000  Uiso   1.00
H303   H     0.19551   0.06100   0.73890   0.00000  Uiso   1.00
H304   H     0.43167   0.29234   0.72550   0.00000  Uiso   1.00
H305   H     0.94769   0.48760   0.49477   0.00000  Uiso   1.00
H306   H     0.23055   0.90595   0.86340   0.00000  Uiso   1.00
H307   H     0.39700   0.36487   0.02846   0.00000  Uiso   1.00
H308   H     0.51102   0.39911   0.05300   0.00000  Uiso   1.00
H309   H     0.28149   0.49173   0.94357   0.00000  Uiso   1.00
H310   H     0.41563   0.21589   0.11838   0.00000  Uiso   1.00
H311   H     0.61033   0.41805   0.03351   0.00000  Uiso   1.00
H312   H     0.12634   0.61332   0.80277   0.00000  Uiso   1.00
H313   H     0.40921   0.03166   0.17141   0.00000  Uiso   1.00
O314   O     0.59223   0.37510   0.88914   0.00000  Uiso   1.00
O315   O     0.95725   0.63126   0.58643   0.00000  Uiso   1.00
O316   O     0.32837   0.86815   0.07007   0.00000  Uiso   1.00
N317   N     0.45808   0.31721   0.79463   0.00000  Uiso   1.00
N318   N     0.00559   0.49978   0.57891   0.00000  Uiso   1.00
N319   N     0.27003   0.95599   0.92354   0.00000  Uiso   1.00
N320   N     0.55422   0.38485   0.96037   0.00000  Uiso   1.00
N321   N     0.10172   0.56742   0.74464   0.00000  Uiso   1.00
N322   N     0.36616   0.02363   0.08928   0.00000  Uiso   1.00
C323   C     0.73614   0.75168   0.75113   0.00000  Uiso   1.00
C324   C     0.82081   0.78625   0.80363   0.00000  Uiso   1.00
C325   C     0.83844   0.77766   0.75545   0.00000  Uiso   1.00
C326   C     0.91975   0.81385   0.81694   0.00000  Uiso   1.00
C327   C     0.04185   0.86101   0.88233   0.00000  Uiso   1.00
C328   C     0.69610   0.83659   0.74417   0.00000  Uiso   1.00
C329   C     0.60887   0.87030   0.64599   0.00000  Uiso   1.00
C330   C     0.58520   0.94885   0.65744   0.00000  Uiso   1.00
C331   C     0.51367   0.07410   0.63053   0.00000  Uiso   1.00
C332   C     0.76899   0.68671   0.83915   0.00000  Uiso   1.00
C333   C     0.74303   0.59441   0.82083   0.00000  Uiso   1.00
C334   C     0.78071   0.54679   0.91225   0.00000  Uiso   1.00
C335   C     0.82236   0.43935   0.03281   0.00000  Uiso   1.00
C336   C     0.84919   0.83123   0.94604   0.00000  Uiso   1.00
C337   C     0.88221   0.82947   0.90949   0.00000  Uiso   1.00
C338   C     0.96352   0.86567   0.97108   0.00000  Uiso   1.00
C339   C     0.98127   0.85713   0.92300   0.00000  Uiso   1.00
C340   C     0.75750   0.87979   0.85003   0.00000  Uiso   1.00
C341   C     0.73395   0.95831   0.86163   0.00000  Uiso   1.00
C342   C     0.64671   0.99213   0.76350   0.00000  Uiso   1.00
C343   C     0.83040   0.72992   0.94502   0.00000  Uiso   1.00
C344   C     0.86812   0.68243   0.03647   0.00000  Uiso   1.00
C345   C     0.84223   0.59008   0.01830   0.00000  Uiso   1.00
H346   H     0.68833   0.71804   0.66871   0.00000  Uiso   1.00
H347   H     0.79090   0.74422   0.67351   0.00000  Uiso   1.00
H348   H     0.56137   0.83684   0.56408   0.00000  Uiso   1.00
H349   H     0.69551   0.56100   0.73890   0.00000  Uiso   1.00
H350   H     0.93167   0.79234   0.72550   0.00000  Uiso   1.00
H351   H     0.44769   0.98760   0.49477   0.00000  Uiso   1.00
H352   H     0.73055   0.40595   0.86340   0.00000  Uiso   1.00
H353   H     0.89700   0.86487   0.02846   0.00000  Uiso   1.00
H354   H     0.01102   0.89911   0.05300   0.00000  Uiso   1.00
H355   H     0.78149   0.99173   0.94357   0.00000  Uiso   1.00
H356   H     0.91563   0.71589   0.11838   0.00000  Uiso   1.00
H357   H     0.11033   0.91805   0.03351   0.00000  Uiso   1.00
H358   H     0.62634   0.11332   0.80277   0.00000  Uiso   1.00
H359   H     0.90921   0.53166   0.17141   0.00000  Uiso   1.00
O360   O     0.09223   0.87510   0.88914   0.00000  Uiso   1.00
O361   O     0.45725   0.13126   0.58643   0.00000  Uiso   1.00
O362   O     0.82837   0.36815   0.07007   0.00000  Uiso   1.00
N363   N     0.95808   0.81721   0.79463   0.00000  Uiso   1.00
N364   N     0.50559   0.99978   0.57891   0.00000  Uiso   1.00
N365   N     0.77003   0.45599   0.92354   0.00000  Uiso   1.00
N366   N     0.05422   0.88485   0.96037   0.00000  Uiso   1.00
N367   N     0.60172   0.06742   0.74464   0.00000  Uiso   1.00
N368   N     0.86616   0.52363   0.08928   0.00000  Uiso   1.00
