data_job_03592
_audit_creation_date              2018-12-19
_audit_creation_method            'Materials Studio'
_symmetry_space_group_name_H-M    'P1'
_symmetry_Int_Tables_number       1
_symmetry_cell_setting            triclinic
loop_
_symmetry_equiv_pos_as_xyz
  x,y,z
_cell_length_a                    27.9268
_cell_length_b                    10.0763
_cell_length_c                    27.0276
_cell_angle_alpha                 90.0000
_cell_angle_beta                  154.5006
_cell_angle_gamma                 90.0000
loop_
_atom_site_label
_atom_site_type_symbol
_atom_site_fract_x
_atom_site_fract_y
_atom_site_fract_z
_atom_site_U_iso_or_equiv
_atom_site_adp_type
_atom_site_occupancy
C1     C     0.49604   0.21512   0.08124   0.00000  Uiso   1.00
C2     C     0.44809   0.11461   0.07292   0.00000  Uiso   1.00
C3     C     0.44988   0.97772   0.06899   0.00000  Uiso   1.00
C4     C     0.40161   0.90292   0.06139   0.00000  Uiso   1.00
C5     C     0.33446   0.73772   0.04895   0.00000  Uiso   1.00
C6     C     0.40049   0.30789   0.97868   0.00000  Uiso   1.00
C7     C     0.36228   0.33352   0.89553   0.00000  Uiso   1.00
C8     C     0.27394   0.42144   0.80861   0.00000  Uiso   1.00
C9     C     0.13295   0.55639   0.64992   0.00000  Uiso   1.00
C10    C     0.57858   0.29865   0.18763   0.00000  Uiso   1.00
C11    C     0.69010   0.31654   0.28017   0.00000  Uiso   1.00
C12    C     0.75170   0.39671   0.36916   0.00000  Uiso   1.00
C13    C     0.88722   0.51731   0.53490   0.00000  Uiso   1.00
C14    C     0.40713   0.32571   0.07472   0.00000  Uiso   1.00
C15    C     0.39980   0.17468   0.06937   0.00000  Uiso   1.00
C16    C     0.35152   0.10007   0.06178   0.00000  Uiso   1.00
C17    C     0.35323   0.96310   0.05785   0.00000  Uiso   1.00
C18    C     0.35221   0.36796   0.97514   0.00000  Uiso   1.00
C19    C     0.26392   0.45587   0.88832   0.00000  Uiso   1.00
C20    C     0.22557   0.48162   0.80506   0.00000  Uiso   1.00
C21    C     0.53030   0.35872   0.18410   0.00000  Uiso   1.00
C22    C     0.59174   0.43889   0.27296   0.00000  Uiso   1.00
C23    C     0.70333   0.45689   0.36561   0.00000  Uiso   1.00
H24    H     0.53363   0.16836   0.08399   0.00000  Uiso   1.00
H25    H     0.48725   0.93127   0.07172   0.00000  Uiso   1.00
H26    H     0.39967   0.28703   0.89830   0.00000  Uiso   1.00
H27    H     0.72744   0.27004   0.28288   0.00000  Uiso   1.00
H28    H     0.41450   0.69491   0.05652   0.00000  Uiso   1.00
H29    H     0.22985   0.44507   0.69088   0.00000  Uiso   1.00
H30    H     0.92103   0.40926   0.50183   0.00000  Uiso   1.00
H31    H     0.36953   0.37248   0.07196   0.00000  Uiso   1.00
H32    H     0.31415   0.14659   0.05904   0.00000  Uiso   1.00
H33    H     0.22657   0.50235   0.88562   0.00000  Uiso   1.00
H34    H     0.55434   0.48536   0.27019   0.00000  Uiso   1.00
H35    H     0.27400   0.86966   0.04622   0.00000  Uiso   1.00
H36    H     0.08936   0.61984   0.68058   0.00000  Uiso   1.00
H37    H     0.78053   0.58402   0.49153   0.00000  Uiso   1.00
O38    O     0.31075   0.63000   0.04305   0.00000  Uiso   1.00
O39    O     0.06852   0.61421   0.56335   0.00000  Uiso   1.00
O40    O     0.97532   0.56721   0.62730   0.00000  Uiso   1.00
N41    N     0.38905   0.76704   0.05589   0.00000  Uiso   1.00
N42    N     0.21641   0.46838   0.71403   0.00000  Uiso   1.00
N43    N     0.86259   0.43493   0.47219   0.00000  Uiso   1.00
N44    N     0.31345   0.86107   0.05035   0.00000  Uiso   1.00
N45    N     0.14081   0.56242   0.70849   0.00000  Uiso   1.00
N46    N     0.78699   0.52896   0.46665   0.00000  Uiso   1.00
C47    C     0.50396   0.21512   0.41876   0.00000  Uiso   1.00
C48    C     0.55191   0.11461   0.42708   0.00000  Uiso   1.00
C49    C     0.55012   0.97772   0.43101   0.00000  Uiso   1.00
C50    C     0.59839   0.90292   0.43861   0.00000  Uiso   1.00
C51    C     0.66554   0.73772   0.45105   0.00000  Uiso   1.00
C52    C     0.59951   0.30789   0.52132   0.00000  Uiso   1.00
C53    C     0.63772   0.33352   0.60447   0.00000  Uiso   1.00
C54    C     0.72606   0.42144   0.69139   0.00000  Uiso   1.00
C55    C     0.86705   0.55639   0.85008   0.00000  Uiso   1.00
C56    C     0.42142   0.29865   0.31237   0.00000  Uiso   1.00
C57    C     0.30990   0.31654   0.21983   0.00000  Uiso   1.00
C58    C     0.24830   0.39671   0.13084   0.00000  Uiso   1.00
C59    C     0.11278   0.51731   0.96510   0.00000  Uiso   1.00
C60    C     0.59287   0.32571   0.42528   0.00000  Uiso   1.00
C61    C     0.60020   0.17468   0.43063   0.00000  Uiso   1.00
C62    C     0.64848   0.10007   0.43822   0.00000  Uiso   1.00
C63    C     0.64677   0.96310   0.44215   0.00000  Uiso   1.00
C64    C     0.64779   0.36796   0.52486   0.00000  Uiso   1.00
C65    C     0.73608   0.45587   0.61168   0.00000  Uiso   1.00
C66    C     0.77443   0.48162   0.69494   0.00000  Uiso   1.00
C67    C     0.46970   0.35872   0.31590   0.00000  Uiso   1.00
C68    C     0.40826   0.43889   0.22704   0.00000  Uiso   1.00
C69    C     0.29667   0.45689   0.13439   0.00000  Uiso   1.00
H70    H     0.46637   0.16836   0.41601   0.00000  Uiso   1.00
H71    H     0.51275   0.93127   0.42828   0.00000  Uiso   1.00
H72    H     0.60033   0.28703   0.60170   0.00000  Uiso   1.00
H73    H     0.27256   0.27004   0.21712   0.00000  Uiso   1.00
H74    H     0.58550   0.69491   0.44348   0.00000  Uiso   1.00
H75    H     0.77015   0.44507   0.80912   0.00000  Uiso   1.00
H76    H     0.07897   0.40926   0.99817   0.00000  Uiso   1.00
H77    H     0.63047   0.37248   0.42804   0.00000  Uiso   1.00
H78    H     0.68585   0.14659   0.44096   0.00000  Uiso   1.00
H79    H     0.77343   0.50235   0.61438   0.00000  Uiso   1.00
H80    H     0.44566   0.48536   0.22981   0.00000  Uiso   1.00
H81    H     0.72600   0.86966   0.45378   0.00000  Uiso   1.00
H82    H     0.91064   0.61984   0.81942   0.00000  Uiso   1.00
H83    H     0.21947   0.58402   0.00847   0.00000  Uiso   1.00
O84    O     0.68925   0.63000   0.45695   0.00000  Uiso   1.00
O85    O     0.93148   0.61421   0.93665   0.00000  Uiso   1.00
O86    O     0.02468   0.56721   0.87270   0.00000  Uiso   1.00
N87    N     0.61095   0.76704   0.44411   0.00000  Uiso   1.00
N88    N     0.78359   0.46838   0.78597   0.00000  Uiso   1.00
N89    N     0.13741   0.43493   0.02781   0.00000  Uiso   1.00
N90    N     0.68655   0.86107   0.44965   0.00000  Uiso   1.00
N91    N     0.85919   0.56242   0.79151   0.00000  Uiso   1.00
N92    N     0.21301   0.52896   0.03335   0.00000  Uiso   1.00
C93    C     0.50396   0.78488   0.91876   0.00000  Uiso   1.00
C94    C     0.55191   0.88539   0.92708   0.00000  Uiso   1.00
C95    C     0.55012   0.02228   0.93101   0.00000  Uiso   1.00
C96    C     0.59839   0.09708   0.93861   0.00000  Uiso   1.00
C97    C     0.66554   0.26228   0.95105   0.00000  Uiso   1.00
C98    C     0.59951   0.69211   0.02132   0.00000  Uiso   1.00
C99    C     0.63772   0.66648   0.10447   0.00000  Uiso   1.00
C100   C     0.72606   0.57856   0.19139   0.00000  Uiso   1.00
C101   C     0.86705   0.44361   0.35008   0.00000  Uiso   1.00
C102   C     0.42142   0.70135   0.81237   0.00000  Uiso   1.00
C103   C     0.30990   0.68346   0.71983   0.00000  Uiso   1.00
C104   C     0.24830   0.60329   0.63084   0.00000  Uiso   1.00
C105   C     0.11278   0.48269   0.46510   0.00000  Uiso   1.00
C106   C     0.59287   0.67429   0.92528   0.00000  Uiso   1.00
C107   C     0.60020   0.82532   0.93063   0.00000  Uiso   1.00
C108   C     0.64848   0.89993   0.93822   0.00000  Uiso   1.00
C109   C     0.64677   0.03690   0.94215   0.00000  Uiso   1.00
C110   C     0.64779   0.63204   0.02486   0.00000  Uiso   1.00
C111   C     0.73608   0.54413   0.11168   0.00000  Uiso   1.00
C112   C     0.77443   0.51838   0.19494   0.00000  Uiso   1.00
C113   C     0.46970   0.64128   0.81590   0.00000  Uiso   1.00
C114   C     0.40826   0.56111   0.72704   0.00000  Uiso   1.00
C115   C     0.29667   0.54311   0.63439   0.00000  Uiso   1.00
H116   H     0.46637   0.83164   0.91601   0.00000  Uiso   1.00
H117   H     0.51275   0.06873   0.92828   0.00000  Uiso   1.00
H118   H     0.60033   0.71297   0.10170   0.00000  Uiso   1.00
H119   H     0.27256   0.72996   0.71712   0.00000  Uiso   1.00
H120   H     0.58550   0.30509   0.94348   0.00000  Uiso   1.00
H121   H     0.77015   0.55493   0.30912   0.00000  Uiso   1.00
H122   H     0.07897   0.59074   0.49817   0.00000  Uiso   1.00
H123   H     0.63047   0.62752   0.92804   0.00000  Uiso   1.00
H124   H     0.68585   0.85341   0.94096   0.00000  Uiso   1.00
H125   H     0.77343   0.49765   0.11438   0.00000  Uiso   1.00
H126   H     0.44566   0.51464   0.72981   0.00000  Uiso   1.00
H127   H     0.72600   0.13034   0.95378   0.00000  Uiso   1.00
H128   H     0.91064   0.38016   0.31942   0.00000  Uiso   1.00
H129   H     0.21947   0.41598   0.50847   0.00000  Uiso   1.00
O130   O     0.68925   0.37000   0.95695   0.00000  Uiso   1.00
O131   O     0.93148   0.38579   0.43665   0.00000  Uiso   1.00
O132   O     0.02468   0.43279   0.37270   0.00000  Uiso   1.00
N133   N     0.61095   0.23296   0.94411   0.00000  Uiso   1.00
N134   N     0.78359   0.53162   0.28597   0.00000  Uiso   1.00
N135   N     0.13741   0.56507   0.52781   0.00000  Uiso   1.00
N136   N     0.68655   0.13893   0.94965   0.00000  Uiso   1.00
N137   N     0.85919   0.43758   0.29151   0.00000  Uiso   1.00
N138   N     0.21301   0.47104   0.53335   0.00000  Uiso   1.00
C139   C     0.49604   0.78488   0.58124   0.00000  Uiso   1.00
C140   C     0.44809   0.88539   0.57292   0.00000  Uiso   1.00
C141   C     0.44988   0.02228   0.56899   0.00000  Uiso   1.00
C142   C     0.40161   0.09708   0.56139   0.00000  Uiso   1.00
C143   C     0.33446   0.26228   0.54895   0.00000  Uiso   1.00
C144   C     0.40049   0.69211   0.47868   0.00000  Uiso   1.00
C145   C     0.36228   0.66648   0.39553   0.00000  Uiso   1.00
C146   C     0.27394   0.57856   0.30861   0.00000  Uiso   1.00
C147   C     0.13295   0.44361   0.14992   0.00000  Uiso   1.00
C148   C     0.57858   0.70135   0.68763   0.00000  Uiso   1.00
C149   C     0.69010   0.68346   0.78017   0.00000  Uiso   1.00
C150   C     0.75170   0.60329   0.86916   0.00000  Uiso   1.00
C151   C     0.88722   0.48269   0.03490   0.00000  Uiso   1.00
C152   C     0.40713   0.67429   0.57472   0.00000  Uiso   1.00
C153   C     0.39980   0.82532   0.56937   0.00000  Uiso   1.00
C154   C     0.35152   0.89993   0.56178   0.00000  Uiso   1.00
C155   C     0.35323   0.03690   0.55785   0.00000  Uiso   1.00
C156   C     0.35221   0.63204   0.47514   0.00000  Uiso   1.00
C157   C     0.26392   0.54413   0.38832   0.00000  Uiso   1.00
C158   C     0.22557   0.51838   0.30506   0.00000  Uiso   1.00
C159   C     0.53030   0.64128   0.68410   0.00000  Uiso   1.00
C160   C     0.59174   0.56111   0.77296   0.00000  Uiso   1.00
C161   C     0.70333   0.54311   0.86561   0.00000  Uiso   1.00
H162   H     0.53363   0.83164   0.58399   0.00000  Uiso   1.00
H163   H     0.48725   0.06873   0.57172   0.00000  Uiso   1.00
H164   H     0.39967   0.71297   0.39830   0.00000  Uiso   1.00
H165   H     0.72744   0.72996   0.78288   0.00000  Uiso   1.00
H166   H     0.41450   0.30509   0.55652   0.00000  Uiso   1.00
H167   H     0.22985   0.55493   0.19088   0.00000  Uiso   1.00
H168   H     0.92103   0.59074   0.00183   0.00000  Uiso   1.00
H169   H     0.36953   0.62752   0.57196   0.00000  Uiso   1.00
H170   H     0.31415   0.85341   0.55904   0.00000  Uiso   1.00
H171   H     0.22657   0.49765   0.38562   0.00000  Uiso   1.00
H172   H     0.55434   0.51464   0.77019   0.00000  Uiso   1.00
H173   H     0.27400   0.13034   0.54622   0.00000  Uiso   1.00
H174   H     0.08936   0.38016   0.18058   0.00000  Uiso   1.00
H175   H     0.78053   0.41598   0.99153   0.00000  Uiso   1.00
O176   O     0.31075   0.37000   0.54305   0.00000  Uiso   1.00
O177   O     0.06852   0.38579   0.06335   0.00000  Uiso   1.00
O178   O     0.97532   0.43279   0.12730   0.00000  Uiso   1.00
N179   N     0.38905   0.23296   0.55589   0.00000  Uiso   1.00
N180   N     0.21641   0.53162   0.21403   0.00000  Uiso   1.00
N181   N     0.86259   0.56507   0.97219   0.00000  Uiso   1.00
N182   N     0.31345   0.13893   0.55035   0.00000  Uiso   1.00
N183   N     0.14081   0.43758   0.20849   0.00000  Uiso   1.00
N184   N     0.78699   0.47104   0.96665   0.00000  Uiso   1.00
