data_job_03126
_audit_creation_date              2018-12-19
_audit_creation_method            'Materials Studio'
_symmetry_space_group_name_H-M    'P1'
_symmetry_Int_Tables_number       1
_symmetry_cell_setting            triclinic
loop_
_symmetry_equiv_pos_as_xyz
  x,y,z
_cell_length_a                    8.3340
_cell_length_b                    25.6600
_cell_length_c                    17.3235
_cell_angle_alpha                 90.0000
_cell_angle_beta                  135.9106
_cell_angle_gamma                 90.0000
loop_
_atom_site_label
_atom_site_type_symbol
_atom_site_fract_x
_atom_site_fract_y
_atom_site_fract_z
_atom_site_U_iso_or_equiv
_atom_site_adp_type
_atom_site_occupancy
C1     C     0.51560   0.42534   0.24763   0.00000  Uiso   1.00
C2     C     0.69853   0.40521   0.36661   0.00000  Uiso   1.00
C3     C     0.93492   0.40593   0.43583   0.00000  Uiso   1.00
C4     C     0.07344   0.38568   0.54178   0.00000  Uiso   1.00
C5     C     0.37190   0.35751   0.72116   0.00000  Uiso   1.00
C6     C     0.37587   0.46557   0.24419   0.00000  Uiso   1.00
C7     C     0.34094   0.51704   0.21048   0.00000  Uiso   1.00
C8     C     0.20782   0.54759   0.21336   0.00000  Uiso   1.00
C9     C     0.00519   0.61313   0.20262   0.00000  Uiso   1.00
C10    C     0.35293   0.37973   0.17668   0.00000  Uiso   1.00
C11    C     0.29866   0.35903   0.08617   0.00000  Uiso   1.00
C12    C     0.14617   0.31732   0.03219   0.00000  Uiso   1.00
C13    C     0.90792   0.24958   0.91661   0.00000  Uiso   1.00
C14    C     0.34124   0.38808   0.31268   0.00000  Uiso   1.00
C15    C     0.60382   0.38497   0.40193   0.00000  Uiso   1.00
C16    C     0.74201   0.36471   0.50780   0.00000  Uiso   1.00
C17    C     0.97857   0.36540   0.57717   0.00000  Uiso   1.00
C18    C     0.28116   0.44533   0.27952   0.00000  Uiso   1.00
C19    C     0.14804   0.47581   0.28245   0.00000  Uiso   1.00
C20    C     0.11294   0.52732   0.24876   0.00000  Uiso   1.00
C21    C     0.25822   0.35948   0.21200   0.00000  Uiso   1.00
C22    C     0.10576   0.31780   0.15815   0.00000  Uiso   1.00
C23    C     0.05129   0.29705   0.06758   0.00000  Uiso   1.00
H24    H     0.58932   0.44110   0.22012   0.00000  Uiso   1.00
H25    H     0.00815   0.42160   0.40846   0.00000  Uiso   1.00
H26    H     0.41424   0.53269   0.18314   0.00000  Uiso   1.00
H27    H     0.37198   0.37470   0.05886   0.00000  Uiso   1.00
H28    H     0.43073   0.39108   0.63287   0.00000  Uiso   1.00
H29    H     0.17838   0.62530   0.15772   0.00000  Uiso   1.00
H30    H     0.08925   0.29216   0.89564   0.00000  Uiso   1.00
H31    H     0.26750   0.37232   0.34018   0.00000  Uiso   1.00
H32    H     0.66868   0.34905   0.53512   0.00000  Uiso   1.00
H33    H     0.07477   0.46014   0.30979   0.00000  Uiso   1.00
H34    H     0.03251   0.30215   0.18551   0.00000  Uiso   1.00
H35    H     0.15520   0.33219   0.73567   0.00000  Uiso   1.00
H36    H     0.90284   0.56642   0.26051   0.00000  Uiso   1.00
H37    H     0.81373   0.23327   0.99844   0.00000  Uiso   1.00
O38    O     0.56268   0.34758   0.81035   0.00000  Uiso   1.00
O39    O     0.91961   0.65487   0.18694   0.00000  Uiso   1.00
O40    O     0.80270   0.21780   0.84312   0.00000  Uiso   1.00
N41    N     0.31083   0.38040   0.63030   0.00000  Uiso   1.00
N42    N     0.13998   0.59939   0.18608   0.00000  Uiso   1.00
N43    N     0.05661   0.28794   0.94104   0.00000  Uiso   1.00
N44    N     0.16257   0.34871   0.68562   0.00000  Uiso   1.00
N45    N     0.99173   0.56771   0.24139   0.00000  Uiso   1.00
N46    N     0.90835   0.25625   0.99636   0.00000  Uiso   1.00
C47    C     0.48440   0.92534   0.25237   0.00000  Uiso   1.00
C48    C     0.30147   0.90521   0.13339   0.00000  Uiso   1.00
C49    C     0.06508   0.90593   0.06417   0.00000  Uiso   1.00
C50    C     0.92656   0.88568   0.95822   0.00000  Uiso   1.00
C51    C     0.62810   0.85751   0.77884   0.00000  Uiso   1.00
C52    C     0.62413   0.96557   0.25581   0.00000  Uiso   1.00
C53    C     0.65906   0.01704   0.28952   0.00000  Uiso   1.00
C54    C     0.79218   0.04759   0.28664   0.00000  Uiso   1.00
C55    C     0.99481   0.11313   0.29738   0.00000  Uiso   1.00
C56    C     0.64707   0.87973   0.32332   0.00000  Uiso   1.00
C57    C     0.70134   0.85903   0.41383   0.00000  Uiso   1.00
C58    C     0.85383   0.81732   0.46781   0.00000  Uiso   1.00
C59    C     0.09208   0.74958   0.58339   0.00000  Uiso   1.00
C60    C     0.65876   0.88808   0.18732   0.00000  Uiso   1.00
C61    C     0.39618   0.88497   0.09807   0.00000  Uiso   1.00
C62    C     0.25799   0.86471   0.99220   0.00000  Uiso   1.00
C63    C     0.02143   0.86540   0.92283   0.00000  Uiso   1.00
C64    C     0.71884   0.94533   0.22048   0.00000  Uiso   1.00
C65    C     0.85196   0.97581   0.21755   0.00000  Uiso   1.00
C66    C     0.88706   0.02732   0.25124   0.00000  Uiso   1.00
C67    C     0.74178   0.85948   0.28800   0.00000  Uiso   1.00
C68    C     0.89424   0.81780   0.34185   0.00000  Uiso   1.00
C69    C     0.94871   0.79705   0.43242   0.00000  Uiso   1.00
H70    H     0.41068   0.94110   0.27988   0.00000  Uiso   1.00
H71    H     0.99185   0.92160   0.09154   0.00000  Uiso   1.00
H72    H     0.58576   0.03269   0.31686   0.00000  Uiso   1.00
H73    H     0.62802   0.87470   0.44114   0.00000  Uiso   1.00
H74    H     0.56927   0.89108   0.86713   0.00000  Uiso   1.00
H75    H     0.82162   0.12530   0.34228   0.00000  Uiso   1.00
H76    H     0.91075   0.79216   0.60436   0.00000  Uiso   1.00
H77    H     0.73250   0.87232   0.15982   0.00000  Uiso   1.00
H78    H     0.33132   0.84905   0.96488   0.00000  Uiso   1.00
H79    H     0.92523   0.96014   0.19021   0.00000  Uiso   1.00
H80    H     0.96749   0.80215   0.31449   0.00000  Uiso   1.00
H81    H     0.84480   0.83219   0.76433   0.00000  Uiso   1.00
H82    H     0.09716   0.06642   0.23949   0.00000  Uiso   1.00
H83    H     0.18627   0.73327   0.50156   0.00000  Uiso   1.00
O84    O     0.43732   0.84758   0.68965   0.00000  Uiso   1.00
O85    O     0.08039   0.15487   0.31306   0.00000  Uiso   1.00
O86    O     0.19730   0.71780   0.65688   0.00000  Uiso   1.00
N87    N     0.68917   0.88040   0.86970   0.00000  Uiso   1.00
N88    N     0.86002   0.09939   0.31392   0.00000  Uiso   1.00
N89    N     0.94339   0.78794   0.55896   0.00000  Uiso   1.00
N90    N     0.83743   0.84871   0.81438   0.00000  Uiso   1.00
N91    N     0.00827   0.06771   0.25861   0.00000  Uiso   1.00
N92    N     0.09165   0.75625   0.50364   0.00000  Uiso   1.00
C93    C     0.48440   0.57466   0.75237   0.00000  Uiso   1.00
C94    C     0.30147   0.59479   0.63339   0.00000  Uiso   1.00
C95    C     0.06508   0.59407   0.56417   0.00000  Uiso   1.00
C96    C     0.92656   0.61432   0.45822   0.00000  Uiso   1.00
C97    C     0.62810   0.64249   0.27884   0.00000  Uiso   1.00
C98    C     0.62413   0.53443   0.75581   0.00000  Uiso   1.00
C99    C     0.65906   0.48296   0.78952   0.00000  Uiso   1.00
C100   C     0.79218   0.45241   0.78664   0.00000  Uiso   1.00
C101   C     0.99481   0.38687   0.79738   0.00000  Uiso   1.00
C102   C     0.64707   0.62027   0.82332   0.00000  Uiso   1.00
C103   C     0.70134   0.64097   0.91383   0.00000  Uiso   1.00
C104   C     0.85383   0.68268   0.96781   0.00000  Uiso   1.00
C105   C     0.09208   0.75042   0.08339   0.00000  Uiso   1.00
C106   C     0.65876   0.61192   0.68732   0.00000  Uiso   1.00
C107   C     0.39618   0.61503   0.59807   0.00000  Uiso   1.00
C108   C     0.25799   0.63529   0.49220   0.00000  Uiso   1.00
C109   C     0.02143   0.63460   0.42283   0.00000  Uiso   1.00
C110   C     0.71884   0.55467   0.72048   0.00000  Uiso   1.00
C111   C     0.85196   0.52419   0.71755   0.00000  Uiso   1.00
C112   C     0.88706   0.47268   0.75124   0.00000  Uiso   1.00
C113   C     0.74178   0.64052   0.78800   0.00000  Uiso   1.00
C114   C     0.89424   0.68220   0.84185   0.00000  Uiso   1.00
C115   C     0.94871   0.70295   0.93242   0.00000  Uiso   1.00
H116   H     0.41068   0.55890   0.77988   0.00000  Uiso   1.00
H117   H     0.99185   0.57840   0.59154   0.00000  Uiso   1.00
H118   H     0.58576   0.46731   0.81686   0.00000  Uiso   1.00
H119   H     0.62802   0.62530   0.94114   0.00000  Uiso   1.00
H120   H     0.56927   0.60892   0.36713   0.00000  Uiso   1.00
H121   H     0.82162   0.37470   0.84228   0.00000  Uiso   1.00
H122   H     0.91075   0.70784   0.10436   0.00000  Uiso   1.00
H123   H     0.73250   0.62768   0.65982   0.00000  Uiso   1.00
H124   H     0.33132   0.65095   0.46488   0.00000  Uiso   1.00
H125   H     0.92523   0.53986   0.69021   0.00000  Uiso   1.00
H126   H     0.96749   0.69785   0.81449   0.00000  Uiso   1.00
H127   H     0.84480   0.66781   0.26433   0.00000  Uiso   1.00
H128   H     0.09716   0.43358   0.73949   0.00000  Uiso   1.00
H129   H     0.18627   0.76673   0.00156   0.00000  Uiso   1.00
O130   O     0.43732   0.65242   0.18965   0.00000  Uiso   1.00
O131   O     0.08039   0.34513   0.81306   0.00000  Uiso   1.00
O132   O     0.19730   0.78220   0.15688   0.00000  Uiso   1.00
N133   N     0.68917   0.61960   0.36970   0.00000  Uiso   1.00
N134   N     0.86002   0.40061   0.81392   0.00000  Uiso   1.00
N135   N     0.94339   0.71206   0.05896   0.00000  Uiso   1.00
N136   N     0.83743   0.65129   0.31438   0.00000  Uiso   1.00
N137   N     0.00827   0.43229   0.75861   0.00000  Uiso   1.00
N138   N     0.09165   0.74375   0.00364   0.00000  Uiso   1.00
C139   C     0.51560   0.07466   0.74763   0.00000  Uiso   1.00
C140   C     0.69853   0.09479   0.86661   0.00000  Uiso   1.00
C141   C     0.93492   0.09407   0.93583   0.00000  Uiso   1.00
C142   C     0.07344   0.11432   0.04178   0.00000  Uiso   1.00
C143   C     0.37190   0.14249   0.22116   0.00000  Uiso   1.00
C144   C     0.37587   0.03443   0.74419   0.00000  Uiso   1.00
C145   C     0.34094   0.98296   0.71048   0.00000  Uiso   1.00
C146   C     0.20782   0.95241   0.71336   0.00000  Uiso   1.00
C147   C     0.00519   0.88687   0.70262   0.00000  Uiso   1.00
C148   C     0.35293   0.12027   0.67668   0.00000  Uiso   1.00
C149   C     0.29866   0.14097   0.58617   0.00000  Uiso   1.00
C150   C     0.14617   0.18268   0.53219   0.00000  Uiso   1.00
C151   C     0.90792   0.25042   0.41661   0.00000  Uiso   1.00
C152   C     0.34124   0.11192   0.81268   0.00000  Uiso   1.00
C153   C     0.60382   0.11503   0.90193   0.00000  Uiso   1.00
C154   C     0.74201   0.13529   0.00780   0.00000  Uiso   1.00
C155   C     0.97857   0.13460   0.07717   0.00000  Uiso   1.00
C156   C     0.28116   0.05467   0.77952   0.00000  Uiso   1.00
C157   C     0.14804   0.02419   0.78245   0.00000  Uiso   1.00
C158   C     0.11294   0.97268   0.74876   0.00000  Uiso   1.00
C159   C     0.25822   0.14052   0.71200   0.00000  Uiso   1.00
C160   C     0.10576   0.18220   0.65815   0.00000  Uiso   1.00
C161   C     0.05129   0.20295   0.56758   0.00000  Uiso   1.00
H162   H     0.58932   0.05890   0.72012   0.00000  Uiso   1.00
H163   H     0.00815   0.07840   0.90846   0.00000  Uiso   1.00
H164   H     0.41424   0.96731   0.68314   0.00000  Uiso   1.00
H165   H     0.37198   0.12530   0.55886   0.00000  Uiso   1.00
H166   H     0.43073   0.10892   0.13287   0.00000  Uiso   1.00
H167   H     0.17838   0.87470   0.65772   0.00000  Uiso   1.00
H168   H     0.08925   0.20784   0.39564   0.00000  Uiso   1.00
H169   H     0.26750   0.12768   0.84018   0.00000  Uiso   1.00
H170   H     0.66868   0.15095   0.03512   0.00000  Uiso   1.00
H171   H     0.07477   0.03986   0.80979   0.00000  Uiso   1.00
H172   H     0.03251   0.19785   0.68551   0.00000  Uiso   1.00
H173   H     0.15520   0.16781   0.23567   0.00000  Uiso   1.00
H174   H     0.90284   0.93358   0.76051   0.00000  Uiso   1.00
H175   H     0.81373   0.26673   0.49844   0.00000  Uiso   1.00
O176   O     0.56268   0.15242   0.31035   0.00000  Uiso   1.00
O177   O     0.91961   0.84513   0.68694   0.00000  Uiso   1.00
O178   O     0.80270   0.28220   0.34312   0.00000  Uiso   1.00
N179   N     0.31083   0.11960   0.13030   0.00000  Uiso   1.00
N180   N     0.13998   0.90061   0.68608   0.00000  Uiso   1.00
N181   N     0.05661   0.21206   0.44104   0.00000  Uiso   1.00
N182   N     0.16257   0.15129   0.18562   0.00000  Uiso   1.00
N183   N     0.99173   0.93229   0.74139   0.00000  Uiso   1.00
N184   N     0.90835   0.24375   0.49636   0.00000  Uiso   1.00
