data_job_03481
_audit_creation_date              2018-12-19
_audit_creation_method            'Materials Studio'
_symmetry_space_group_name_H-M    'P1'
_symmetry_Int_Tables_number       1
_symmetry_cell_setting            triclinic
loop_
_symmetry_equiv_pos_as_xyz
  x,y,z
_cell_length_a                    22.4717
_cell_length_b                    16.5618
_cell_length_c                    10.0804
_cell_angle_alpha                 90.0000
_cell_angle_beta                  90.0000
_cell_angle_gamma                 90.0000
loop_
_atom_site_label
_atom_site_type_symbol
_atom_site_fract_x
_atom_site_fract_y
_atom_site_fract_z
_atom_site_U_iso_or_equiv
_atom_site_adp_type
_atom_site_occupancy
C1     C     0.82514   0.62639   0.72469   0.00000  Uiso   1.00
C2     C     0.87818   0.65580   0.80574   0.00000  Uiso   1.00
C3     C     0.89553   0.73567   0.82116   0.00000  Uiso   1.00
C4     C     0.94530   0.75009   0.89926   0.00000  Uiso   1.00
C5     C     0.02292   0.80538   0.01587   0.00000  Uiso   1.00
C6     C     0.85006   0.56611   0.62474   0.00000  Uiso   1.00
C7     C     0.84374   0.57056   0.48798   0.00000  Uiso   1.00
C8     C     0.86983   0.50947   0.41371   0.00000  Uiso   1.00
C9     C     0.90374   0.42546   0.24931   0.00000  Uiso   1.00
C10    C     0.78662   0.57748   0.81984   0.00000  Uiso   1.00
C11    C     0.72697   0.59149   0.84709   0.00000  Uiso   1.00
C12    C     0.69965   0.53996   0.93707   0.00000  Uiso   1.00
C13    C     0.63508   0.47362   0.07558   0.00000  Uiso   1.00
C14    C     0.88268   0.50997   0.83597   0.00000  Uiso   1.00
C15    C     0.90943   0.59256   0.86618   0.00000  Uiso   1.00
C16    C     0.95919   0.60687   0.94429   0.00000  Uiso   1.00
C17    C     0.97660   0.68675   0.95982   0.00000  Uiso   1.00
C18    C     0.88131   0.50287   0.68518   0.00000  Uiso   1.00
C19    C     0.90740   0.44176   0.61110   0.00000  Uiso   1.00
C20    C     0.90114   0.44612   0.47426   0.00000  Uiso   1.00
C21    C     0.81787   0.51425   0.88028   0.00000  Uiso   1.00
C22    C     0.79063   0.46269   0.97022   0.00000  Uiso   1.00
C23    C     0.73096   0.47661   0.99762   0.00000  Uiso   1.00
H24    H     0.80081   0.67562   0.67762   0.00000  Uiso   1.00
H25    H     0.87133   0.78459   0.77436   0.00000  Uiso   1.00
H26    H     0.81955   0.61950   0.44123   0.00000  Uiso   1.00
H27    H     0.70280   0.64042   0.80030   0.00000  Uiso   1.00
H28    H     0.96332   0.87752   0.90823   0.00000  Uiso   1.00
H29    H     0.85411   0.52939   0.20581   0.00000  Uiso   1.00
H30    H     0.60792   0.57352   0.96297   0.00000  Uiso   1.00
H31    H     0.90701   0.46074   0.88303   0.00000  Uiso   1.00
H32    H     0.98336   0.55792   0.99105   0.00000  Uiso   1.00
H33    H     0.93158   0.39283   0.65791   0.00000  Uiso   1.00
H34    H     0.81483   0.41376   0.01698   0.00000  Uiso   1.00
H35    H     0.05425   0.69355   0.08409   0.00000  Uiso   1.00
H36    H     0.94504   0.34542   0.38167   0.00000  Uiso   1.00
H37    H     0.69885   0.38955   0.13883   0.00000  Uiso   1.00
O38    O     0.05710   0.85334   0.06347   0.00000  Uiso   1.00
O39    O     0.91382   0.39661   0.14193   0.00000  Uiso   1.00
O40    O     0.59083   0.45451   0.13531   0.00000  Uiso   1.00
N41    N     0.97423   0.82088   0.93482   0.00000  Uiso   1.00
N42    N     0.87214   0.49542   0.27809   0.00000  Uiso   1.00
N43    N     0.64197   0.53666   0.98595   0.00000  Uiso   1.00
N44    N     0.02316   0.72189   0.02945   0.00000  Uiso   1.00
N45    N     0.92107   0.39642   0.37272   0.00000  Uiso   1.00
N46    N     0.69090   0.43767   0.08058   0.00000  Uiso   1.00
C47    C     0.17486   0.37361   0.72469   0.00000  Uiso   1.00
C48    C     0.12182   0.34420   0.80574   0.00000  Uiso   1.00
C49    C     0.10447   0.26433   0.82116   0.00000  Uiso   1.00
C50    C     0.05470   0.24991   0.89926   0.00000  Uiso   1.00
C51    C     0.97708   0.19462   0.01587   0.00000  Uiso   1.00
C52    C     0.14994   0.43389   0.62474   0.00000  Uiso   1.00
C53    C     0.15626   0.42944   0.48798   0.00000  Uiso   1.00
C54    C     0.13017   0.49053   0.41371   0.00000  Uiso   1.00
C55    C     0.09626   0.57454   0.24931   0.00000  Uiso   1.00
C56    C     0.21338   0.42252   0.81984   0.00000  Uiso   1.00
C57    C     0.27303   0.40851   0.84709   0.00000  Uiso   1.00
C58    C     0.30035   0.46004   0.93707   0.00000  Uiso   1.00
C59    C     0.36492   0.52638   0.07558   0.00000  Uiso   1.00
C60    C     0.11732   0.49003   0.83597   0.00000  Uiso   1.00
C61    C     0.09057   0.40744   0.86618   0.00000  Uiso   1.00
C62    C     0.04081   0.39313   0.94429   0.00000  Uiso   1.00
C63    C     0.02340   0.31325   0.95982   0.00000  Uiso   1.00
C64    C     0.11869   0.49713   0.68518   0.00000  Uiso   1.00
C65    C     0.09260   0.55824   0.61110   0.00000  Uiso   1.00
C66    C     0.09886   0.55388   0.47426   0.00000  Uiso   1.00
C67    C     0.18213   0.48575   0.88028   0.00000  Uiso   1.00
C68    C     0.20937   0.53731   0.97022   0.00000  Uiso   1.00
C69    C     0.26904   0.52339   0.99762   0.00000  Uiso   1.00
H70    H     0.19919   0.32438   0.67762   0.00000  Uiso   1.00
H71    H     0.12867   0.21541   0.77436   0.00000  Uiso   1.00
H72    H     0.18045   0.38050   0.44123   0.00000  Uiso   1.00
H73    H     0.29720   0.35958   0.80030   0.00000  Uiso   1.00
H74    H     0.03668   0.12248   0.90823   0.00000  Uiso   1.00
H75    H     0.14589   0.47061   0.20581   0.00000  Uiso   1.00
H76    H     0.39208   0.42648   0.96297   0.00000  Uiso   1.00
H77    H     0.09299   0.53926   0.88303   0.00000  Uiso   1.00
H78    H     0.01664   0.44208   0.99105   0.00000  Uiso   1.00
H79    H     0.06842   0.60717   0.65791   0.00000  Uiso   1.00
H80    H     0.18517   0.58624   0.01698   0.00000  Uiso   1.00
H81    H     0.94575   0.30645   0.08409   0.00000  Uiso   1.00
H82    H     0.05496   0.65458   0.38167   0.00000  Uiso   1.00
H83    H     0.30115   0.61045   0.13883   0.00000  Uiso   1.00
O84    O     0.94290   0.14666   0.06347   0.00000  Uiso   1.00
O85    O     0.08618   0.60339   0.14193   0.00000  Uiso   1.00
O86    O     0.40917   0.54549   0.13531   0.00000  Uiso   1.00
N87    N     0.02577   0.17912   0.93482   0.00000  Uiso   1.00
N88    N     0.12786   0.50458   0.27809   0.00000  Uiso   1.00
N89    N     0.35803   0.46334   0.98595   0.00000  Uiso   1.00
N90    N     0.97684   0.27811   0.02945   0.00000  Uiso   1.00
N91    N     0.07893   0.60358   0.37272   0.00000  Uiso   1.00
N92    N     0.30910   0.56233   0.08058   0.00000  Uiso   1.00
C93    C     0.67486   0.12639   0.27531   0.00000  Uiso   1.00
C94    C     0.62182   0.15580   0.19426   0.00000  Uiso   1.00
C95    C     0.60447   0.23567   0.17884   0.00000  Uiso   1.00
C96    C     0.55470   0.25009   0.10074   0.00000  Uiso   1.00
C97    C     0.47708   0.30538   0.98413   0.00000  Uiso   1.00
C98    C     0.64994   0.06611   0.37526   0.00000  Uiso   1.00
C99    C     0.65626   0.07056   0.51202   0.00000  Uiso   1.00
C100   C     0.63017   0.00947   0.58629   0.00000  Uiso   1.00
C101   C     0.59626   0.92546   0.75069   0.00000  Uiso   1.00
C102   C     0.71338   0.07748   0.18016   0.00000  Uiso   1.00
C103   C     0.77303   0.09149   0.15291   0.00000  Uiso   1.00
C104   C     0.80035   0.03996   0.06293   0.00000  Uiso   1.00
C105   C     0.86492   0.97362   0.92442   0.00000  Uiso   1.00
C106   C     0.61732   0.00997   0.16403   0.00000  Uiso   1.00
C107   C     0.59057   0.09256   0.13382   0.00000  Uiso   1.00
C108   C     0.54081   0.10687   0.05571   0.00000  Uiso   1.00
C109   C     0.52340   0.18675   0.04018   0.00000  Uiso   1.00
C110   C     0.61869   0.00287   0.31482   0.00000  Uiso   1.00
C111   C     0.59260   0.94176   0.38890   0.00000  Uiso   1.00
C112   C     0.59886   0.94612   0.52574   0.00000  Uiso   1.00
C113   C     0.68213   0.01425   0.11972   0.00000  Uiso   1.00
C114   C     0.70937   0.96269   0.02978   0.00000  Uiso   1.00
C115   C     0.76904   0.97661   0.00238   0.00000  Uiso   1.00
H116   H     0.69919   0.17562   0.32238   0.00000  Uiso   1.00
H117   H     0.62867   0.28459   0.22564   0.00000  Uiso   1.00
H118   H     0.68045   0.11950   0.55877   0.00000  Uiso   1.00
H119   H     0.79720   0.14042   0.19970   0.00000  Uiso   1.00
H120   H     0.53668   0.37752   0.09177   0.00000  Uiso   1.00
H121   H     0.64589   0.02939   0.79419   0.00000  Uiso   1.00
H122   H     0.89208   0.07352   0.03703   0.00000  Uiso   1.00
H123   H     0.59299   0.96074   0.11697   0.00000  Uiso   1.00
H124   H     0.51664   0.05792   0.00895   0.00000  Uiso   1.00
H125   H     0.56842   0.89283   0.34209   0.00000  Uiso   1.00
H126   H     0.68517   0.91376   0.98302   0.00000  Uiso   1.00
H127   H     0.44575   0.19355   0.91591   0.00000  Uiso   1.00
H128   H     0.55496   0.84542   0.61833   0.00000  Uiso   1.00
H129   H     0.80115   0.88955   0.86117   0.00000  Uiso   1.00
O130   O     0.44290   0.35334   0.93653   0.00000  Uiso   1.00
O131   O     0.58618   0.89661   0.85807   0.00000  Uiso   1.00
O132   O     0.90917   0.95451   0.86469   0.00000  Uiso   1.00
N133   N     0.52577   0.32088   0.06518   0.00000  Uiso   1.00
N134   N     0.62786   0.99542   0.72191   0.00000  Uiso   1.00
N135   N     0.85803   0.03666   0.01405   0.00000  Uiso   1.00
N136   N     0.47684   0.22189   0.97055   0.00000  Uiso   1.00
N137   N     0.57893   0.89642   0.62728   0.00000  Uiso   1.00
N138   N     0.80910   0.93767   0.91942   0.00000  Uiso   1.00
C139   C     0.32514   0.87361   0.27531   0.00000  Uiso   1.00
C140   C     0.37818   0.84420   0.19426   0.00000  Uiso   1.00
C141   C     0.39553   0.76433   0.17884   0.00000  Uiso   1.00
C142   C     0.44530   0.74991   0.10074   0.00000  Uiso   1.00
C143   C     0.52292   0.69462   0.98413   0.00000  Uiso   1.00
C144   C     0.35006   0.93389   0.37526   0.00000  Uiso   1.00
C145   C     0.34374   0.92944   0.51202   0.00000  Uiso   1.00
C146   C     0.36983   0.99053   0.58629   0.00000  Uiso   1.00
C147   C     0.40374   0.07454   0.75069   0.00000  Uiso   1.00
C148   C     0.28662   0.92252   0.18016   0.00000  Uiso   1.00
C149   C     0.22697   0.90851   0.15291   0.00000  Uiso   1.00
C150   C     0.19965   0.96004   0.06293   0.00000  Uiso   1.00
C151   C     0.13508   0.02638   0.92442   0.00000  Uiso   1.00
C152   C     0.38268   0.99003   0.16403   0.00000  Uiso   1.00
C153   C     0.40943   0.90744   0.13382   0.00000  Uiso   1.00
C154   C     0.45919   0.89313   0.05571   0.00000  Uiso   1.00
C155   C     0.47660   0.81325   0.04018   0.00000  Uiso   1.00
C156   C     0.38131   0.99713   0.31482   0.00000  Uiso   1.00
C157   C     0.40740   0.05824   0.38890   0.00000  Uiso   1.00
C158   C     0.40114   0.05388   0.52574   0.00000  Uiso   1.00
C159   C     0.31787   0.98575   0.11972   0.00000  Uiso   1.00
C160   C     0.29063   0.03731   0.02978   0.00000  Uiso   1.00
C161   C     0.23096   0.02339   0.00238   0.00000  Uiso   1.00
H162   H     0.30081   0.82438   0.32238   0.00000  Uiso   1.00
H163   H     0.37133   0.71541   0.22564   0.00000  Uiso   1.00
H164   H     0.31955   0.88050   0.55877   0.00000  Uiso   1.00
H165   H     0.20280   0.85958   0.19970   0.00000  Uiso   1.00
H166   H     0.46332   0.62248   0.09177   0.00000  Uiso   1.00
H167   H     0.35411   0.97061   0.79419   0.00000  Uiso   1.00
H168   H     0.10792   0.92648   0.03703   0.00000  Uiso   1.00
H169   H     0.40701   0.03926   0.11697   0.00000  Uiso   1.00
H170   H     0.48336   0.94208   0.00895   0.00000  Uiso   1.00
H171   H     0.43158   0.10717   0.34209   0.00000  Uiso   1.00
H172   H     0.31483   0.08624   0.98302   0.00000  Uiso   1.00
H173   H     0.55425   0.80645   0.91591   0.00000  Uiso   1.00
H174   H     0.44504   0.15458   0.61833   0.00000  Uiso   1.00
H175   H     0.19885   0.11045   0.86117   0.00000  Uiso   1.00
O176   O     0.55710   0.64666   0.93653   0.00000  Uiso   1.00
O177   O     0.41382   0.10339   0.85807   0.00000  Uiso   1.00
O178   O     0.09083   0.04549   0.86469   0.00000  Uiso   1.00
N179   N     0.47423   0.67912   0.06518   0.00000  Uiso   1.00
N180   N     0.37214   0.00458   0.72191   0.00000  Uiso   1.00
N181   N     0.14197   0.96334   0.01405   0.00000  Uiso   1.00
N182   N     0.52316   0.77811   0.97055   0.00000  Uiso   1.00
N183   N     0.42107   0.10358   0.62728   0.00000  Uiso   1.00
N184   N     0.19090   0.06233   0.91942   0.00000  Uiso   1.00
