data_job_01689
_audit_creation_date              2018-12-19
_audit_creation_method            'Materials Studio'
_symmetry_space_group_name_H-M    'P1'
_symmetry_Int_Tables_number       1
_symmetry_cell_setting            triclinic
loop_
_symmetry_equiv_pos_as_xyz
  x,y,z
_cell_length_a                    12.3439
_cell_length_b                    9.7938
_cell_length_c                    26.1506
_cell_angle_alpha                 90.0000
_cell_angle_beta                  128.7659
_cell_angle_gamma                 90.0000
loop_
_atom_site_label
_atom_site_type_symbol
_atom_site_fract_x
_atom_site_fract_y
_atom_site_fract_z
_atom_site_U_iso_or_equiv
_atom_site_adp_type
_atom_site_occupancy
C1     C     0.53376   0.56856   0.79793   0.00000  Uiso   1.00
C2     C     0.58291   0.67122   0.85239   0.00000  Uiso   1.00
C3     C     0.58432   0.81207   0.84704   0.00000  Uiso   1.00
C4     C     0.63321   0.88828   0.90249   0.00000  Uiso   1.00
C5     C     0.70262   0.05719   0.97814   0.00000  Uiso   1.00
C6     C     0.65539   0.47160   0.82504   0.00000  Uiso   1.00
C7     C     0.71773   0.44461   0.79669   0.00000  Uiso   1.00
C8     C     0.82762   0.35276   0.82910   0.00000  Uiso   1.00
C9     C     0.00949   0.21169   0.86227   0.00000  Uiso   1.00
C10    C     0.42076   0.48395   0.79034   0.00000  Uiso   1.00
C11    C     0.28583   0.46730   0.73281   0.00000  Uiso   1.00
C12    C     0.19819   0.38581   0.73602   0.00000  Uiso   1.00
C13    C     0.01577   0.26391   0.71531   0.00000  Uiso   1.00
C14    C     0.61805   0.45341   0.90590   0.00000  Uiso   1.00
C15    C     0.62869   0.60867   0.91104   0.00000  Uiso   1.00
C16    C     0.67758   0.68468   0.96650   0.00000  Uiso   1.00
C17    C     0.67906   0.82562   0.96124   0.00000  Uiso   1.00
C18    C     0.70117   0.40906   0.88368   0.00000  Uiso   1.00
C19    C     0.81098   0.31722   0.91615   0.00000  Uiso   1.00
C20    C     0.87348   0.29010   0.88786   0.00000  Uiso   1.00
C21    C     0.46654   0.42141   0.84899   0.00000  Uiso   1.00
C22    C     0.37909   0.33992   0.85228   0.00000  Uiso   1.00
C23    C     0.24405   0.32315   0.79477   0.00000  Uiso   1.00
H24    H     0.49813   0.61724   0.75227   0.00000  Uiso   1.00
H25    H     0.54890   0.86043   0.80165   0.00000  Uiso   1.00
H26    H     0.68227   0.49302   0.75130   0.00000  Uiso   1.00
H27    H     0.25044   0.51571   0.68744   0.00000  Uiso   1.00
H28    H     0.62543   0.10247   0.88227   0.00000  Uiso   1.00
H29    H     0.90662   0.32772   0.77609   0.00000  Uiso   1.00
H30    H     0.99603   0.37557   0.64143   0.00000  Uiso   1.00
H31    H     0.65369   0.40472   0.95156   0.00000  Uiso   1.00
H32    H     0.71300   0.63625   0.01188   0.00000  Uiso   1.00
H33    H     0.84638   0.26884   0.96153   0.00000  Uiso   1.00
H34    H     0.41455   0.29153   0.89767   0.00000  Uiso   1.00
H35    H     0.75862   0.92052   0.05290   0.00000  Uiso   1.00
H36    H     0.03982   0.14576   0.94672   0.00000  Uiso   1.00
H37    H     0.12922   0.19362   0.81206   0.00000  Uiso   1.00
O38    O     0.72828   0.16764   0.00368   0.00000  Uiso   1.00
O39    O     0.09717   0.15117   0.86437   0.00000  Uiso   1.00
O40    O     0.90250   0.21396   0.68770   0.00000  Uiso   1.00
N41    N     0.64861   0.02788   0.91415   0.00000  Uiso   1.00
N42    N     0.91153   0.30354   0.81488   0.00000  Uiso   1.00
N43    N     0.06021   0.34825   0.68898   0.00000  Uiso   1.00
N44    N     0.72028   0.92997   0.00596   0.00000  Uiso   1.00
N45    N     0.98320   0.20564   0.90670   0.00000  Uiso   1.00
N46    N     0.13188   0.25034   0.78079   0.00000  Uiso   1.00
C47    C     0.46624   0.06856   0.70207   0.00000  Uiso   1.00
C48    C     0.41709   0.17122   0.64761   0.00000  Uiso   1.00
C49    C     0.41568   0.31207   0.65296   0.00000  Uiso   1.00
C50    C     0.36679   0.38828   0.59751   0.00000  Uiso   1.00
C51    C     0.29738   0.55719   0.52186   0.00000  Uiso   1.00
C52    C     0.34461   0.97160   0.67496   0.00000  Uiso   1.00
C53    C     0.28227   0.94461   0.70331   0.00000  Uiso   1.00
C54    C     0.17238   0.85276   0.67090   0.00000  Uiso   1.00
C55    C     0.99051   0.71169   0.63773   0.00000  Uiso   1.00
C56    C     0.57924   0.98395   0.70966   0.00000  Uiso   1.00
C57    C     0.71417   0.96730   0.76719   0.00000  Uiso   1.00
C58    C     0.80181   0.88581   0.76398   0.00000  Uiso   1.00
C59    C     0.98423   0.76391   0.78469   0.00000  Uiso   1.00
C60    C     0.38195   0.95341   0.59410   0.00000  Uiso   1.00
C61    C     0.37131   0.10867   0.58896   0.00000  Uiso   1.00
C62    C     0.32242   0.18468   0.53350   0.00000  Uiso   1.00
C63    C     0.32094   0.32562   0.53876   0.00000  Uiso   1.00
C64    C     0.29883   0.90906   0.61632   0.00000  Uiso   1.00
C65    C     0.18902   0.81722   0.58385   0.00000  Uiso   1.00
C66    C     0.12652   0.79010   0.61214   0.00000  Uiso   1.00
C67    C     0.53346   0.92141   0.65101   0.00000  Uiso   1.00
C68    C     0.62091   0.83992   0.64772   0.00000  Uiso   1.00
C69    C     0.75595   0.82315   0.70523   0.00000  Uiso   1.00
H70    H     0.50187   0.11724   0.74773   0.00000  Uiso   1.00
H71    H     0.45110   0.36043   0.69835   0.00000  Uiso   1.00
H72    H     0.31773   0.99302   0.74870   0.00000  Uiso   1.00
H73    H     0.74956   0.01571   0.81256   0.00000  Uiso   1.00
H74    H     0.37457   0.60247   0.61773   0.00000  Uiso   1.00
H75    H     0.09338   0.82772   0.72391   0.00000  Uiso   1.00
H76    H     0.00397   0.87557   0.85857   0.00000  Uiso   1.00
H77    H     0.34631   0.90472   0.54844   0.00000  Uiso   1.00
H78    H     0.28700   0.13625   0.48812   0.00000  Uiso   1.00
H79    H     0.15362   0.76884   0.53847   0.00000  Uiso   1.00
H80    H     0.58545   0.79153   0.60233   0.00000  Uiso   1.00
H81    H     0.24138   0.42052   0.44710   0.00000  Uiso   1.00
H82    H     0.96018   0.64576   0.55328   0.00000  Uiso   1.00
H83    H     0.87078   0.69362   0.68794   0.00000  Uiso   1.00
O84    O     0.27172   0.66764   0.49632   0.00000  Uiso   1.00
O85    O     0.90283   0.65117   0.63563   0.00000  Uiso   1.00
O86    O     0.09750   0.71396   0.81230   0.00000  Uiso   1.00
N87    N     0.35139   0.52788   0.58585   0.00000  Uiso   1.00
N88    N     0.08847   0.80354   0.68512   0.00000  Uiso   1.00
N89    N     0.93979   0.84825   0.81102   0.00000  Uiso   1.00
N90    N     0.27972   0.42997   0.49404   0.00000  Uiso   1.00
N91    N     0.01680   0.70564   0.59330   0.00000  Uiso   1.00
N92    N     0.86812   0.75034   0.71921   0.00000  Uiso   1.00
C93    C     0.46624   0.43144   0.20207   0.00000  Uiso   1.00
C94    C     0.41709   0.32878   0.14761   0.00000  Uiso   1.00
C95    C     0.41568   0.18793   0.15296   0.00000  Uiso   1.00
C96    C     0.36679   0.11172   0.09751   0.00000  Uiso   1.00
C97    C     0.29738   0.94281   0.02186   0.00000  Uiso   1.00
C98    C     0.34461   0.52840   0.17496   0.00000  Uiso   1.00
C99    C     0.28227   0.55539   0.20331   0.00000  Uiso   1.00
C100   C     0.17238   0.64724   0.17090   0.00000  Uiso   1.00
C101   C     0.99051   0.78831   0.13773   0.00000  Uiso   1.00
C102   C     0.57924   0.51605   0.20966   0.00000  Uiso   1.00
C103   C     0.71417   0.53270   0.26719   0.00000  Uiso   1.00
C104   C     0.80181   0.61419   0.26398   0.00000  Uiso   1.00
C105   C     0.98423   0.73609   0.28469   0.00000  Uiso   1.00
C106   C     0.38195   0.54659   0.09410   0.00000  Uiso   1.00
C107   C     0.37131   0.39133   0.08896   0.00000  Uiso   1.00
C108   C     0.32242   0.31532   0.03350   0.00000  Uiso   1.00
C109   C     0.32094   0.17438   0.03876   0.00000  Uiso   1.00
C110   C     0.29883   0.59094   0.11632   0.00000  Uiso   1.00
C111   C     0.18902   0.68278   0.08385   0.00000  Uiso   1.00
C112   C     0.12652   0.70990   0.11214   0.00000  Uiso   1.00
C113   C     0.53346   0.57859   0.15101   0.00000  Uiso   1.00
C114   C     0.62091   0.66008   0.14772   0.00000  Uiso   1.00
C115   C     0.75595   0.67685   0.20523   0.00000  Uiso   1.00
H116   H     0.50187   0.38276   0.24773   0.00000  Uiso   1.00
H117   H     0.45110   0.13957   0.19835   0.00000  Uiso   1.00
H118   H     0.31773   0.50698   0.24870   0.00000  Uiso   1.00
H119   H     0.74956   0.48429   0.31256   0.00000  Uiso   1.00
H120   H     0.37457   0.89753   0.11773   0.00000  Uiso   1.00
H121   H     0.09338   0.67228   0.22391   0.00000  Uiso   1.00
H122   H     0.00397   0.62443   0.35857   0.00000  Uiso   1.00
H123   H     0.34631   0.59528   0.04844   0.00000  Uiso   1.00
H124   H     0.28700   0.36375   0.98812   0.00000  Uiso   1.00
H125   H     0.15362   0.73116   0.03847   0.00000  Uiso   1.00
H126   H     0.58545   0.70847   0.10233   0.00000  Uiso   1.00
H127   H     0.24138   0.07948   0.94710   0.00000  Uiso   1.00
H128   H     0.96018   0.85424   0.05328   0.00000  Uiso   1.00
H129   H     0.87078   0.80638   0.18794   0.00000  Uiso   1.00
O130   O     0.27172   0.83236   0.99632   0.00000  Uiso   1.00
O131   O     0.90283   0.84883   0.13563   0.00000  Uiso   1.00
O132   O     0.09750   0.78604   0.31230   0.00000  Uiso   1.00
N133   N     0.35139   0.97212   0.08585   0.00000  Uiso   1.00
N134   N     0.08847   0.69646   0.18512   0.00000  Uiso   1.00
N135   N     0.93979   0.65175   0.31102   0.00000  Uiso   1.00
N136   N     0.27972   0.07003   0.99404   0.00000  Uiso   1.00
N137   N     0.01680   0.79436   0.09330   0.00000  Uiso   1.00
N138   N     0.86812   0.74966   0.21921   0.00000  Uiso   1.00
C139   C     0.53376   0.93144   0.29793   0.00000  Uiso   1.00
C140   C     0.58291   0.82878   0.35239   0.00000  Uiso   1.00
C141   C     0.58432   0.68793   0.34704   0.00000  Uiso   1.00
C142   C     0.63321   0.61172   0.40249   0.00000  Uiso   1.00
C143   C     0.70262   0.44281   0.47814   0.00000  Uiso   1.00
C144   C     0.65539   0.02840   0.32504   0.00000  Uiso   1.00
C145   C     0.71773   0.05539   0.29669   0.00000  Uiso   1.00
C146   C     0.82762   0.14724   0.32910   0.00000  Uiso   1.00
C147   C     0.00949   0.28831   0.36227   0.00000  Uiso   1.00
C148   C     0.42076   0.01605   0.29034   0.00000  Uiso   1.00
C149   C     0.28583   0.03270   0.23281   0.00000  Uiso   1.00
C150   C     0.19819   0.11419   0.23602   0.00000  Uiso   1.00
C151   C     0.01577   0.23609   0.21531   0.00000  Uiso   1.00
C152   C     0.61805   0.04659   0.40590   0.00000  Uiso   1.00
C153   C     0.62869   0.89133   0.41104   0.00000  Uiso   1.00
C154   C     0.67758   0.81532   0.46650   0.00000  Uiso   1.00
C155   C     0.67906   0.67438   0.46124   0.00000  Uiso   1.00
C156   C     0.70117   0.09094   0.38368   0.00000  Uiso   1.00
C157   C     0.81098   0.18278   0.41615   0.00000  Uiso   1.00
C158   C     0.87348   0.20990   0.38786   0.00000  Uiso   1.00
C159   C     0.46654   0.07859   0.34899   0.00000  Uiso   1.00
C160   C     0.37909   0.16008   0.35228   0.00000  Uiso   1.00
C161   C     0.24405   0.17685   0.29477   0.00000  Uiso   1.00
H162   H     0.49813   0.88276   0.25227   0.00000  Uiso   1.00
H163   H     0.54890   0.63957   0.30165   0.00000  Uiso   1.00
H164   H     0.68227   0.00698   0.25130   0.00000  Uiso   1.00
H165   H     0.25044   0.98429   0.18744   0.00000  Uiso   1.00
H166   H     0.62543   0.39753   0.38227   0.00000  Uiso   1.00
H167   H     0.90662   0.17228   0.27609   0.00000  Uiso   1.00
H168   H     0.99603   0.12443   0.14143   0.00000  Uiso   1.00
H169   H     0.65369   0.09528   0.45156   0.00000  Uiso   1.00
H170   H     0.71300   0.86375   0.51188   0.00000  Uiso   1.00
H171   H     0.84638   0.23116   0.46153   0.00000  Uiso   1.00
H172   H     0.41455   0.20847   0.39767   0.00000  Uiso   1.00
H173   H     0.75862   0.57948   0.55290   0.00000  Uiso   1.00
H174   H     0.03982   0.35424   0.44672   0.00000  Uiso   1.00
H175   H     0.12922   0.30638   0.31206   0.00000  Uiso   1.00
O176   O     0.72828   0.33236   0.50368   0.00000  Uiso   1.00
O177   O     0.09717   0.34883   0.36437   0.00000  Uiso   1.00
O178   O     0.90250   0.28604   0.18770   0.00000  Uiso   1.00
N179   N     0.64861   0.47212   0.41415   0.00000  Uiso   1.00
N180   N     0.91153   0.19646   0.31488   0.00000  Uiso   1.00
N181   N     0.06021   0.15175   0.18898   0.00000  Uiso   1.00
N182   N     0.72028   0.57003   0.50596   0.00000  Uiso   1.00
N183   N     0.98320   0.29436   0.40670   0.00000  Uiso   1.00
N184   N     0.13188   0.24966   0.28079   0.00000  Uiso   1.00
