data_job_01973
_audit_creation_date              2018-12-19
_audit_creation_method            'Materials Studio'
_symmetry_space_group_name_H-M    'P1'
_symmetry_Int_Tables_number       1
_symmetry_cell_setting            triclinic
loop_
_symmetry_equiv_pos_as_xyz
  x,y,z
_cell_length_a                    19.7430
_cell_length_b                    14.7532
_cell_length_c                    9.5704
_cell_angle_alpha                 90.0000
_cell_angle_beta                  102.4626
_cell_angle_gamma                 90.0000
loop_
_atom_site_label
_atom_site_type_symbol
_atom_site_fract_x
_atom_site_fract_y
_atom_site_fract_z
_atom_site_U_iso_or_equiv
_atom_site_adp_type
_atom_site_occupancy
C1     C     0.33131   0.67274   0.39330   0.00000  Uiso   1.00
C2     C     0.33668   0.77254   0.35569   0.00000  Uiso   1.00
C3     C     0.38527   0.80974   0.28701   0.00000  Uiso   1.00
C4     C     0.38154   0.90252   0.26231   0.00000  Uiso   1.00
C5     C     0.39759   0.04935   0.19751   0.00000  Uiso   1.00
C6     C     0.33584   0.66957   0.55432   0.00000  Uiso   1.00
C7     C     0.38373   0.62018   0.65264   0.00000  Uiso   1.00
C8     C     0.37928   0.62628   0.79515   0.00000  Uiso   1.00
C9     C     0.39400   0.61319   0.03871   0.00000  Uiso   1.00
C10    C     0.25764   0.64369   0.32356   0.00000  Uiso   1.00
C11    C     0.23978   0.57253   0.22787   0.00000  Uiso   1.00
C12    C     0.16949   0.55682   0.17612   0.00000  Uiso   1.00
C13    C     0.06280   0.50355   0.06137   0.00000  Uiso   1.00
C14    C     0.23826   0.77137   0.47159   0.00000  Uiso   1.00
C15    C     0.28614   0.82612   0.39822   0.00000  Uiso   1.00
C16    C     0.28233   0.91887   0.37362   0.00000  Uiso   1.00
C17    C     0.33091   0.95620   0.30491   0.00000  Uiso   1.00
C18    C     0.28531   0.72314   0.59685   0.00000  Uiso   1.00
C19    C     0.28078   0.72931   0.73925   0.00000  Uiso   1.00
C20    C     0.32865   0.67995   0.83775   0.00000  Uiso   1.00
C21    C     0.20710   0.69727   0.36607   0.00000  Uiso   1.00
C22    C     0.13683   0.68166   0.31447   0.00000  Uiso   1.00
C23    C     0.11886   0.61049   0.21872   0.00000  Uiso   1.00
H24    H     0.37066   0.63103   0.36021   0.00000  Uiso   1.00
H25    H     0.42438   0.76826   0.25413   0.00000  Uiso   1.00
H26    H     0.42283   0.57872   0.61970   0.00000  Uiso   1.00
H27    H     0.27890   0.53108   0.19499   0.00000  Uiso   1.00
H28    H     0.46167   0.94404   0.15532   0.00000  Uiso   1.00
H29    H     0.45838   0.54436   0.92614   0.00000  Uiso   1.00
H30    H     0.15489   0.44390   0.03055   0.00000  Uiso   1.00
H31    H     0.19891   0.81309   0.50470   0.00000  Uiso   1.00
H32    H     0.24321   0.96031   0.40654   0.00000  Uiso   1.00
H33    H     0.24166   0.77077   0.77211   0.00000  Uiso   1.00
H34    H     0.09774   0.72314   0.34740   0.00000  Uiso   1.00
H35    H     0.31463   0.09992   0.27903   0.00000  Uiso   1.00
H36    H     0.31134   0.70024   0.04985   0.00000  Uiso   1.00
H37    H     0.00785   0.59978   0.15426   0.00000  Uiso   1.00
O38    O     0.42041   0.11555   0.15004   0.00000  Uiso   1.00
O39    O     0.41609   0.59117   0.16131   0.00000  Uiso   1.00
O40    O     0.01791   0.45938   0.98632   0.00000  Uiso   1.00
N41    N     0.42098   0.96051   0.19788   0.00000  Uiso   1.00
N42    N     0.41791   0.58685   0.91855   0.00000  Uiso   1.00
N43    N     0.13417   0.49292   0.08128   0.00000  Uiso   1.00
N44    N     0.34186   0.04439   0.26444   0.00000  Uiso   1.00
N45    N     0.33879   0.67073   0.98512   0.00000  Uiso   1.00
N46    N     0.05505   0.57680   0.14785   0.00000  Uiso   1.00
C47    C     0.83131   0.17274   0.39330   0.00000  Uiso   1.00
C48    C     0.83668   0.27254   0.35569   0.00000  Uiso   1.00
C49    C     0.88527   0.30974   0.28701   0.00000  Uiso   1.00
C50    C     0.88154   0.40252   0.26231   0.00000  Uiso   1.00
C51    C     0.89759   0.54935   0.19751   0.00000  Uiso   1.00
C52    C     0.83584   0.16957   0.55432   0.00000  Uiso   1.00
C53    C     0.88373   0.12018   0.65264   0.00000  Uiso   1.00
C54    C     0.87928   0.12628   0.79515   0.00000  Uiso   1.00
C55    C     0.89400   0.11319   0.03871   0.00000  Uiso   1.00
C56    C     0.75764   0.14369   0.32356   0.00000  Uiso   1.00
C57    C     0.73978   0.07253   0.22787   0.00000  Uiso   1.00
C58    C     0.66949   0.05682   0.17612   0.00000  Uiso   1.00
C59    C     0.56280   0.00355   0.06137   0.00000  Uiso   1.00
C60    C     0.73826   0.27137   0.47159   0.00000  Uiso   1.00
C61    C     0.78614   0.32612   0.39822   0.00000  Uiso   1.00
C62    C     0.78233   0.41887   0.37362   0.00000  Uiso   1.00
C63    C     0.83091   0.45620   0.30491   0.00000  Uiso   1.00
C64    C     0.78531   0.22314   0.59685   0.00000  Uiso   1.00
C65    C     0.78078   0.22931   0.73925   0.00000  Uiso   1.00
C66    C     0.82865   0.17995   0.83775   0.00000  Uiso   1.00
C67    C     0.70710   0.19727   0.36607   0.00000  Uiso   1.00
C68    C     0.63683   0.18166   0.31447   0.00000  Uiso   1.00
C69    C     0.61886   0.11049   0.21872   0.00000  Uiso   1.00
H70    H     0.87066   0.13103   0.36021   0.00000  Uiso   1.00
H71    H     0.92438   0.26826   0.25413   0.00000  Uiso   1.00
H72    H     0.92283   0.07872   0.61970   0.00000  Uiso   1.00
H73    H     0.77890   0.03108   0.19499   0.00000  Uiso   1.00
H74    H     0.96167   0.44404   0.15532   0.00000  Uiso   1.00
H75    H     0.95838   0.04436   0.92614   0.00000  Uiso   1.00
H76    H     0.65489   0.94390   0.03055   0.00000  Uiso   1.00
H77    H     0.69891   0.31309   0.50470   0.00000  Uiso   1.00
H78    H     0.74321   0.46031   0.40654   0.00000  Uiso   1.00
H79    H     0.74166   0.27077   0.77211   0.00000  Uiso   1.00
H80    H     0.59774   0.22314   0.34740   0.00000  Uiso   1.00
H81    H     0.81463   0.59992   0.27903   0.00000  Uiso   1.00
H82    H     0.81134   0.20024   0.04985   0.00000  Uiso   1.00
H83    H     0.50785   0.09978   0.15426   0.00000  Uiso   1.00
O84    O     0.92041   0.61555   0.15004   0.00000  Uiso   1.00
O85    O     0.91609   0.09117   0.16131   0.00000  Uiso   1.00
O86    O     0.51791   0.95938   0.98632   0.00000  Uiso   1.00
N87    N     0.92098   0.46051   0.19788   0.00000  Uiso   1.00
N88    N     0.91791   0.08685   0.91855   0.00000  Uiso   1.00
N89    N     0.63417   0.99292   0.08128   0.00000  Uiso   1.00
N90    N     0.84186   0.54439   0.26444   0.00000  Uiso   1.00
N91    N     0.83879   0.17073   0.98512   0.00000  Uiso   1.00
N92    N     0.55505   0.07680   0.14785   0.00000  Uiso   1.00
C93    C     0.33131   0.32726   0.89330   0.00000  Uiso   1.00
C94    C     0.33668   0.22746   0.85569   0.00000  Uiso   1.00
C95    C     0.38527   0.19026   0.78701   0.00000  Uiso   1.00
C96    C     0.38154   0.09748   0.76231   0.00000  Uiso   1.00
C97    C     0.39759   0.95065   0.69751   0.00000  Uiso   1.00
C98    C     0.33584   0.33043   0.05432   0.00000  Uiso   1.00
C99    C     0.38373   0.37982   0.15264   0.00000  Uiso   1.00
C100   C     0.37928   0.37372   0.29515   0.00000  Uiso   1.00
C101   C     0.39400   0.38681   0.53871   0.00000  Uiso   1.00
C102   C     0.25764   0.35631   0.82356   0.00000  Uiso   1.00
C103   C     0.23978   0.42747   0.72787   0.00000  Uiso   1.00
C104   C     0.16949   0.44318   0.67612   0.00000  Uiso   1.00
C105   C     0.06280   0.49645   0.56137   0.00000  Uiso   1.00
C106   C     0.23826   0.22863   0.97159   0.00000  Uiso   1.00
C107   C     0.28614   0.17388   0.89822   0.00000  Uiso   1.00
C108   C     0.28233   0.08113   0.87362   0.00000  Uiso   1.00
C109   C     0.33091   0.04380   0.80491   0.00000  Uiso   1.00
C110   C     0.28531   0.27686   0.09685   0.00000  Uiso   1.00
C111   C     0.28078   0.27069   0.23925   0.00000  Uiso   1.00
C112   C     0.32865   0.32005   0.33775   0.00000  Uiso   1.00
C113   C     0.20710   0.30273   0.86607   0.00000  Uiso   1.00
C114   C     0.13683   0.31834   0.81447   0.00000  Uiso   1.00
C115   C     0.11886   0.38951   0.71872   0.00000  Uiso   1.00
H116   H     0.37066   0.36897   0.86021   0.00000  Uiso   1.00
H117   H     0.42438   0.23174   0.75413   0.00000  Uiso   1.00
H118   H     0.42283   0.42128   0.11970   0.00000  Uiso   1.00
H119   H     0.27890   0.46892   0.69499   0.00000  Uiso   1.00
H120   H     0.46167   0.05596   0.65532   0.00000  Uiso   1.00
H121   H     0.45838   0.45564   0.42614   0.00000  Uiso   1.00
H122   H     0.15489   0.55610   0.53055   0.00000  Uiso   1.00
H123   H     0.19891   0.18691   0.00470   0.00000  Uiso   1.00
H124   H     0.24321   0.03969   0.90654   0.00000  Uiso   1.00
H125   H     0.24166   0.22923   0.27211   0.00000  Uiso   1.00
H126   H     0.09774   0.27686   0.84740   0.00000  Uiso   1.00
H127   H     0.31463   0.90008   0.77903   0.00000  Uiso   1.00
H128   H     0.31134   0.29976   0.54985   0.00000  Uiso   1.00
H129   H     0.00785   0.40022   0.65426   0.00000  Uiso   1.00
O130   O     0.42041   0.88445   0.65004   0.00000  Uiso   1.00
O131   O     0.41609   0.40883   0.66131   0.00000  Uiso   1.00
O132   O     0.01791   0.54062   0.48632   0.00000  Uiso   1.00
N133   N     0.42098   0.03949   0.69788   0.00000  Uiso   1.00
N134   N     0.41791   0.41315   0.41855   0.00000  Uiso   1.00
N135   N     0.13417   0.50708   0.58128   0.00000  Uiso   1.00
N136   N     0.34186   0.95561   0.76444   0.00000  Uiso   1.00
N137   N     0.33879   0.32927   0.48512   0.00000  Uiso   1.00
N138   N     0.05505   0.42320   0.64785   0.00000  Uiso   1.00
C139   C     0.83131   0.82726   0.89330   0.00000  Uiso   1.00
C140   C     0.83668   0.72746   0.85569   0.00000  Uiso   1.00
C141   C     0.88527   0.69026   0.78701   0.00000  Uiso   1.00
C142   C     0.88154   0.59748   0.76231   0.00000  Uiso   1.00
C143   C     0.89759   0.45065   0.69751   0.00000  Uiso   1.00
C144   C     0.83584   0.83043   0.05432   0.00000  Uiso   1.00
C145   C     0.88373   0.87982   0.15264   0.00000  Uiso   1.00
C146   C     0.87928   0.87372   0.29515   0.00000  Uiso   1.00
C147   C     0.89400   0.88681   0.53871   0.00000  Uiso   1.00
C148   C     0.75764   0.85631   0.82356   0.00000  Uiso   1.00
C149   C     0.73978   0.92747   0.72787   0.00000  Uiso   1.00
C150   C     0.66949   0.94318   0.67612   0.00000  Uiso   1.00
C151   C     0.56280   0.99645   0.56137   0.00000  Uiso   1.00
C152   C     0.73826   0.72863   0.97159   0.00000  Uiso   1.00
C153   C     0.78614   0.67388   0.89822   0.00000  Uiso   1.00
C154   C     0.78233   0.58113   0.87362   0.00000  Uiso   1.00
C155   C     0.83091   0.54380   0.80491   0.00000  Uiso   1.00
C156   C     0.78531   0.77686   0.09685   0.00000  Uiso   1.00
C157   C     0.78078   0.77069   0.23925   0.00000  Uiso   1.00
C158   C     0.82865   0.82005   0.33775   0.00000  Uiso   1.00
C159   C     0.70710   0.80273   0.86607   0.00000  Uiso   1.00
C160   C     0.63683   0.81834   0.81447   0.00000  Uiso   1.00
C161   C     0.61886   0.88951   0.71872   0.00000  Uiso   1.00
H162   H     0.87066   0.86897   0.86021   0.00000  Uiso   1.00
H163   H     0.92438   0.73174   0.75413   0.00000  Uiso   1.00
H164   H     0.92283   0.92128   0.11970   0.00000  Uiso   1.00
H165   H     0.77890   0.96892   0.69499   0.00000  Uiso   1.00
H166   H     0.96167   0.55596   0.65532   0.00000  Uiso   1.00
H167   H     0.95838   0.95564   0.42614   0.00000  Uiso   1.00
H168   H     0.65489   0.05610   0.53055   0.00000  Uiso   1.00
H169   H     0.69891   0.68691   0.00470   0.00000  Uiso   1.00
H170   H     0.74321   0.53969   0.90654   0.00000  Uiso   1.00
H171   H     0.74166   0.72923   0.27211   0.00000  Uiso   1.00
H172   H     0.59774   0.77686   0.84740   0.00000  Uiso   1.00
H173   H     0.81463   0.40008   0.77903   0.00000  Uiso   1.00
H174   H     0.81134   0.79976   0.54985   0.00000  Uiso   1.00
H175   H     0.50785   0.90022   0.65426   0.00000  Uiso   1.00
O176   O     0.92041   0.38445   0.65004   0.00000  Uiso   1.00
O177   O     0.91609   0.90883   0.66131   0.00000  Uiso   1.00
O178   O     0.51791   0.04062   0.48632   0.00000  Uiso   1.00
N179   N     0.92098   0.53949   0.69788   0.00000  Uiso   1.00
N180   N     0.91791   0.91315   0.41855   0.00000  Uiso   1.00
N181   N     0.63417   0.00708   0.58128   0.00000  Uiso   1.00
N182   N     0.84186   0.45561   0.76444   0.00000  Uiso   1.00
N183   N     0.83879   0.82927   0.48512   0.00000  Uiso   1.00
N184   N     0.55505   0.92320   0.64785   0.00000  Uiso   1.00
