data_job_06191
_audit_creation_date              2018-12-19
_audit_creation_method            'Materials Studio'
_symmetry_space_group_name_H-M    'P1'
_symmetry_Int_Tables_number       1
_symmetry_cell_setting            triclinic
loop_
_symmetry_equiv_pos_as_xyz
  x,y,z
_cell_length_a                    21.6603
_cell_length_b                    21.9324
_cell_length_c                    22.0308
_cell_angle_alpha                 109.0180
_cell_angle_beta                  109.3750
_cell_angle_gamma                 109.2980
loop_
_atom_site_label
_atom_site_type_symbol
_atom_site_fract_x
_atom_site_fract_y
_atom_site_fract_z
_atom_site_U_iso_or_equiv
_atom_site_adp_type
_atom_site_occupancy
C1     C     0.60546   0.68453   0.29454   0.00000  Uiso   1.00
C2     C     0.67841   0.68480   0.30326   0.00000  Uiso   1.00
C3     C     0.68420   0.63007   0.25555   0.00000  Uiso   1.00
C4     C     0.75603   0.64059   0.27322   0.00000  Uiso   1.00
C5     C     0.85961   0.63140   0.27717   0.00000  Uiso   1.00
C6     C     0.60470   0.69200   0.36554   0.00000  Uiso   1.00
C7     C     0.54851   0.64334   0.37018   0.00000  Uiso   1.00
C8     C     0.55829   0.65994   0.44028   0.00000  Uiso   1.00
C9     C     0.54740   0.66197   0.54092   0.00000  Uiso   1.00
C10    C     0.61363   0.75628   0.29447   0.00000  Uiso   1.00
C11    C     0.56494   0.76166   0.23937   0.00000  Uiso   1.00
C12    C     0.58222   0.83237   0.24964   0.00000  Uiso   1.00
C13    C     0.58520   0.93420   0.23993   0.00000  Uiso   1.00
C14    C     0.72272   0.80053   0.41075   0.00000  Uiso   1.00
C15    C     0.74210   0.74780   0.36638   0.00000  Uiso   1.00
C16    C     0.81394   0.75841   0.38412   0.00000  Uiso   1.00
C17    C     0.81984   0.70371   0.33645   0.00000  Uiso   1.00
C18    C     0.66839   0.75500   0.42866   0.00000  Uiso   1.00
C19    C     0.67825   0.77168   0.49876   0.00000  Uiso   1.00
C20    C     0.62209   0.72305   0.50351   0.00000  Uiso   1.00
C21    C     0.67732   0.81928   0.35759   0.00000  Uiso   1.00
C22    C     0.69468   0.89000   0.36795   0.00000  Uiso   1.00
C23    C     0.64603   0.89549   0.31287   0.00000  Uiso   1.00
H24    H     0.55588   0.63548   0.24540   0.00000  Uiso   1.00
H25    H     0.63490   0.58132   0.20671   0.00000  Uiso   1.00
H26    H     0.49923   0.59460   0.32133   0.00000  Uiso   1.00
H27    H     0.51566   0.71290   0.19053   0.00000  Uiso   1.00
H28    H     0.75060   0.54905   0.19167   0.00000  Uiso   1.00
H29    H     0.46452   0.57705   0.43334   0.00000  Uiso   1.00
H30    H     0.49915   0.82651   0.15753   0.00000  Uiso   1.00
H31    H     0.77231   0.84958   0.45990   0.00000  Uiso   1.00
H32    H     0.86321   0.80717   0.43298   0.00000  Uiso   1.00
H33    H     0.72754   0.82044   0.54759   0.00000  Uiso   1.00
H34    H     0.74397   0.93874   0.41680   0.00000  Uiso   1.00
H35    H     0.93591   0.73235   0.37531   0.00000  Uiso   1.00
H36    H     0.64982   0.76035   0.61699   0.00000  Uiso   1.00
H37    H     0.68446   0.00982   0.34118   0.00000  Uiso   1.00
O38    O     0.89915   0.60892   0.26192   0.00000  Uiso   1.00
O39    O     0.52381   0.64567   0.57899   0.00000  Uiso   1.00
O40    O     0.56926   0.97295   0.21714   0.00000  Uiso   1.00
N41    N     0.78174   0.59801   0.23857   0.00000  Uiso   1.00
N42    N     0.51427   0.62419   0.46453   0.00000  Uiso   1.00
N43    N     0.54665   0.85742   0.20668   0.00000  Uiso   1.00
N44    N     0.88145   0.69665   0.33739   0.00000  Uiso   1.00
N45    N     0.61398   0.72282   0.56334   0.00000  Uiso   1.00
N46    N     0.64636   0.95605   0.30550   0.00000  Uiso   1.00
C47    C     0.29419   0.60522   0.68504   0.00000  Uiso   1.00
C48    C     0.30243   0.67692   0.68480   0.00000  Uiso   1.00
C49    C     0.25357   0.68226   0.62978   0.00000  Uiso   1.00
C50    C     0.27097   0.75292   0.63984   0.00000  Uiso   1.00
C51    C     0.27405   0.85466   0.62988   0.00000  Uiso   1.00
C52    C     0.36690   0.60514   0.69329   0.00000  Uiso   1.00
C53    C     0.37225   0.55012   0.64542   0.00000  Uiso   1.00
C54    C     0.44392   0.56035   0.66264   0.00000  Uiso   1.00
C55    C     0.54709   0.55063   0.66590   0.00000  Uiso   1.00
C56    C     0.29397   0.61310   0.75633   0.00000  Uiso   1.00
C57    C     0.23800   0.56477   0.76146   0.00000  Uiso   1.00
C58    C     0.24827   0.58170   0.83176   0.00000  Uiso   1.00
C59    C     0.23819   0.58434   0.93289   0.00000  Uiso   1.00
C60    C     0.41197   0.72123   0.80075   0.00000  Uiso   1.00
C61    C     0.36640   0.73993   0.74764   0.00000  Uiso   1.00
C62    C     0.38388   0.81060   0.75780   0.00000  Uiso   1.00
C63    C     0.33505   0.81604   0.70280   0.00000  Uiso   1.00
C64    C     0.43087   0.66815   0.75614   0.00000  Uiso   1.00
C65    C     0.50255   0.67846   0.77344   0.00000  Uiso   1.00
C66    C     0.50801   0.62347   0.72560   0.00000  Uiso   1.00
C67    C     0.35793   0.67612   0.81918   0.00000  Uiso   1.00
C68    C     0.36830   0.69312   0.88948   0.00000  Uiso   1.00
C69    C     0.31236   0.64482   0.89472   0.00000  Uiso   1.00
H70    H     0.24440   0.55617   0.63611   0.00000  Uiso   1.00
H71    H     0.20408   0.63348   0.58114   0.00000  Uiso   1.00
H72    H     0.32274   0.50136   0.59679   0.00000  Uiso   1.00
H73    H     0.18850   0.51601   0.71282   0.00000  Uiso   1.00
H74    H     0.18761   0.74698   0.54791   0.00000  Uiso   1.00
H75    H     0.43780   0.46839   0.58091   0.00000  Uiso   1.00
H76    H     0.15474   0.49928   0.82557   0.00000  Uiso   1.00
H77    H     0.46177   0.77029   0.84968   0.00000  Uiso   1.00
H78    H     0.43338   0.85936   0.80644   0.00000  Uiso   1.00
H79    H     0.55204   0.72723   0.82208   0.00000  Uiso   1.00
H80    H     0.41781   0.74188   0.93811   0.00000  Uiso   1.00
H81    H     0.37372   0.93031   0.73076   0.00000  Uiso   1.00
H82    H     0.62391   0.65171   0.76376   0.00000  Uiso   1.00
H83    H     0.34086   0.68261   0.00843   0.00000  Uiso   1.00
O84    O     0.25808   0.89337   0.60702   0.00000  Uiso   1.00
O85    O     0.58632   0.52786   0.65032   0.00000  Uiso   1.00
O86    O     0.21496   0.56839   0.97132   0.00000  Uiso   1.00
N87    N     0.23530   0.77790   0.59688   0.00000  Uiso   1.00
N88    N     0.46921   0.51744   0.62773   0.00000  Uiso   1.00
N89    N     0.20459   0.54631   0.85647   0.00000  Uiso   1.00
N90    N     0.33544   0.87655   0.69528   0.00000  Uiso   1.00
N91    N     0.56936   0.61609   0.72612   0.00000  Uiso   1.00
N92    N     0.30473   0.64496   0.95487   0.00000  Uiso   1.00
C93    C     0.68304   0.29423   0.60469   0.00000  Uiso   1.00
C94    C     0.68263   0.30217   0.67593   0.00000  Uiso   1.00
C95    C     0.62674   0.25368   0.68101   0.00000  Uiso   1.00
C96    C     0.63680   0.27072   0.75126   0.00000  Uiso   1.00
C97    C     0.62647   0.27345   0.85231   0.00000  Uiso   1.00
C98    C     0.69079   0.36568   0.60410   0.00000  Uiso   1.00
C99    C     0.64178   0.37058   0.54878   0.00000  Uiso   1.00
C100   C     0.65872   0.44109   0.55856   0.00000  Uiso   1.00
C101   C     0.66108   0.54242   0.54806   0.00000  Uiso   1.00
C102   C     0.75604   0.29467   0.61335   0.00000  Uiso   1.00
C103   C     0.76188   0.23987   0.56580   0.00000  Uiso   1.00
C104   C     0.83376   0.25059   0.58335   0.00000  Uiso   1.00
C105   C     0.93742   0.24166   0.58722   0.00000  Uiso   1.00
C106   C     0.80029   0.41073   0.72040   0.00000  Uiso   1.00
C107   C     0.74632   0.36546   0.73878   0.00000  Uiso   1.00
C108   C     0.75647   0.38258   0.80903   0.00000  Uiso   1.00
C109   C     0.70061   0.33411   0.81422   0.00000  Uiso   1.00
C110   C     0.75448   0.42897   0.66694   0.00000  Uiso   1.00
C111   C     0.77150   0.49948   0.67680   0.00000  Uiso   1.00
C112   C     0.72252   0.50448   0.62152   0.00000  Uiso   1.00
C113   C     0.81972   0.35795   0.67620   0.00000  Uiso   1.00
C114   C     0.89161   0.36877   0.69382   0.00000  Uiso   1.00
C115   C     0.89756   0.31399   0.64631   0.00000  Uiso   1.00
H116   H     0.63346   0.24496   0.55576   0.00000  Uiso   1.00
H117   H     0.57746   0.20471   0.63236   0.00000  Uiso   1.00
H118   H     0.59250   0.32160   0.50015   0.00000  Uiso   1.00
H119   H     0.71259   0.19091   0.51717   0.00000  Uiso   1.00
H120   H     0.54346   0.18801   0.74500   0.00000  Uiso   1.00
H121   H     0.57518   0.43447   0.46621   0.00000  Uiso   1.00
H122   H     0.82840   0.15887   0.50209   0.00000  Uiso   1.00
H123   H     0.84987   0.46001   0.76933   0.00000  Uiso   1.00
H124   H     0.80576   0.43155   0.85766   0.00000  Uiso   1.00
H125   H     0.82079   0.54844   0.72544   0.00000  Uiso   1.00
H126   H     0.94088   0.41774   0.74246   0.00000  Uiso   1.00
H127   H     0.72875   0.37212   0.92786   0.00000  Uiso   1.00
H128   H     0.76047   0.61858   0.64907   0.00000  Uiso   1.00
H129   H     0.01369   0.34299   0.68496   0.00000  Uiso   1.00
O130   O     0.60316   0.25748   0.89068   0.00000  Uiso   1.00
O131   O     0.64479   0.58083   0.52491   0.00000  Uiso   1.00
O132   O     0.97701   0.21925   0.57199   0.00000  Uiso   1.00
N133   N     0.59313   0.23524   0.77592   0.00000  Uiso   1.00
N134   N     0.62278   0.46566   0.51527   0.00000  Uiso   1.00
N135   N     0.85952   0.20801   0.54881   0.00000  Uiso   1.00
N136   N     0.69283   0.33430   0.87431   0.00000  Uiso   1.00
N137   N     0.72248   0.56473   0.61367   0.00000  Uiso   1.00
N138   N     0.95922   0.30708   0.64720   0.00000  Uiso   1.00
C139   C     0.39454   0.31547   0.70546   0.00000  Uiso   1.00
C140   C     0.32159   0.31520   0.69674   0.00000  Uiso   1.00
C141   C     0.31580   0.36993   0.74445   0.00000  Uiso   1.00
C142   C     0.24397   0.35941   0.72678   0.00000  Uiso   1.00
C143   C     0.14039   0.36860   0.72283   0.00000  Uiso   1.00
C144   C     0.39530   0.30800   0.63446   0.00000  Uiso   1.00
C145   C     0.45149   0.35666   0.62982   0.00000  Uiso   1.00
C146   C     0.44171   0.34006   0.55972   0.00000  Uiso   1.00
C147   C     0.45260   0.33803   0.45908   0.00000  Uiso   1.00
C148   C     0.38637   0.24372   0.70553   0.00000  Uiso   1.00
C149   C     0.43506   0.23834   0.76063   0.00000  Uiso   1.00
C150   C     0.41778   0.16763   0.75036   0.00000  Uiso   1.00
C151   C     0.41480   0.06580   0.76007   0.00000  Uiso   1.00
C152   C     0.27728   0.19947   0.58925   0.00000  Uiso   1.00
C153   C     0.25790   0.25220   0.63362   0.00000  Uiso   1.00
C154   C     0.18606   0.24159   0.61588   0.00000  Uiso   1.00
C155   C     0.18016   0.29629   0.66355   0.00000  Uiso   1.00
C156   C     0.33161   0.24500   0.57134   0.00000  Uiso   1.00
C157   C     0.32175   0.22832   0.50124   0.00000  Uiso   1.00
C158   C     0.37791   0.27695   0.49649   0.00000  Uiso   1.00
C159   C     0.32268   0.18072   0.64241   0.00000  Uiso   1.00
C160   C     0.30532   0.11000   0.63205   0.00000  Uiso   1.00
C161   C     0.35398   0.10451   0.68712   0.00000  Uiso   1.00
H162   H     0.44412   0.36452   0.75460   0.00000  Uiso   1.00
H163   H     0.36510   0.41868   0.79329   0.00000  Uiso   1.00
H164   H     0.50077   0.40540   0.67867   0.00000  Uiso   1.00
H165   H     0.48434   0.28710   0.80947   0.00000  Uiso   1.00
H166   H     0.24940   0.45095   0.80833   0.00000  Uiso   1.00
H167   H     0.53548   0.42295   0.56666   0.00000  Uiso   1.00
H168   H     0.50085   0.17349   0.84247   0.00000  Uiso   1.00
H169   H     0.22769   0.15042   0.54010   0.00000  Uiso   1.00
H170   H     0.13679   0.19283   0.56702   0.00000  Uiso   1.00
H171   H     0.27246   0.17956   0.45241   0.00000  Uiso   1.00
H172   H     0.25603   0.06126   0.58320   0.00000  Uiso   1.00
H173   H     0.06409   0.26765   0.62469   0.00000  Uiso   1.00
H174   H     0.35018   0.23965   0.38301   0.00000  Uiso   1.00
H175   H     0.31554   0.99018   0.65882   0.00000  Uiso   1.00
O176   O     0.10085   0.39108   0.73808   0.00000  Uiso   1.00
O177   O     0.47619   0.35433   0.42101   0.00000  Uiso   1.00
O178   O     0.43074   0.02705   0.78286   0.00000  Uiso   1.00
N179   N     0.21826   0.40199   0.76143   0.00000  Uiso   1.00
N180   N     0.48573   0.37581   0.53547   0.00000  Uiso   1.00
N181   N     0.45335   0.14258   0.79332   0.00000  Uiso   1.00
N182   N     0.11855   0.30335   0.66261   0.00000  Uiso   1.00
N183   N     0.38602   0.27718   0.43666   0.00000  Uiso   1.00
N184   N     0.35364   0.04395   0.69450   0.00000  Uiso   1.00
C185   C     0.70581   0.39478   0.31496   0.00000  Uiso   1.00
C186   C     0.69757   0.32308   0.31520   0.00000  Uiso   1.00
C187   C     0.74643   0.31774   0.37022   0.00000  Uiso   1.00
C188   C     0.72903   0.24708   0.36016   0.00000  Uiso   1.00
C189   C     0.72595   0.14534   0.37012   0.00000  Uiso   1.00
C190   C     0.63310   0.39486   0.30671   0.00000  Uiso   1.00
C191   C     0.62775   0.44988   0.35458   0.00000  Uiso   1.00
C192   C     0.55608   0.43965   0.33736   0.00000  Uiso   1.00
C193   C     0.45291   0.44937   0.33410   0.00000  Uiso   1.00
C194   C     0.70604   0.38690   0.24367   0.00000  Uiso   1.00
C195   C     0.76200   0.43523   0.23854   0.00000  Uiso   1.00
C196   C     0.75173   0.41830   0.16824   0.00000  Uiso   1.00
C197   C     0.76181   0.41566   0.06711   0.00000  Uiso   1.00
C198   C     0.58803   0.27877   0.19925   0.00000  Uiso   1.00
C199   C     0.63360   0.26007   0.25235   0.00000  Uiso   1.00
C200   C     0.61612   0.18940   0.24220   0.00000  Uiso   1.00
C201   C     0.66495   0.18396   0.29720   0.00000  Uiso   1.00
C202   C     0.56913   0.33185   0.24386   0.00000  Uiso   1.00
C203   C     0.49745   0.32153   0.22656   0.00000  Uiso   1.00
C204   C     0.49199   0.37653   0.27440   0.00000  Uiso   1.00
C205   C     0.64207   0.32388   0.18082   0.00000  Uiso   1.00
C206   C     0.63170   0.30688   0.11052   0.00000  Uiso   1.00
C207   C     0.68764   0.35518   0.10528   0.00000  Uiso   1.00
H208   H     0.75560   0.44383   0.36389   0.00000  Uiso   1.00
H209   H     0.79592   0.36652   0.41886   0.00000  Uiso   1.00
H210   H     0.67726   0.49864   0.40321   0.00000  Uiso   1.00
H211   H     0.81150   0.48399   0.28718   0.00000  Uiso   1.00
H212   H     0.81239   0.25302   0.45209   0.00000  Uiso   1.00
H213   H     0.56220   0.53161   0.41909   0.00000  Uiso   1.00
H214   H     0.84526   0.50072   0.17443   0.00000  Uiso   1.00
H215   H     0.53823   0.22971   0.15032   0.00000  Uiso   1.00
H216   H     0.56662   0.14064   0.19356   0.00000  Uiso   1.00
H217   H     0.44796   0.27277   0.17792   0.00000  Uiso   1.00
H218   H     0.58219   0.25812   0.06189   0.00000  Uiso   1.00
H219   H     0.62628   0.06969   0.26924   0.00000  Uiso   1.00
H220   H     0.37609   0.34829   0.23624   0.00000  Uiso   1.00
H221   H     0.65914   0.31739   0.99157   0.00000  Uiso   1.00
O222   O     0.74192   0.10663   0.39298   0.00000  Uiso   1.00
O223   O     0.41368   0.47214   0.34968   0.00000  Uiso   1.00
O224   O     0.78504   0.43161   0.02868   0.00000  Uiso   1.00
N225   N     0.76470   0.22210   0.40312   0.00000  Uiso   1.00
N226   N     0.53079   0.48256   0.37227   0.00000  Uiso   1.00
N227   N     0.79541   0.45369   0.14353   0.00000  Uiso   1.00
N228   N     0.66456   0.12345   0.30472   0.00000  Uiso   1.00
N229   N     0.43064   0.38391   0.27387   0.00000  Uiso   1.00
N230   N     0.69527   0.35504   0.04513   0.00000  Uiso   1.00
C231   C     0.31696   0.70577   0.39531   0.00000  Uiso   1.00
C232   C     0.31737   0.69783   0.32407   0.00000  Uiso   1.00
C233   C     0.37326   0.74632   0.31899   0.00000  Uiso   1.00
C234   C     0.36320   0.72928   0.24874   0.00000  Uiso   1.00
C235   C     0.37354   0.72655   0.14769   0.00000  Uiso   1.00
C236   C     0.30921   0.63431   0.39590   0.00000  Uiso   1.00
C237   C     0.35822   0.62942   0.45122   0.00000  Uiso   1.00
C238   C     0.34128   0.55891   0.44144   0.00000  Uiso   1.00
C239   C     0.33892   0.45758   0.45194   0.00000  Uiso   1.00
C240   C     0.24396   0.70533   0.38665   0.00000  Uiso   1.00
C241   C     0.23812   0.76013   0.43420   0.00000  Uiso   1.00
C242   C     0.16624   0.74941   0.41665   0.00000  Uiso   1.00
C243   C     0.06258   0.75834   0.41278   0.00000  Uiso   1.00
C244   C     0.19971   0.58927   0.27960   0.00000  Uiso   1.00
C245   C     0.25368   0.63454   0.26122   0.00000  Uiso   1.00
C246   C     0.24353   0.61742   0.19097   0.00000  Uiso   1.00
C247   C     0.29939   0.66589   0.18578   0.00000  Uiso   1.00
C248   C     0.24552   0.57103   0.33306   0.00000  Uiso   1.00
C249   C     0.22850   0.50052   0.32320   0.00000  Uiso   1.00
C250   C     0.27748   0.49551   0.37848   0.00000  Uiso   1.00
C251   C     0.18028   0.64205   0.32380   0.00000  Uiso   1.00
C252   C     0.10839   0.63123   0.30618   0.00000  Uiso   1.00
C253   C     0.10244   0.68601   0.35369   0.00000  Uiso   1.00
H254   H     0.36654   0.75504   0.44424   0.00000  Uiso   1.00
H255   H     0.42254   0.79529   0.36764   0.00000  Uiso   1.00
H256   H     0.40750   0.67840   0.49985   0.00000  Uiso   1.00
H257   H     0.28741   0.80909   0.48283   0.00000  Uiso   1.00
H258   H     0.45654   0.81199   0.25500   0.00000  Uiso   1.00
H259   H     0.42482   0.56553   0.53379   0.00000  Uiso   1.00
H260   H     0.17160   0.84113   0.49791   0.00000  Uiso   1.00
H261   H     0.15013   0.53999   0.23066   0.00000  Uiso   1.00
H262   H     0.19424   0.56845   0.14234   0.00000  Uiso   1.00
H263   H     0.17921   0.45156   0.27456   0.00000  Uiso   1.00
H264   H     0.05912   0.58226   0.25754   0.00000  Uiso   1.00
H265   H     0.27125   0.62788   0.07214   0.00000  Uiso   1.00
H266   H     0.23953   0.38142   0.35093   0.00000  Uiso   1.00
H267   H     0.98631   0.65701   0.31504   0.00000  Uiso   1.00
O268   O     0.39684   0.74252   0.10932   0.00000  Uiso   1.00
O269   O     0.35521   0.41917   0.47509   0.00000  Uiso   1.00
O270   O     0.02299   0.78075   0.42801   0.00000  Uiso   1.00
N271   N     0.40687   0.76476   0.22408   0.00000  Uiso   1.00
N272   N     0.37722   0.53434   0.48473   0.00000  Uiso   1.00
N273   N     0.14048   0.79199   0.45119   0.00000  Uiso   1.00
N274   N     0.30717   0.66570   0.12568   0.00000  Uiso   1.00
N275   N     0.27752   0.43527   0.38633   0.00000  Uiso   1.00
N276   N     0.04078   0.69292   0.35280   0.00000  Uiso   1.00
