data_job_01246
_audit_creation_date              2018-12-19
_audit_creation_method            'Materials Studio'
_symmetry_space_group_name_H-M    'P1'
_symmetry_Int_Tables_number       1
_symmetry_cell_setting            triclinic
loop_
_symmetry_equiv_pos_as_xyz
  x,y,z
_cell_length_a                    7.6890
_cell_length_b                    21.6096
_cell_length_c                    16.7847
_cell_angle_alpha                 90.0000
_cell_angle_beta                  117.2409
_cell_angle_gamma                 90.0000
loop_
_atom_site_label
_atom_site_type_symbol
_atom_site_fract_x
_atom_site_fract_y
_atom_site_fract_z
_atom_site_U_iso_or_equiv
_atom_site_adp_type
_atom_site_occupancy
C1     C     0.83699   0.59895   0.75471   0.00000  Uiso   1.00
C2     C     0.85239   0.54942   0.69353   0.00000  Uiso   1.00
C3     C     0.70657   0.50777   0.64215   0.00000  Uiso   1.00
C4     C     0.74931   0.46606   0.59065   0.00000  Uiso   1.00
C5     C     0.74557   0.38913   0.49570   0.00000  Uiso   1.00
C6     C     0.00628   0.58713   0.84738   0.00000  Uiso   1.00
C7     C     0.98983   0.57721   0.92535   0.00000  Uiso   1.00
C8     C     0.16213   0.56726   0.00336   0.00000  Uiso   1.00
C9     C     0.39731   0.54893   0.14727   0.00000  Uiso   1.00
C10    C     0.88203   0.66029   0.72317   0.00000  Uiso   1.00
C11    C     0.76115   0.71188   0.69671   0.00000  Uiso   1.00
C12    C     0.82886   0.76353   0.67016   0.00000  Uiso   1.00
C13    C     0.87113   0.85878   0.62121   0.00000  Uiso   1.00
C14    C     0.17223   0.59895   0.75462   0.00000  Uiso   1.00
C15    C     0.03449   0.54942   0.69349   0.00000  Uiso   1.00
C16    C     0.07746   0.50777   0.64205   0.00000  Uiso   1.00
C17    C     0.93172   0.46606   0.59060   0.00000  Uiso   1.00
C18    C     0.18836   0.58713   0.84734   0.00000  Uiso   1.00
C19    C     0.36073   0.57721   0.92525   0.00000  Uiso   1.00
C20    C     0.34455   0.56726   0.00331   0.00000  Uiso   1.00
C21    C     0.06412   0.66029   0.72311   0.00000  Uiso   1.00
C22    C     0.13204   0.71187   0.69661   0.00000  Uiso   1.00
C23    C     0.01128   0.76353   0.67012   0.00000  Uiso   1.00
H24    H     0.69523   0.59895   0.75475   0.00000  Uiso   1.00
H25    H     0.56567   0.50778   0.64221   0.00000  Uiso   1.00
H26    H     0.84890   0.57721   0.92537   0.00000  Uiso   1.00
H27    H     0.62025   0.71186   0.69676   0.00000  Uiso   1.00
H28    H     0.50236   0.40668   0.51744   0.00000  Uiso   1.00
H29    H     0.09956   0.55311   0.11449   0.00000  Uiso   1.00
H30    H     0.61741   0.83704   0.63244   0.00000  Uiso   1.00
H31    H     0.31400   0.59895   0.75459   0.00000  Uiso   1.00
H32    H     0.21839   0.50778   0.64203   0.00000  Uiso   1.00
H33    H     0.50161   0.57721   0.92519   0.00000  Uiso   1.00
H34    H     0.27296   0.71186   0.69658   0.00000  Uiso   1.00
H35    H     0.03213   0.40668   0.51729   0.00000  Uiso   1.00
H36    H     0.62933   0.55311   0.11435   0.00000  Uiso   1.00
H37    H     0.14718   0.83704   0.63229   0.00000  Uiso   1.00
O38    O     0.69321   0.34669   0.44335   0.00000  Uiso   1.00
O39    O     0.47672   0.53882   0.22666   0.00000  Uiso   1.00
O40    O     0.84413   0.91132   0.59421   0.00000  Uiso   1.00
N41    N     0.64015   0.41920   0.53284   0.00000  Uiso   1.00
N42    N     0.19850   0.55610   0.09105   0.00000  Uiso   1.00
N43    N     0.74774   0.82155   0.64039   0.00000  Uiso   1.00
N44    N     0.92521   0.41920   0.53276   0.00000  Uiso   1.00
N45    N     0.48356   0.55610   0.09097   0.00000  Uiso   1.00
N46    N     0.03280   0.82155   0.64031   0.00000  Uiso   1.00
C47    C     0.16301   0.09895   0.74529   0.00000  Uiso   1.00
C48    C     0.14761   0.04942   0.80647   0.00000  Uiso   1.00
C49    C     0.29343   0.00777   0.85785   0.00000  Uiso   1.00
C50    C     0.25069   0.96606   0.90935   0.00000  Uiso   1.00
C51    C     0.25443   0.88913   0.00430   0.00000  Uiso   1.00
C52    C     0.99372   0.08713   0.65262   0.00000  Uiso   1.00
C53    C     0.01017   0.07721   0.57465   0.00000  Uiso   1.00
C54    C     0.83787   0.06726   0.49664   0.00000  Uiso   1.00
C55    C     0.60269   0.04893   0.35273   0.00000  Uiso   1.00
C56    C     0.11797   0.16029   0.77683   0.00000  Uiso   1.00
C57    C     0.23885   0.21188   0.80329   0.00000  Uiso   1.00
C58    C     0.17114   0.26353   0.82984   0.00000  Uiso   1.00
C59    C     0.12887   0.35878   0.87879   0.00000  Uiso   1.00
C60    C     0.82777   0.09895   0.74538   0.00000  Uiso   1.00
C61    C     0.96551   0.04942   0.80651   0.00000  Uiso   1.00
C62    C     0.92254   0.00777   0.85795   0.00000  Uiso   1.00
C63    C     0.06828   0.96606   0.90940   0.00000  Uiso   1.00
C64    C     0.81164   0.08713   0.65266   0.00000  Uiso   1.00
C65    C     0.63927   0.07721   0.57475   0.00000  Uiso   1.00
C66    C     0.65545   0.06726   0.49669   0.00000  Uiso   1.00
C67    C     0.93588   0.16029   0.77689   0.00000  Uiso   1.00
C68    C     0.86796   0.21187   0.80339   0.00000  Uiso   1.00
C69    C     0.98872   0.26353   0.82988   0.00000  Uiso   1.00
H70    H     0.30477   0.09895   0.74525   0.00000  Uiso   1.00
H71    H     0.43433   0.00778   0.85779   0.00000  Uiso   1.00
H72    H     0.15110   0.07721   0.57463   0.00000  Uiso   1.00
H73    H     0.37975   0.21186   0.80324   0.00000  Uiso   1.00
H74    H     0.49764   0.90668   0.98256   0.00000  Uiso   1.00
H75    H     0.90044   0.05311   0.38551   0.00000  Uiso   1.00
H76    H     0.38259   0.33704   0.86756   0.00000  Uiso   1.00
H77    H     0.68600   0.09895   0.74541   0.00000  Uiso   1.00
H78    H     0.78161   0.00778   0.85797   0.00000  Uiso   1.00
H79    H     0.49839   0.07721   0.57481   0.00000  Uiso   1.00
H80    H     0.72704   0.21186   0.80342   0.00000  Uiso   1.00
H81    H     0.96787   0.90668   0.98271   0.00000  Uiso   1.00
H82    H     0.37067   0.05311   0.38565   0.00000  Uiso   1.00
H83    H     0.85282   0.33704   0.86771   0.00000  Uiso   1.00
O84    O     0.30679   0.84669   0.05665   0.00000  Uiso   1.00
O85    O     0.52328   0.03882   0.27334   0.00000  Uiso   1.00
O86    O     0.15587   0.41132   0.90579   0.00000  Uiso   1.00
N87    N     0.35985   0.91920   0.96716   0.00000  Uiso   1.00
N88    N     0.80150   0.05610   0.40895   0.00000  Uiso   1.00
N89    N     0.25226   0.32155   0.85961   0.00000  Uiso   1.00
N90    N     0.07479   0.91920   0.96724   0.00000  Uiso   1.00
N91    N     0.51644   0.05610   0.40903   0.00000  Uiso   1.00
N92    N     0.96720   0.32155   0.85969   0.00000  Uiso   1.00
C93    C     0.16301   0.40105   0.24529   0.00000  Uiso   1.00
C94    C     0.14761   0.45058   0.30647   0.00000  Uiso   1.00
C95    C     0.29343   0.49223   0.35785   0.00000  Uiso   1.00
C96    C     0.25069   0.53394   0.40935   0.00000  Uiso   1.00
C97    C     0.25443   0.61087   0.50430   0.00000  Uiso   1.00
C98    C     0.99372   0.41287   0.15262   0.00000  Uiso   1.00
C99    C     0.01017   0.42279   0.07465   0.00000  Uiso   1.00
C100   C     0.83787   0.43274   0.99664   0.00000  Uiso   1.00
C101   C     0.60269   0.45107   0.85273   0.00000  Uiso   1.00
C102   C     0.11797   0.33971   0.27683   0.00000  Uiso   1.00
C103   C     0.23885   0.28812   0.30329   0.00000  Uiso   1.00
C104   C     0.17114   0.23647   0.32984   0.00000  Uiso   1.00
C105   C     0.12887   0.14122   0.37879   0.00000  Uiso   1.00
C106   C     0.82777   0.40105   0.24538   0.00000  Uiso   1.00
C107   C     0.96551   0.45058   0.30651   0.00000  Uiso   1.00
C108   C     0.92254   0.49223   0.35795   0.00000  Uiso   1.00
C109   C     0.06828   0.53394   0.40940   0.00000  Uiso   1.00
C110   C     0.81164   0.41287   0.15266   0.00000  Uiso   1.00
C111   C     0.63927   0.42279   0.07475   0.00000  Uiso   1.00
C112   C     0.65545   0.43274   0.99669   0.00000  Uiso   1.00
C113   C     0.93588   0.33971   0.27689   0.00000  Uiso   1.00
C114   C     0.86796   0.28813   0.30339   0.00000  Uiso   1.00
C115   C     0.98872   0.23647   0.32988   0.00000  Uiso   1.00
H116   H     0.30477   0.40105   0.24525   0.00000  Uiso   1.00
H117   H     0.43433   0.49222   0.35779   0.00000  Uiso   1.00
H118   H     0.15110   0.42279   0.07463   0.00000  Uiso   1.00
H119   H     0.37975   0.28814   0.30324   0.00000  Uiso   1.00
H120   H     0.49764   0.59332   0.48256   0.00000  Uiso   1.00
H121   H     0.90044   0.44689   0.88551   0.00000  Uiso   1.00
H122   H     0.38259   0.16296   0.36756   0.00000  Uiso   1.00
H123   H     0.68600   0.40105   0.24541   0.00000  Uiso   1.00
H124   H     0.78161   0.49222   0.35797   0.00000  Uiso   1.00
H125   H     0.49839   0.42279   0.07481   0.00000  Uiso   1.00
H126   H     0.72704   0.28814   0.30342   0.00000  Uiso   1.00
H127   H     0.96787   0.59332   0.48271   0.00000  Uiso   1.00
H128   H     0.37067   0.44689   0.88565   0.00000  Uiso   1.00
H129   H     0.85282   0.16296   0.36771   0.00000  Uiso   1.00
O130   O     0.30679   0.65331   0.55665   0.00000  Uiso   1.00
O131   O     0.52328   0.46118   0.77334   0.00000  Uiso   1.00
O132   O     0.15587   0.08868   0.40579   0.00000  Uiso   1.00
N133   N     0.35985   0.58080   0.46716   0.00000  Uiso   1.00
N134   N     0.80150   0.44390   0.90895   0.00000  Uiso   1.00
N135   N     0.25226   0.17845   0.35961   0.00000  Uiso   1.00
N136   N     0.07479   0.58080   0.46724   0.00000  Uiso   1.00
N137   N     0.51644   0.44390   0.90903   0.00000  Uiso   1.00
N138   N     0.96720   0.17845   0.35969   0.00000  Uiso   1.00
C139   C     0.83699   0.90105   0.25471   0.00000  Uiso   1.00
C140   C     0.85239   0.95058   0.19353   0.00000  Uiso   1.00
C141   C     0.70657   0.99223   0.14215   0.00000  Uiso   1.00
C142   C     0.74931   0.03394   0.09065   0.00000  Uiso   1.00
C143   C     0.74557   0.11087   0.99570   0.00000  Uiso   1.00
C144   C     0.00628   0.91287   0.34738   0.00000  Uiso   1.00
C145   C     0.98983   0.92279   0.42535   0.00000  Uiso   1.00
C146   C     0.16213   0.93274   0.50336   0.00000  Uiso   1.00
C147   C     0.39731   0.95107   0.64727   0.00000  Uiso   1.00
C148   C     0.88203   0.83971   0.22317   0.00000  Uiso   1.00
C149   C     0.76115   0.78812   0.19671   0.00000  Uiso   1.00
C150   C     0.82886   0.73647   0.17016   0.00000  Uiso   1.00
C151   C     0.87113   0.64122   0.12121   0.00000  Uiso   1.00
C152   C     0.17223   0.90105   0.25462   0.00000  Uiso   1.00
C153   C     0.03449   0.95058   0.19349   0.00000  Uiso   1.00
C154   C     0.07746   0.99223   0.14205   0.00000  Uiso   1.00
C155   C     0.93172   0.03394   0.09060   0.00000  Uiso   1.00
C156   C     0.18836   0.91287   0.34734   0.00000  Uiso   1.00
C157   C     0.36073   0.92279   0.42525   0.00000  Uiso   1.00
C158   C     0.34455   0.93274   0.50331   0.00000  Uiso   1.00
C159   C     0.06412   0.83971   0.22311   0.00000  Uiso   1.00
C160   C     0.13204   0.78813   0.19661   0.00000  Uiso   1.00
C161   C     0.01128   0.73647   0.17012   0.00000  Uiso   1.00
H162   H     0.69523   0.90105   0.25475   0.00000  Uiso   1.00
H163   H     0.56567   0.99222   0.14221   0.00000  Uiso   1.00
H164   H     0.84890   0.92279   0.42537   0.00000  Uiso   1.00
H165   H     0.62025   0.78814   0.19676   0.00000  Uiso   1.00
H166   H     0.50236   0.09332   0.01744   0.00000  Uiso   1.00
H167   H     0.09956   0.94689   0.61449   0.00000  Uiso   1.00
H168   H     0.61741   0.66296   0.13244   0.00000  Uiso   1.00
H169   H     0.31400   0.90105   0.25459   0.00000  Uiso   1.00
H170   H     0.21839   0.99222   0.14203   0.00000  Uiso   1.00
H171   H     0.50161   0.92279   0.42519   0.00000  Uiso   1.00
H172   H     0.27296   0.78814   0.19658   0.00000  Uiso   1.00
H173   H     0.03213   0.09332   0.01729   0.00000  Uiso   1.00
H174   H     0.62933   0.94689   0.61435   0.00000  Uiso   1.00
H175   H     0.14718   0.66296   0.13229   0.00000  Uiso   1.00
O176   O     0.69321   0.15331   0.94335   0.00000  Uiso   1.00
O177   O     0.47672   0.96118   0.72666   0.00000  Uiso   1.00
O178   O     0.84413   0.58868   0.09421   0.00000  Uiso   1.00
N179   N     0.64015   0.08080   0.03284   0.00000  Uiso   1.00
N180   N     0.19850   0.94390   0.59105   0.00000  Uiso   1.00
N181   N     0.74774   0.67845   0.14039   0.00000  Uiso   1.00
N182   N     0.92521   0.08080   0.03276   0.00000  Uiso   1.00
N183   N     0.48356   0.94390   0.59097   0.00000  Uiso   1.00
N184   N     0.03280   0.67845   0.14031   0.00000  Uiso   1.00
