data_job_03296
_audit_creation_date              2018-12-19
_audit_creation_method            'Materials Studio'
_symmetry_space_group_name_H-M    'P1'
_symmetry_Int_Tables_number       1
_symmetry_cell_setting            triclinic
loop_
_symmetry_equiv_pos_as_xyz
  x,y,z
_cell_length_a                    12.4942
_cell_length_b                    12.4942
_cell_length_c                    56.6309
_cell_angle_alpha                 90.0000
_cell_angle_beta                  90.0000
_cell_angle_gamma                 120.0000
loop_
_atom_site_label
_atom_site_type_symbol
_atom_site_fract_x
_atom_site_fract_y
_atom_site_fract_z
_atom_site_U_iso_or_equiv
_atom_site_adp_type
_atom_site_occupancy
C1     C     0.41929   0.95118   0.38033   0.00000  Uiso   1.00
C2     C     0.50996   0.08118   0.38905   0.00000  Uiso   1.00
C3     C     0.53297   0.19048   0.37829   0.00000  Uiso   1.00
C4     C     0.61929   0.29993   0.38902   0.00000  Uiso   1.00
C5     C     0.75083   0.50179   0.39940   0.00000  Uiso   1.00
C6     C     0.49425   0.88620   0.37733   0.00000  Uiso   1.00
C7     C     0.50403   0.83154   0.35673   0.00000  Uiso   1.00
C8     C     0.57712   0.77683   0.35760   0.00000  Uiso   1.00
C9     C     0.68420   0.67589   0.34980   0.00000  Uiso   1.00
C10    C     0.33070   0.88617   0.40076   0.00000  Uiso   1.00
C11    C     0.20296   0.83146   0.39985   0.00000  Uiso   1.00
C12    C     0.13835   0.77670   0.42045   0.00000  Uiso   1.00
C13    C     0.99149   0.67572   0.44903   0.00000  Uiso   1.00
C14    C     0.53168   0.95119   0.41851   0.00000  Uiso   1.00
C15    C     0.57100   0.08118   0.40979   0.00000  Uiso   1.00
C16    C     0.65731   0.19049   0.42054   0.00000  Uiso   1.00
C17    C     0.68044   0.29994   0.40980   0.00000  Uiso   1.00
C18    C     0.55529   0.88620   0.39807   0.00000  Uiso   1.00
C19    C     0.62838   0.83155   0.39898   0.00000  Uiso   1.00
C20    C     0.63828   0.77684   0.37838   0.00000  Uiso   1.00
C21    C     0.39174   0.88618   0.42150   0.00000  Uiso   1.00
C22    C     0.32731   0.83148   0.44210   0.00000  Uiso   1.00
C23    C     0.19950   0.77671   0.44123   0.00000  Uiso   1.00
H24    H     0.37177   0.95117   0.36418   0.00000  Uiso   1.00
H25    H     0.48571   0.19044   0.36224   0.00000  Uiso   1.00
H26    H     0.45677   0.83154   0.34068   0.00000  Uiso   1.00
H27    H     0.15576   0.83148   0.38380   0.00000  Uiso   1.00
H28    H     0.63899   0.45571   0.36923   0.00000  Uiso   1.00
H29    H     0.57794   0.69892   0.32378   0.00000  Uiso   1.00
H30    H     0.94318   0.69877   0.41471   0.00000  Uiso   1.00
H31    H     0.57921   0.95119   0.43466   0.00000  Uiso   1.00
H32    H     0.70454   0.19047   0.43659   0.00000  Uiso   1.00
H33    H     0.67560   0.83157   0.41503   0.00000  Uiso   1.00
H34    H     0.37458   0.83150   0.45815   0.00000  Uiso   1.00
H35    H     0.81661   0.45573   0.42958   0.00000  Uiso   1.00
H36    H     0.75554   0.69894   0.38412   0.00000  Uiso   1.00
H37    H     0.12079   0.69880   0.47505   0.00000  Uiso   1.00
O38    O     0.80653   0.61312   0.39940   0.00000  Uiso   1.00
O39    O     0.72641   0.62023   0.33977   0.00000  Uiso   1.00
O40    O     0.89362   0.62004   0.45906   0.00000  Uiso   1.00
N41    N     0.66358   0.42288   0.38317   0.00000  Uiso   1.00
N42    N     0.60651   0.71534   0.34068   0.00000  Uiso   1.00
N43    N     0.01306   0.71518   0.42568   0.00000  Uiso   1.00
N44    N     0.75915   0.42289   0.41564   0.00000  Uiso   1.00
N45    N     0.70208   0.71536   0.37315   0.00000  Uiso   1.00
N46    N     0.10863   0.71519   0.45815   0.00000  Uiso   1.00
C47    C     0.04882   0.46811   0.71366   0.00000  Uiso   1.00
C48    C     0.91882   0.42877   0.72238   0.00000  Uiso   1.00
C49    C     0.80952   0.34248   0.71163   0.00000  Uiso   1.00
C50    C     0.70007   0.31936   0.72236   0.00000  Uiso   1.00
C51    C     0.49821   0.24904   0.73274   0.00000  Uiso   1.00
C52    C     0.11380   0.60805   0.71067   0.00000  Uiso   1.00
C53    C     0.16846   0.67249   0.69006   0.00000  Uiso   1.00
C54    C     0.22317   0.80029   0.69094   0.00000  Uiso   1.00
C55    C     0.32411   0.00831   0.68314   0.00000  Uiso   1.00
C56    C     0.11383   0.44453   0.73409   0.00000  Uiso   1.00
C57    C     0.16854   0.37150   0.73319   0.00000  Uiso   1.00
C58    C     0.22330   0.36164   0.75378   0.00000  Uiso   1.00
C59    C     0.32428   0.31577   0.78236   0.00000  Uiso   1.00
C60    C     0.04881   0.58049   0.75184   0.00000  Uiso   1.00
C61    C     0.91882   0.48982   0.74312   0.00000  Uiso   1.00
C62    C     0.80951   0.46682   0.75387   0.00000  Uiso   1.00
C63    C     0.70006   0.38051   0.74313   0.00000  Uiso   1.00
C64    C     0.11380   0.66909   0.73141   0.00000  Uiso   1.00
C65    C     0.16845   0.79683   0.73231   0.00000  Uiso   1.00
C66    C     0.22316   0.86144   0.71171   0.00000  Uiso   1.00
C67    C     0.11382   0.50556   0.75483   0.00000  Uiso   1.00
C68    C     0.16852   0.49583   0.77544   0.00000  Uiso   1.00
C69    C     0.22329   0.42280   0.77456   0.00000  Uiso   1.00
H70    H     0.04883   0.42059   0.69751   0.00000  Uiso   1.00
H71    H     0.80956   0.29527   0.69557   0.00000  Uiso   1.00
H72    H     0.16846   0.62523   0.67402   0.00000  Uiso   1.00
H73    H     0.16852   0.32428   0.71714   0.00000  Uiso   1.00
H74    H     0.54429   0.18328   0.70257   0.00000  Uiso   1.00
H75    H     0.30108   0.87902   0.65712   0.00000  Uiso   1.00
H76    H     0.30123   0.24441   0.74804   0.00000  Uiso   1.00
H77    H     0.04881   0.62802   0.76799   0.00000  Uiso   1.00
H78    H     0.80953   0.51407   0.76992   0.00000  Uiso   1.00
H79    H     0.16843   0.84403   0.74836   0.00000  Uiso   1.00
H80    H     0.16850   0.54308   0.79148   0.00000  Uiso   1.00
H81    H     0.54427   0.36087   0.76291   0.00000  Uiso   1.00
H82    H     0.30106   0.05661   0.71746   0.00000  Uiso   1.00
H83    H     0.30120   0.42199   0.80838   0.00000  Uiso   1.00
O84    O     0.38688   0.19341   0.73273   0.00000  Uiso   1.00
O85    O     0.37977   0.10618   0.67310   0.00000  Uiso   1.00
O86    O     0.37996   0.27358   0.79239   0.00000  Uiso   1.00
N87    N     0.57712   0.24070   0.71651   0.00000  Uiso   1.00
N88    N     0.28466   0.89117   0.67401   0.00000  Uiso   1.00
N89    N     0.28482   0.29788   0.75901   0.00000  Uiso   1.00
N90    N     0.57711   0.33625   0.74898   0.00000  Uiso   1.00
N91    N     0.28464   0.98672   0.70648   0.00000  Uiso   1.00
N92    N     0.28481   0.39344   0.79148   0.00000  Uiso   1.00
C93    C     0.53189   0.58071   0.04699   0.00000  Uiso   1.00
C94    C     0.57123   0.49004   0.05571   0.00000  Uiso   1.00
C95    C     0.65752   0.46703   0.04496   0.00000  Uiso   1.00
C96    C     0.68064   0.38071   0.05569   0.00000  Uiso   1.00
C97    C     0.75096   0.24917   0.06607   0.00000  Uiso   1.00
C98    C     0.39195   0.50575   0.04400   0.00000  Uiso   1.00
C99    C     0.32751   0.49597   0.02340   0.00000  Uiso   1.00
C100   C     0.19971   0.42288   0.02427   0.00000  Uiso   1.00
C101   C     0.99169   0.31580   0.01647   0.00000  Uiso   1.00
C102   C     0.55547   0.66930   0.06743   0.00000  Uiso   1.00
C103   C     0.62850   0.79704   0.06652   0.00000  Uiso   1.00
C104   C     0.63836   0.86165   0.08712   0.00000  Uiso   1.00
C105   C     0.68423   0.00851   0.11569   0.00000  Uiso   1.00
C106   C     0.41951   0.46832   0.08518   0.00000  Uiso   1.00
C107   C     0.51018   0.42900   0.07645   0.00000  Uiso   1.00
C108   C     0.53318   0.34269   0.08720   0.00000  Uiso   1.00
C109   C     0.61949   0.31956   0.07647   0.00000  Uiso   1.00
C110   C     0.33091   0.44471   0.06474   0.00000  Uiso   1.00
C111   C     0.20317   0.37162   0.06564   0.00000  Uiso   1.00
C112   C     0.13856   0.36172   0.04505   0.00000  Uiso   1.00
C113   C     0.49444   0.60826   0.08817   0.00000  Uiso   1.00
C114   C     0.50417   0.67269   0.10877   0.00000  Uiso   1.00
C115   C     0.57720   0.80050   0.10789   0.00000  Uiso   1.00
H116   H     0.57941   0.62823   0.03084   0.00000  Uiso   1.00
H117   H     0.70473   0.51429   0.02891   0.00000  Uiso   1.00
H118   H     0.37477   0.54323   0.00735   0.00000  Uiso   1.00
H119   H     0.67572   0.84424   0.05047   0.00000  Uiso   1.00
H120   H     0.81672   0.36101   0.03590   0.00000  Uiso   1.00
H121   H     0.12098   0.42206   0.99045   0.00000  Uiso   1.00
H122   H     0.75559   0.05682   0.08137   0.00000  Uiso   1.00
H123   H     0.37198   0.42079   0.10132   0.00000  Uiso   1.00
H124   H     0.48593   0.29546   0.10325   0.00000  Uiso   1.00
H125   H     0.15597   0.32440   0.08170   0.00000  Uiso   1.00
H126   H     0.45692   0.62542   0.12482   0.00000  Uiso   1.00
H127   H     0.63913   0.18339   0.09624   0.00000  Uiso   1.00
H128   H     0.94339   0.24446   0.05079   0.00000  Uiso   1.00
H129   H     0.57801   0.87921   0.14172   0.00000  Uiso   1.00
O130   O     0.80659   0.19347   0.06607   0.00000  Uiso   1.00
O131   O     0.89382   0.27359   0.00644   0.00000  Uiso   1.00
O132   O     0.72642   0.10638   0.12573   0.00000  Uiso   1.00
N133   N     0.75930   0.33642   0.04984   0.00000  Uiso   1.00
N134   N     0.10883   0.39349   0.00734   0.00000  Uiso   1.00
N135   N     0.70212   0.98694   0.09235   0.00000  Uiso   1.00
N136   N     0.66375   0.24085   0.08231   0.00000  Uiso   1.00
N137   N     0.01328   0.29792   0.03981   0.00000  Uiso   1.00
N138   N     0.60656   0.89137   0.12482   0.00000  Uiso   1.00
C139   C     0.58071   0.04882   0.88033   0.00000  Uiso   1.00
C140   C     0.49004   0.91882   0.88905   0.00000  Uiso   1.00
C141   C     0.46703   0.80952   0.87829   0.00000  Uiso   1.00
C142   C     0.38071   0.70007   0.88902   0.00000  Uiso   1.00
C143   C     0.24917   0.49821   0.89940   0.00000  Uiso   1.00
C144   C     0.50575   0.11380   0.87733   0.00000  Uiso   1.00
C145   C     0.49597   0.16846   0.85673   0.00000  Uiso   1.00
C146   C     0.42288   0.22317   0.85760   0.00000  Uiso   1.00
C147   C     0.31580   0.32411   0.84980   0.00000  Uiso   1.00
C148   C     0.66930   0.11383   0.90076   0.00000  Uiso   1.00
C149   C     0.79704   0.16854   0.89985   0.00000  Uiso   1.00
C150   C     0.86165   0.22330   0.92045   0.00000  Uiso   1.00
C151   C     0.00851   0.32428   0.94903   0.00000  Uiso   1.00
C152   C     0.46832   0.04881   0.91851   0.00000  Uiso   1.00
C153   C     0.42900   0.91882   0.90979   0.00000  Uiso   1.00
C154   C     0.34269   0.80951   0.92054   0.00000  Uiso   1.00
C155   C     0.31956   0.70006   0.90980   0.00000  Uiso   1.00
C156   C     0.44471   0.11380   0.89807   0.00000  Uiso   1.00
C157   C     0.37162   0.16845   0.89898   0.00000  Uiso   1.00
C158   C     0.36172   0.22316   0.87838   0.00000  Uiso   1.00
C159   C     0.60826   0.11382   0.92150   0.00000  Uiso   1.00
C160   C     0.67269   0.16852   0.94210   0.00000  Uiso   1.00
C161   C     0.80050   0.22329   0.94123   0.00000  Uiso   1.00
H162   H     0.62823   0.04883   0.86418   0.00000  Uiso   1.00
H163   H     0.51429   0.80956   0.86224   0.00000  Uiso   1.00
H164   H     0.54323   0.16846   0.84068   0.00000  Uiso   1.00
H165   H     0.84424   0.16852   0.88380   0.00000  Uiso   1.00
H166   H     0.36101   0.54429   0.86923   0.00000  Uiso   1.00
H167   H     0.42206   0.30108   0.82378   0.00000  Uiso   1.00
H168   H     0.05682   0.30123   0.91471   0.00000  Uiso   1.00
H169   H     0.42079   0.04881   0.93466   0.00000  Uiso   1.00
H170   H     0.29546   0.80953   0.93659   0.00000  Uiso   1.00
H171   H     0.32440   0.16843   0.91503   0.00000  Uiso   1.00
H172   H     0.62542   0.16850   0.95815   0.00000  Uiso   1.00
H173   H     0.18339   0.54427   0.92958   0.00000  Uiso   1.00
H174   H     0.24446   0.30106   0.88412   0.00000  Uiso   1.00
H175   H     0.87921   0.30120   0.97505   0.00000  Uiso   1.00
O176   O     0.19347   0.38688   0.89940   0.00000  Uiso   1.00
O177   O     0.27359   0.37977   0.83977   0.00000  Uiso   1.00
O178   O     0.10638   0.37996   0.95906   0.00000  Uiso   1.00
N179   N     0.33642   0.57712   0.88317   0.00000  Uiso   1.00
N180   N     0.39349   0.28466   0.84068   0.00000  Uiso   1.00
N181   N     0.98694   0.28482   0.92568   0.00000  Uiso   1.00
N182   N     0.24085   0.57711   0.91564   0.00000  Uiso   1.00
N183   N     0.29792   0.28464   0.87315   0.00000  Uiso   1.00
N184   N     0.89137   0.28481   0.95815   0.00000  Uiso   1.00
C185   C     0.95118   0.53189   0.21366   0.00000  Uiso   1.00
C186   C     0.08118   0.57123   0.22238   0.00000  Uiso   1.00
C187   C     0.19048   0.65752   0.21163   0.00000  Uiso   1.00
C188   C     0.29993   0.68064   0.22236   0.00000  Uiso   1.00
C189   C     0.50179   0.75096   0.23274   0.00000  Uiso   1.00
C190   C     0.88620   0.39195   0.21067   0.00000  Uiso   1.00
C191   C     0.83154   0.32751   0.19006   0.00000  Uiso   1.00
C192   C     0.77683   0.19971   0.19094   0.00000  Uiso   1.00
C193   C     0.67589   0.99169   0.18314   0.00000  Uiso   1.00
C194   C     0.88617   0.55547   0.23409   0.00000  Uiso   1.00
C195   C     0.83146   0.62850   0.23319   0.00000  Uiso   1.00
C196   C     0.77670   0.63836   0.25378   0.00000  Uiso   1.00
C197   C     0.67572   0.68423   0.28236   0.00000  Uiso   1.00
C198   C     0.95119   0.41951   0.25184   0.00000  Uiso   1.00
C199   C     0.08118   0.51018   0.24312   0.00000  Uiso   1.00
C200   C     0.19049   0.53318   0.25387   0.00000  Uiso   1.00
C201   C     0.29994   0.61949   0.24313   0.00000  Uiso   1.00
C202   C     0.88620   0.33091   0.23141   0.00000  Uiso   1.00
C203   C     0.83155   0.20317   0.23231   0.00000  Uiso   1.00
C204   C     0.77684   0.13856   0.21171   0.00000  Uiso   1.00
C205   C     0.88618   0.49444   0.25483   0.00000  Uiso   1.00
C206   C     0.83148   0.50417   0.27544   0.00000  Uiso   1.00
C207   C     0.77671   0.57720   0.27456   0.00000  Uiso   1.00
H208   H     0.95117   0.57941   0.19751   0.00000  Uiso   1.00
H209   H     0.19044   0.70473   0.19557   0.00000  Uiso   1.00
H210   H     0.83154   0.37477   0.17402   0.00000  Uiso   1.00
H211   H     0.83148   0.67572   0.21714   0.00000  Uiso   1.00
H212   H     0.45571   0.81672   0.20257   0.00000  Uiso   1.00
H213   H     0.69892   0.12098   0.15712   0.00000  Uiso   1.00
H214   H     0.69877   0.75559   0.24804   0.00000  Uiso   1.00
H215   H     0.95119   0.37198   0.26799   0.00000  Uiso   1.00
H216   H     0.19047   0.48593   0.26992   0.00000  Uiso   1.00
H217   H     0.83157   0.15597   0.24836   0.00000  Uiso   1.00
H218   H     0.83150   0.45692   0.29148   0.00000  Uiso   1.00
H219   H     0.45573   0.63913   0.26291   0.00000  Uiso   1.00
H220   H     0.69894   0.94339   0.21746   0.00000  Uiso   1.00
H221   H     0.69880   0.57801   0.30838   0.00000  Uiso   1.00
O222   O     0.61312   0.80659   0.23273   0.00000  Uiso   1.00
O223   O     0.62023   0.89382   0.17310   0.00000  Uiso   1.00
O224   O     0.62004   0.72642   0.29239   0.00000  Uiso   1.00
N225   N     0.42288   0.75930   0.21651   0.00000  Uiso   1.00
N226   N     0.71534   0.10883   0.17401   0.00000  Uiso   1.00
N227   N     0.71518   0.70212   0.25901   0.00000  Uiso   1.00
N228   N     0.42289   0.66375   0.24898   0.00000  Uiso   1.00
N229   N     0.71536   0.01328   0.20648   0.00000  Uiso   1.00
N230   N     0.71519   0.60656   0.29148   0.00000  Uiso   1.00
C231   C     0.46811   0.41929   0.54699   0.00000  Uiso   1.00
C232   C     0.42877   0.50996   0.55571   0.00000  Uiso   1.00
C233   C     0.34248   0.53297   0.54496   0.00000  Uiso   1.00
C234   C     0.31936   0.61929   0.55569   0.00000  Uiso   1.00
C235   C     0.24904   0.75083   0.56607   0.00000  Uiso   1.00
C236   C     0.60805   0.49425   0.54400   0.00000  Uiso   1.00
C237   C     0.67249   0.50403   0.52340   0.00000  Uiso   1.00
C238   C     0.80029   0.57712   0.52427   0.00000  Uiso   1.00
C239   C     0.00831   0.68420   0.51647   0.00000  Uiso   1.00
C240   C     0.44453   0.33070   0.56743   0.00000  Uiso   1.00
C241   C     0.37150   0.20296   0.56652   0.00000  Uiso   1.00
C242   C     0.36164   0.13835   0.58712   0.00000  Uiso   1.00
C243   C     0.31577   0.99149   0.61569   0.00000  Uiso   1.00
C244   C     0.58049   0.53168   0.58518   0.00000  Uiso   1.00
C245   C     0.48982   0.57100   0.57645   0.00000  Uiso   1.00
C246   C     0.46682   0.65731   0.58720   0.00000  Uiso   1.00
C247   C     0.38051   0.68044   0.57647   0.00000  Uiso   1.00
C248   C     0.66909   0.55529   0.56474   0.00000  Uiso   1.00
C249   C     0.79683   0.62838   0.56564   0.00000  Uiso   1.00
C250   C     0.86144   0.63828   0.54505   0.00000  Uiso   1.00
C251   C     0.50556   0.39174   0.58817   0.00000  Uiso   1.00
C252   C     0.49583   0.32731   0.60877   0.00000  Uiso   1.00
C253   C     0.42280   0.19950   0.60789   0.00000  Uiso   1.00
H254   H     0.42059   0.37177   0.53084   0.00000  Uiso   1.00
H255   H     0.29527   0.48571   0.52891   0.00000  Uiso   1.00
H256   H     0.62523   0.45677   0.50735   0.00000  Uiso   1.00
H257   H     0.32428   0.15576   0.55047   0.00000  Uiso   1.00
H258   H     0.18328   0.63899   0.53590   0.00000  Uiso   1.00
H259   H     0.87902   0.57794   0.49045   0.00000  Uiso   1.00
H260   H     0.24441   0.94318   0.58137   0.00000  Uiso   1.00
H261   H     0.62802   0.57921   0.60132   0.00000  Uiso   1.00
H262   H     0.51407   0.70454   0.60325   0.00000  Uiso   1.00
H263   H     0.84403   0.67560   0.58170   0.00000  Uiso   1.00
H264   H     0.54308   0.37458   0.62482   0.00000  Uiso   1.00
H265   H     0.36087   0.81661   0.59624   0.00000  Uiso   1.00
H266   H     0.05661   0.75554   0.55079   0.00000  Uiso   1.00
H267   H     0.42199   0.12079   0.64172   0.00000  Uiso   1.00
O268   O     0.19341   0.80653   0.56607   0.00000  Uiso   1.00
O269   O     0.10618   0.72641   0.50644   0.00000  Uiso   1.00
O270   O     0.27358   0.89362   0.62573   0.00000  Uiso   1.00
N271   N     0.24070   0.66358   0.54984   0.00000  Uiso   1.00
N272   N     0.89117   0.60651   0.50734   0.00000  Uiso   1.00
N273   N     0.29788   0.01306   0.59235   0.00000  Uiso   1.00
N274   N     0.33625   0.75915   0.58231   0.00000  Uiso   1.00
N275   N     0.98672   0.70208   0.53981   0.00000  Uiso   1.00
N276   N     0.39344   0.10863   0.62482   0.00000  Uiso   1.00
