data_job_02930
_audit_creation_date              2018-12-19
_audit_creation_method            'Materials Studio'
_symmetry_space_group_name_H-M    'P1'
_symmetry_Int_Tables_number       1
_symmetry_cell_setting            triclinic
loop_
_symmetry_equiv_pos_as_xyz
  x,y,z
_cell_length_a                    30.0746
_cell_length_b                    10.0996
_cell_length_c                    18.4398
_cell_angle_alpha                 90.0000
_cell_angle_beta                  90.0000
_cell_angle_gamma                 90.0000
loop_
_atom_site_label
_atom_site_type_symbol
_atom_site_fract_x
_atom_site_fract_y
_atom_site_fract_z
_atom_site_U_iso_or_equiv
_atom_site_adp_type
_atom_site_occupancy
C1     C     0.33142   0.58743   0.53928   0.00000  Uiso   1.00
C2     C     0.37927   0.62977   0.55379   0.00000  Uiso   1.00
C3     C     0.39355   0.70689   0.61156   0.00000  Uiso   1.00
C4     C     0.43870   0.73477   0.61523   0.00000  Uiso   1.00
C5     C     0.50847   0.80780   0.64569   0.00000  Uiso   1.00
C6     C     0.32045   0.63583   0.46302   0.00000  Uiso   1.00
C7     C     0.28526   0.71803   0.44447   0.00000  Uiso   1.00
C8     C     0.28088   0.75100   0.37172   0.00000  Uiso   1.00
C9     C     0.25930   0.83337   0.26125   0.00000  Uiso   1.00
C10    C     0.33210   0.43666   0.53508   0.00000  Uiso   1.00
C11    C     0.30670   0.35138   0.57711   0.00000  Uiso   1.00
C12    C     0.31213   0.21665   0.56502   0.00000  Uiso   1.00
C13    C     0.30864   0.98977   0.56644   0.00000  Uiso   1.00
C14    C     0.38622   0.49981   0.44305   0.00000  Uiso   1.00
C15    C     0.40904   0.58218   0.50152   0.00000  Uiso   1.00
C16    C     0.45418   0.60994   0.50510   0.00000  Uiso   1.00
C17    C     0.46852   0.68709   0.56287   0.00000  Uiso   1.00
C18    C     0.35021   0.58824   0.41075   0.00000  Uiso   1.00
C19    C     0.34589   0.62109   0.33801   0.00000  Uiso   1.00
C20    C     0.31070   0.70332   0.31936   0.00000  Uiso   1.00
C21    C     0.36186   0.38906   0.48281   0.00000  Uiso   1.00
C22    C     0.36733   0.25444   0.47065   0.00000  Uiso   1.00
C23    C     0.34195   0.16897   0.51266   0.00000  Uiso   1.00
H24    H     0.30825   0.62449   0.57996   0.00000  Uiso   1.00
H25    H     0.37051   0.74371   0.65200   0.00000  Uiso   1.00
H26    H     0.26223   0.75484   0.48493   0.00000  Uiso   1.00
H27    H     0.28367   0.38824   0.61755   0.00000  Uiso   1.00
H28    H     0.45265   0.85494   0.70879   0.00000  Uiso   1.00
H29    H     0.22433   0.87837   0.35652   0.00000  Uiso   1.00
H30    H     0.26955   0.10534   0.63618   0.00000  Uiso   1.00
H31    H     0.40939   0.46276   0.40235   0.00000  Uiso   1.00
H32    H     0.47720   0.57310   0.46464   0.00000  Uiso   1.00
H33    H     0.36892   0.58424   0.29758   0.00000  Uiso   1.00
H34    H     0.39037   0.21764   0.43020   0.00000  Uiso   1.00
H35    H     0.53925   0.71648   0.55672   0.00000  Uiso   1.00
H36    H     0.31093   0.73990   0.20446   0.00000  Uiso   1.00
H37    H     0.35615   0.96687   0.48411   0.00000  Uiso   1.00
O38    O     0.53873   0.86125   0.67692   0.00000  Uiso   1.00
O39    O     0.23918   0.89197   0.21476   0.00000  Uiso   1.00
O40    O     0.29850   0.87777   0.58166   0.00000  Uiso   1.00
N41    N     0.46373   0.80719   0.66446   0.00000  Uiso   1.00
N42    N     0.25027   0.82911   0.33512   0.00000  Uiso   1.00
N43    N     0.29253   0.10639   0.59655   0.00000  Uiso   1.00
N44    N     0.51033   0.73268   0.58264   0.00000  Uiso   1.00
N45    N     0.29687   0.75460   0.25329   0.00000  Uiso   1.00
N46    N     0.33913   0.03188   0.51473   0.00000  Uiso   1.00
C47    C     0.16858   0.91257   0.03928   0.00000  Uiso   1.00
C48    C     0.12073   0.87023   0.05379   0.00000  Uiso   1.00
C49    C     0.10645   0.79311   0.11156   0.00000  Uiso   1.00
C50    C     0.06130   0.76523   0.11523   0.00000  Uiso   1.00
C51    C     0.99153   0.69220   0.14569   0.00000  Uiso   1.00
C52    C     0.17955   0.86417   0.96302   0.00000  Uiso   1.00
C53    C     0.21474   0.78197   0.94447   0.00000  Uiso   1.00
C54    C     0.21912   0.74900   0.87172   0.00000  Uiso   1.00
C55    C     0.24070   0.66663   0.76125   0.00000  Uiso   1.00
C56    C     0.16790   0.06334   0.03508   0.00000  Uiso   1.00
C57    C     0.19330   0.14862   0.07711   0.00000  Uiso   1.00
C58    C     0.18787   0.28335   0.06502   0.00000  Uiso   1.00
C59    C     0.19136   0.51023   0.06644   0.00000  Uiso   1.00
C60    C     0.11378   0.00019   0.94305   0.00000  Uiso   1.00
C61    C     0.09096   0.91782   0.00152   0.00000  Uiso   1.00
C62    C     0.04582   0.89006   0.00510   0.00000  Uiso   1.00
C63    C     0.03148   0.81291   0.06287   0.00000  Uiso   1.00
C64    C     0.14979   0.91176   0.91075   0.00000  Uiso   1.00
C65    C     0.15411   0.87891   0.83801   0.00000  Uiso   1.00
C66    C     0.18930   0.79668   0.81936   0.00000  Uiso   1.00
C67    C     0.13814   0.11094   0.98281   0.00000  Uiso   1.00
C68    C     0.13267   0.24556   0.97065   0.00000  Uiso   1.00
C69    C     0.15805   0.33103   0.01266   0.00000  Uiso   1.00
H70    H     0.19175   0.87551   0.07996   0.00000  Uiso   1.00
H71    H     0.12949   0.75629   0.15200   0.00000  Uiso   1.00
H72    H     0.23777   0.74516   0.98493   0.00000  Uiso   1.00
H73    H     0.21633   0.11176   0.11755   0.00000  Uiso   1.00
H74    H     0.04735   0.64506   0.20879   0.00000  Uiso   1.00
H75    H     0.27567   0.62163   0.85652   0.00000  Uiso   1.00
H76    H     0.23045   0.39466   0.13618   0.00000  Uiso   1.00
H77    H     0.09061   0.03724   0.90235   0.00000  Uiso   1.00
H78    H     0.02280   0.92690   0.96464   0.00000  Uiso   1.00
H79    H     0.13108   0.91576   0.79758   0.00000  Uiso   1.00
H80    H     0.10963   0.28236   0.93020   0.00000  Uiso   1.00
H81    H     0.96075   0.78352   0.05672   0.00000  Uiso   1.00
H82    H     0.18907   0.76010   0.70446   0.00000  Uiso   1.00
H83    H     0.14385   0.53313   0.98411   0.00000  Uiso   1.00
O84    O     0.96127   0.63875   0.17692   0.00000  Uiso   1.00
O85    O     0.26082   0.60803   0.71476   0.00000  Uiso   1.00
O86    O     0.20150   0.62223   0.08166   0.00000  Uiso   1.00
N87    N     0.03627   0.69281   0.16446   0.00000  Uiso   1.00
N88    N     0.24973   0.67089   0.83512   0.00000  Uiso   1.00
N89    N     0.20747   0.39361   0.09655   0.00000  Uiso   1.00
N90    N     0.98967   0.76732   0.08264   0.00000  Uiso   1.00
N91    N     0.20313   0.74540   0.75329   0.00000  Uiso   1.00
N92    N     0.16087   0.46812   0.01473   0.00000  Uiso   1.00
C93    C     0.66858   0.58743   0.96072   0.00000  Uiso   1.00
C94    C     0.62073   0.62977   0.94621   0.00000  Uiso   1.00
C95    C     0.60645   0.70689   0.88844   0.00000  Uiso   1.00
C96    C     0.56130   0.73477   0.88477   0.00000  Uiso   1.00
C97    C     0.49153   0.80780   0.85431   0.00000  Uiso   1.00
C98    C     0.67955   0.63583   0.03698   0.00000  Uiso   1.00
C99    C     0.71474   0.71803   0.05553   0.00000  Uiso   1.00
C100   C     0.71912   0.75100   0.12828   0.00000  Uiso   1.00
C101   C     0.74070   0.83337   0.23875   0.00000  Uiso   1.00
C102   C     0.66790   0.43666   0.96492   0.00000  Uiso   1.00
C103   C     0.69330   0.35138   0.92289   0.00000  Uiso   1.00
C104   C     0.68787   0.21665   0.93498   0.00000  Uiso   1.00
C105   C     0.69136   0.98977   0.93356   0.00000  Uiso   1.00
C106   C     0.61378   0.49981   0.05695   0.00000  Uiso   1.00
C107   C     0.59096   0.58218   0.99848   0.00000  Uiso   1.00
C108   C     0.54582   0.60994   0.99490   0.00000  Uiso   1.00
C109   C     0.53148   0.68709   0.93713   0.00000  Uiso   1.00
C110   C     0.64979   0.58824   0.08925   0.00000  Uiso   1.00
C111   C     0.65411   0.62109   0.16199   0.00000  Uiso   1.00
C112   C     0.68930   0.70332   0.18064   0.00000  Uiso   1.00
C113   C     0.63814   0.38906   0.01719   0.00000  Uiso   1.00
C114   C     0.63267   0.25444   0.02935   0.00000  Uiso   1.00
C115   C     0.65805   0.16897   0.98734   0.00000  Uiso   1.00
H116   H     0.69175   0.62449   0.92004   0.00000  Uiso   1.00
H117   H     0.62949   0.74371   0.84800   0.00000  Uiso   1.00
H118   H     0.73777   0.75484   0.01507   0.00000  Uiso   1.00
H119   H     0.71633   0.38824   0.88245   0.00000  Uiso   1.00
H120   H     0.54735   0.85494   0.79121   0.00000  Uiso   1.00
H121   H     0.77567   0.87837   0.14348   0.00000  Uiso   1.00
H122   H     0.73045   0.10534   0.86382   0.00000  Uiso   1.00
H123   H     0.59061   0.46276   0.09765   0.00000  Uiso   1.00
H124   H     0.52280   0.57310   0.03536   0.00000  Uiso   1.00
H125   H     0.63108   0.58424   0.20242   0.00000  Uiso   1.00
H126   H     0.60963   0.21764   0.06980   0.00000  Uiso   1.00
H127   H     0.46075   0.71648   0.94328   0.00000  Uiso   1.00
H128   H     0.68907   0.73990   0.29554   0.00000  Uiso   1.00
H129   H     0.64385   0.96687   0.01589   0.00000  Uiso   1.00
O130   O     0.46127   0.86125   0.82308   0.00000  Uiso   1.00
O131   O     0.76082   0.89197   0.28524   0.00000  Uiso   1.00
O132   O     0.70150   0.87777   0.91834   0.00000  Uiso   1.00
N133   N     0.53627   0.80719   0.83554   0.00000  Uiso   1.00
N134   N     0.74973   0.82911   0.16488   0.00000  Uiso   1.00
N135   N     0.70747   0.10639   0.90345   0.00000  Uiso   1.00
N136   N     0.48967   0.73268   0.91736   0.00000  Uiso   1.00
N137   N     0.70313   0.75460   0.24671   0.00000  Uiso   1.00
N138   N     0.66087   0.03188   0.98527   0.00000  Uiso   1.00
C139   C     0.83142   0.91257   0.46072   0.00000  Uiso   1.00
C140   C     0.87927   0.87023   0.44621   0.00000  Uiso   1.00
C141   C     0.89355   0.79311   0.38844   0.00000  Uiso   1.00
C142   C     0.93870   0.76523   0.38477   0.00000  Uiso   1.00
C143   C     0.00847   0.69220   0.35431   0.00000  Uiso   1.00
C144   C     0.82045   0.86417   0.53698   0.00000  Uiso   1.00
C145   C     0.78526   0.78197   0.55553   0.00000  Uiso   1.00
C146   C     0.78088   0.74900   0.62828   0.00000  Uiso   1.00
C147   C     0.75930   0.66663   0.73875   0.00000  Uiso   1.00
C148   C     0.83210   0.06334   0.46492   0.00000  Uiso   1.00
C149   C     0.80670   0.14862   0.42289   0.00000  Uiso   1.00
C150   C     0.81213   0.28335   0.43498   0.00000  Uiso   1.00
C151   C     0.80864   0.51023   0.43356   0.00000  Uiso   1.00
C152   C     0.88622   0.00019   0.55695   0.00000  Uiso   1.00
C153   C     0.90904   0.91782   0.49848   0.00000  Uiso   1.00
C154   C     0.95418   0.89006   0.49490   0.00000  Uiso   1.00
C155   C     0.96852   0.81291   0.43713   0.00000  Uiso   1.00
C156   C     0.85021   0.91176   0.58925   0.00000  Uiso   1.00
C157   C     0.84589   0.87891   0.66199   0.00000  Uiso   1.00
C158   C     0.81070   0.79668   0.68064   0.00000  Uiso   1.00
C159   C     0.86186   0.11094   0.51719   0.00000  Uiso   1.00
C160   C     0.86733   0.24556   0.52935   0.00000  Uiso   1.00
C161   C     0.84195   0.33103   0.48734   0.00000  Uiso   1.00
H162   H     0.80825   0.87551   0.42004   0.00000  Uiso   1.00
H163   H     0.87051   0.75629   0.34800   0.00000  Uiso   1.00
H164   H     0.76223   0.74516   0.51507   0.00000  Uiso   1.00
H165   H     0.78367   0.11176   0.38245   0.00000  Uiso   1.00
H166   H     0.95265   0.64506   0.29121   0.00000  Uiso   1.00
H167   H     0.72433   0.62163   0.64348   0.00000  Uiso   1.00
H168   H     0.76955   0.39466   0.36382   0.00000  Uiso   1.00
H169   H     0.90939   0.03724   0.59765   0.00000  Uiso   1.00
H170   H     0.97720   0.92690   0.53536   0.00000  Uiso   1.00
H171   H     0.86892   0.91576   0.70242   0.00000  Uiso   1.00
H172   H     0.89037   0.28236   0.56980   0.00000  Uiso   1.00
H173   H     0.03925   0.78352   0.44328   0.00000  Uiso   1.00
H174   H     0.81093   0.76010   0.79554   0.00000  Uiso   1.00
H175   H     0.85615   0.53313   0.51589   0.00000  Uiso   1.00
O176   O     0.03873   0.63875   0.32308   0.00000  Uiso   1.00
O177   O     0.73918   0.60803   0.78524   0.00000  Uiso   1.00
O178   O     0.79850   0.62223   0.41834   0.00000  Uiso   1.00
N179   N     0.96373   0.69281   0.33554   0.00000  Uiso   1.00
N180   N     0.75027   0.67089   0.66488   0.00000  Uiso   1.00
N181   N     0.79253   0.39361   0.40345   0.00000  Uiso   1.00
N182   N     0.01033   0.76732   0.41736   0.00000  Uiso   1.00
N183   N     0.79687   0.74540   0.74671   0.00000  Uiso   1.00
N184   N     0.83913   0.46812   0.48527   0.00000  Uiso   1.00
C185   C     0.66858   0.41257   0.46072   0.00000  Uiso   1.00
C186   C     0.62073   0.37023   0.44621   0.00000  Uiso   1.00
C187   C     0.60645   0.29311   0.38844   0.00000  Uiso   1.00
C188   C     0.56130   0.26523   0.38477   0.00000  Uiso   1.00
C189   C     0.49153   0.19220   0.35431   0.00000  Uiso   1.00
C190   C     0.67955   0.36417   0.53698   0.00000  Uiso   1.00
C191   C     0.71474   0.28197   0.55553   0.00000  Uiso   1.00
C192   C     0.71912   0.24900   0.62828   0.00000  Uiso   1.00
C193   C     0.74070   0.16663   0.73875   0.00000  Uiso   1.00
C194   C     0.66790   0.56334   0.46492   0.00000  Uiso   1.00
C195   C     0.69330   0.64862   0.42289   0.00000  Uiso   1.00
C196   C     0.68787   0.78335   0.43498   0.00000  Uiso   1.00
C197   C     0.69136   0.01023   0.43356   0.00000  Uiso   1.00
C198   C     0.61378   0.50019   0.55695   0.00000  Uiso   1.00
C199   C     0.59096   0.41782   0.49848   0.00000  Uiso   1.00
C200   C     0.54582   0.39006   0.49490   0.00000  Uiso   1.00
C201   C     0.53148   0.31291   0.43713   0.00000  Uiso   1.00
C202   C     0.64979   0.41176   0.58925   0.00000  Uiso   1.00
C203   C     0.65411   0.37891   0.66199   0.00000  Uiso   1.00
C204   C     0.68930   0.29668   0.68064   0.00000  Uiso   1.00
C205   C     0.63814   0.61094   0.51719   0.00000  Uiso   1.00
C206   C     0.63267   0.74556   0.52935   0.00000  Uiso   1.00
C207   C     0.65805   0.83103   0.48734   0.00000  Uiso   1.00
H208   H     0.69175   0.37551   0.42004   0.00000  Uiso   1.00
H209   H     0.62949   0.25629   0.34800   0.00000  Uiso   1.00
H210   H     0.73777   0.24516   0.51507   0.00000  Uiso   1.00
H211   H     0.71633   0.61176   0.38245   0.00000  Uiso   1.00
H212   H     0.54735   0.14506   0.29121   0.00000  Uiso   1.00
H213   H     0.77567   0.12163   0.64348   0.00000  Uiso   1.00
H214   H     0.73045   0.89466   0.36382   0.00000  Uiso   1.00
H215   H     0.59061   0.53724   0.59765   0.00000  Uiso   1.00
H216   H     0.52280   0.42690   0.53536   0.00000  Uiso   1.00
H217   H     0.63108   0.41576   0.70242   0.00000  Uiso   1.00
H218   H     0.60963   0.78236   0.56980   0.00000  Uiso   1.00
H219   H     0.46075   0.28352   0.44328   0.00000  Uiso   1.00
H220   H     0.68907   0.26010   0.79554   0.00000  Uiso   1.00
H221   H     0.64385   0.03313   0.51589   0.00000  Uiso   1.00
O222   O     0.46127   0.13875   0.32308   0.00000  Uiso   1.00
O223   O     0.76082   0.10803   0.78524   0.00000  Uiso   1.00
O224   O     0.70150   0.12223   0.41834   0.00000  Uiso   1.00
N225   N     0.53627   0.19281   0.33554   0.00000  Uiso   1.00
N226   N     0.74973   0.17089   0.66488   0.00000  Uiso   1.00
N227   N     0.70747   0.89361   0.40345   0.00000  Uiso   1.00
N228   N     0.48967   0.26732   0.41736   0.00000  Uiso   1.00
N229   N     0.70313   0.24540   0.74671   0.00000  Uiso   1.00
N230   N     0.66087   0.96812   0.48527   0.00000  Uiso   1.00
C231   C     0.83142   0.08743   0.96072   0.00000  Uiso   1.00
C232   C     0.87927   0.12977   0.94621   0.00000  Uiso   1.00
C233   C     0.89355   0.20689   0.88844   0.00000  Uiso   1.00
C234   C     0.93870   0.23477   0.88477   0.00000  Uiso   1.00
C235   C     0.00847   0.30780   0.85431   0.00000  Uiso   1.00
C236   C     0.82045   0.13583   0.03698   0.00000  Uiso   1.00
C237   C     0.78526   0.21803   0.05553   0.00000  Uiso   1.00
C238   C     0.78088   0.25100   0.12828   0.00000  Uiso   1.00
C239   C     0.75930   0.33337   0.23875   0.00000  Uiso   1.00
C240   C     0.83210   0.93666   0.96492   0.00000  Uiso   1.00
C241   C     0.80670   0.85138   0.92289   0.00000  Uiso   1.00
C242   C     0.81213   0.71665   0.93498   0.00000  Uiso   1.00
C243   C     0.80864   0.48977   0.93356   0.00000  Uiso   1.00
C244   C     0.88622   0.99981   0.05695   0.00000  Uiso   1.00
C245   C     0.90904   0.08218   0.99848   0.00000  Uiso   1.00
C246   C     0.95418   0.10994   0.99490   0.00000  Uiso   1.00
C247   C     0.96852   0.18709   0.93713   0.00000  Uiso   1.00
C248   C     0.85021   0.08824   0.08925   0.00000  Uiso   1.00
C249   C     0.84589   0.12109   0.16199   0.00000  Uiso   1.00
C250   C     0.81070   0.20332   0.18064   0.00000  Uiso   1.00
C251   C     0.86186   0.88906   0.01719   0.00000  Uiso   1.00
C252   C     0.86733   0.75444   0.02935   0.00000  Uiso   1.00
C253   C     0.84195   0.66897   0.98734   0.00000  Uiso   1.00
H254   H     0.80825   0.12449   0.92004   0.00000  Uiso   1.00
H255   H     0.87051   0.24371   0.84800   0.00000  Uiso   1.00
H256   H     0.76223   0.25484   0.01507   0.00000  Uiso   1.00
H257   H     0.78367   0.88824   0.88245   0.00000  Uiso   1.00
H258   H     0.95265   0.35494   0.79121   0.00000  Uiso   1.00
H259   H     0.72433   0.37837   0.14348   0.00000  Uiso   1.00
H260   H     0.76955   0.60534   0.86382   0.00000  Uiso   1.00
H261   H     0.90939   0.96276   0.09765   0.00000  Uiso   1.00
H262   H     0.97720   0.07310   0.03536   0.00000  Uiso   1.00
H263   H     0.86892   0.08424   0.20242   0.00000  Uiso   1.00
H264   H     0.89037   0.71764   0.06980   0.00000  Uiso   1.00
H265   H     0.03925   0.21648   0.94328   0.00000  Uiso   1.00
H266   H     0.81093   0.23990   0.29554   0.00000  Uiso   1.00
H267   H     0.85615   0.46687   0.01589   0.00000  Uiso   1.00
O268   O     0.03873   0.36125   0.82308   0.00000  Uiso   1.00
O269   O     0.73918   0.39197   0.28524   0.00000  Uiso   1.00
O270   O     0.79850   0.37777   0.91834   0.00000  Uiso   1.00
N271   N     0.96373   0.30719   0.83554   0.00000  Uiso   1.00
N272   N     0.75027   0.32911   0.16488   0.00000  Uiso   1.00
N273   N     0.79253   0.60639   0.90345   0.00000  Uiso   1.00
N274   N     0.01033   0.23268   0.91736   0.00000  Uiso   1.00
N275   N     0.79687   0.25460   0.24671   0.00000  Uiso   1.00
N276   N     0.83913   0.53188   0.98527   0.00000  Uiso   1.00
C277   C     0.33142   0.41257   0.03928   0.00000  Uiso   1.00
C278   C     0.37927   0.37023   0.05379   0.00000  Uiso   1.00
C279   C     0.39355   0.29311   0.11156   0.00000  Uiso   1.00
C280   C     0.43870   0.26523   0.11523   0.00000  Uiso   1.00
C281   C     0.50847   0.19220   0.14569   0.00000  Uiso   1.00
C282   C     0.32045   0.36417   0.96302   0.00000  Uiso   1.00
C283   C     0.28526   0.28197   0.94447   0.00000  Uiso   1.00
C284   C     0.28088   0.24900   0.87172   0.00000  Uiso   1.00
C285   C     0.25930   0.16663   0.76125   0.00000  Uiso   1.00
C286   C     0.33210   0.56334   0.03508   0.00000  Uiso   1.00
C287   C     0.30670   0.64862   0.07711   0.00000  Uiso   1.00
C288   C     0.31213   0.78335   0.06502   0.00000  Uiso   1.00
C289   C     0.30864   0.01023   0.06644   0.00000  Uiso   1.00
C290   C     0.38622   0.50019   0.94305   0.00000  Uiso   1.00
C291   C     0.40904   0.41782   0.00152   0.00000  Uiso   1.00
C292   C     0.45418   0.39006   0.00510   0.00000  Uiso   1.00
C293   C     0.46852   0.31291   0.06287   0.00000  Uiso   1.00
C294   C     0.35021   0.41176   0.91075   0.00000  Uiso   1.00
C295   C     0.34589   0.37891   0.83801   0.00000  Uiso   1.00
C296   C     0.31070   0.29668   0.81936   0.00000  Uiso   1.00
C297   C     0.36186   0.61094   0.98281   0.00000  Uiso   1.00
C298   C     0.36733   0.74556   0.97065   0.00000  Uiso   1.00
C299   C     0.34195   0.83103   0.01266   0.00000  Uiso   1.00
H300   H     0.30825   0.37551   0.07996   0.00000  Uiso   1.00
H301   H     0.37051   0.25629   0.15200   0.00000  Uiso   1.00
H302   H     0.26223   0.24516   0.98493   0.00000  Uiso   1.00
H303   H     0.28367   0.61176   0.11755   0.00000  Uiso   1.00
H304   H     0.45265   0.14506   0.20879   0.00000  Uiso   1.00
H305   H     0.22433   0.12163   0.85652   0.00000  Uiso   1.00
H306   H     0.26955   0.89466   0.13618   0.00000  Uiso   1.00
H307   H     0.40939   0.53724   0.90235   0.00000  Uiso   1.00
H308   H     0.47720   0.42690   0.96464   0.00000  Uiso   1.00
H309   H     0.36892   0.41576   0.79758   0.00000  Uiso   1.00
H310   H     0.39037   0.78236   0.93020   0.00000  Uiso   1.00
H311   H     0.53925   0.28352   0.05672   0.00000  Uiso   1.00
H312   H     0.31093   0.26010   0.70446   0.00000  Uiso   1.00
H313   H     0.35615   0.03313   0.98411   0.00000  Uiso   1.00
O314   O     0.53873   0.13875   0.17692   0.00000  Uiso   1.00
O315   O     0.23918   0.10803   0.71476   0.00000  Uiso   1.00
O316   O     0.29850   0.12223   0.08166   0.00000  Uiso   1.00
N317   N     0.46373   0.19281   0.16446   0.00000  Uiso   1.00
N318   N     0.25027   0.17089   0.83512   0.00000  Uiso   1.00
N319   N     0.29253   0.89361   0.09655   0.00000  Uiso   1.00
N320   N     0.51033   0.26732   0.08264   0.00000  Uiso   1.00
N321   N     0.29687   0.24540   0.75329   0.00000  Uiso   1.00
N322   N     0.33913   0.96812   0.01473   0.00000  Uiso   1.00
C323   C     0.16858   0.08743   0.53928   0.00000  Uiso   1.00
C324   C     0.12073   0.12977   0.55379   0.00000  Uiso   1.00
C325   C     0.10645   0.20689   0.61156   0.00000  Uiso   1.00
C326   C     0.06130   0.23477   0.61523   0.00000  Uiso   1.00
C327   C     0.99153   0.30780   0.64569   0.00000  Uiso   1.00
C328   C     0.17955   0.13583   0.46302   0.00000  Uiso   1.00
C329   C     0.21474   0.21803   0.44447   0.00000  Uiso   1.00
C330   C     0.21912   0.25100   0.37172   0.00000  Uiso   1.00
C331   C     0.24070   0.33337   0.26125   0.00000  Uiso   1.00
C332   C     0.16790   0.93666   0.53508   0.00000  Uiso   1.00
C333   C     0.19330   0.85138   0.57711   0.00000  Uiso   1.00
C334   C     0.18787   0.71665   0.56502   0.00000  Uiso   1.00
C335   C     0.19136   0.48977   0.56644   0.00000  Uiso   1.00
C336   C     0.11378   0.99981   0.44305   0.00000  Uiso   1.00
C337   C     0.09096   0.08218   0.50152   0.00000  Uiso   1.00
C338   C     0.04582   0.10994   0.50510   0.00000  Uiso   1.00
C339   C     0.03148   0.18709   0.56287   0.00000  Uiso   1.00
C340   C     0.14979   0.08824   0.41075   0.00000  Uiso   1.00
C341   C     0.15411   0.12109   0.33801   0.00000  Uiso   1.00
C342   C     0.18930   0.20332   0.31936   0.00000  Uiso   1.00
C343   C     0.13814   0.88906   0.48281   0.00000  Uiso   1.00
C344   C     0.13267   0.75444   0.47065   0.00000  Uiso   1.00
C345   C     0.15805   0.66897   0.51266   0.00000  Uiso   1.00
H346   H     0.19175   0.12449   0.57996   0.00000  Uiso   1.00
H347   H     0.12949   0.24371   0.65200   0.00000  Uiso   1.00
H348   H     0.23777   0.25484   0.48493   0.00000  Uiso   1.00
H349   H     0.21633   0.88824   0.61755   0.00000  Uiso   1.00
H350   H     0.04735   0.35494   0.70879   0.00000  Uiso   1.00
H351   H     0.27567   0.37837   0.35652   0.00000  Uiso   1.00
H352   H     0.23045   0.60534   0.63618   0.00000  Uiso   1.00
H353   H     0.09061   0.96276   0.40235   0.00000  Uiso   1.00
H354   H     0.02280   0.07310   0.46464   0.00000  Uiso   1.00
H355   H     0.13108   0.08424   0.29758   0.00000  Uiso   1.00
H356   H     0.10963   0.71764   0.43020   0.00000  Uiso   1.00
H357   H     0.96075   0.21648   0.55672   0.00000  Uiso   1.00
H358   H     0.18907   0.23990   0.20446   0.00000  Uiso   1.00
H359   H     0.14385   0.46687   0.48411   0.00000  Uiso   1.00
O360   O     0.96127   0.36125   0.67692   0.00000  Uiso   1.00
O361   O     0.26082   0.39197   0.21476   0.00000  Uiso   1.00
O362   O     0.20150   0.37777   0.58166   0.00000  Uiso   1.00
N363   N     0.03627   0.30719   0.66446   0.00000  Uiso   1.00
N364   N     0.24973   0.32911   0.33512   0.00000  Uiso   1.00
N365   N     0.20747   0.60639   0.59655   0.00000  Uiso   1.00
N366   N     0.98967   0.23268   0.58264   0.00000  Uiso   1.00
N367   N     0.20313   0.25460   0.25329   0.00000  Uiso   1.00
N368   N     0.16087   0.53188   0.51473   0.00000  Uiso   1.00
