data_job_06529
_audit_creation_date              2018-12-19
_audit_creation_method            'Materials Studio'
_symmetry_space_group_name_H-M    'P1'
_symmetry_Int_Tables_number       1
_symmetry_cell_setting            triclinic
loop_
_symmetry_equiv_pos_as_xyz
  x,y,z
_cell_length_a                    18.1003
_cell_length_b                    21.4861
_cell_length_c                    21.7834
_cell_angle_alpha                 101.2076
_cell_angle_beta                  72.8847
_cell_angle_gamma                 70.7758
loop_
_atom_site_label
_atom_site_type_symbol
_atom_site_fract_x
_atom_site_fract_y
_atom_site_fract_z
_atom_site_U_iso_or_equiv
_atom_site_adp_type
_atom_site_occupancy
C1     C     0.39923   0.51585   0.23044   0.00000  Uiso   1.00
C2     C     0.33419   0.52174   0.19804   0.00000  Uiso   1.00
C3     C     0.34804   0.47800   0.13596   0.00000  Uiso   1.00
C4     C     0.28045   0.49209   0.11520   0.00000  Uiso   1.00
C5     C     0.19144   0.49275   0.05880   0.00000  Uiso   1.00
C6     C     0.40530   0.58600   0.24356   0.00000  Uiso   1.00
C7     C     0.47893   0.59629   0.21977   0.00000  Uiso   1.00
C8     C     0.47120   0.66448   0.23735   0.00000  Uiso   1.00
C9     C     0.49258   0.76490   0.25166   0.00000  Uiso   1.00
C10    C     0.35905   0.51026   0.30011   0.00000  Uiso   1.00
C11    C     0.39381   0.45689   0.32387   0.00000  Uiso   1.00
C12    C     0.34714   0.46132   0.38906   0.00000  Uiso   1.00
C13    C     0.29673   0.44416   0.49118   0.00000  Uiso   1.00
C14    C     0.25456   0.61864   0.30398   0.00000  Uiso   1.00
C15    C     0.25562   0.57757   0.23798   0.00000  Uiso   1.00
C16    C     0.18799   0.59172   0.21732   0.00000  Uiso   1.00
C17    C     0.20173   0.54802   0.15522   0.00000  Uiso   1.00
C18    C     0.32672   0.64183   0.28350   0.00000  Uiso   1.00
C19    C     0.31888   0.71001   0.30113   0.00000  Uiso   1.00
C20    C     0.39248   0.72041   0.27736   0.00000  Uiso   1.00
C21    C     0.28047   0.56609   0.34005   0.00000  Uiso   1.00
C22    C     0.23375   0.57061   0.40523   0.00000  Uiso   1.00
C23    C     0.26843   0.51725   0.42908   0.00000  Uiso   1.00
H24    H     0.46040   0.47239   0.19934   0.00000  Uiso   1.00
H25    H     0.40887   0.43481   0.10506   0.00000  Uiso   1.00
H26    H     0.53973   0.55308   0.18886   0.00000  Uiso   1.00
H27    H     0.45462   0.41370   0.29294   0.00000  Uiso   1.00
H28    H     0.31708   0.41778   0.01813   0.00000  Uiso   1.00
H29    H     0.59303   0.66715   0.19485   0.00000  Uiso   1.00
H30    H     0.41355   0.37324   0.41433   0.00000  Uiso   1.00
H31    H     0.19338   0.66210   0.33508   0.00000  Uiso   1.00
H32    H     0.12719   0.63493   0.24824   0.00000  Uiso   1.00
H33    H     0.25806   0.75320   0.33204   0.00000  Uiso   1.00
H34    H     0.17294   0.61382   0.43612   0.00000  Uiso   1.00
H35    H     0.08846   0.58020   0.13434   0.00000  Uiso   1.00
H36    H     0.36441   0.82958   0.31107   0.00000  Uiso   1.00
H37    H     0.18493   0.53567   0.53054   0.00000  Uiso   1.00
O38    O     0.16406   0.47770   0.01665   0.00000  Uiso   1.00
O39    O     0.52609   0.80487   0.24852   0.00000  Uiso   1.00
O40    O     0.29062   0.41927   0.53646   0.00000  Uiso   1.00
N41    N     0.27236   0.45972   0.05740   0.00000  Uiso   1.00
N42    N     0.53035   0.69288   0.22262   0.00000  Uiso   1.00
N43    N     0.36256   0.41810   0.42782   0.00000  Uiso   1.00
N44    N     0.14934   0.54712   0.11994   0.00000  Uiso   1.00
N45    N     0.40733   0.78028   0.28515   0.00000  Uiso   1.00
N46    N     0.23954   0.50550   0.49035   0.00000  Uiso   1.00
C47    C     0.66800   0.76013   0.93716   0.00000  Uiso   1.00
C48    C     0.63002   0.74694   0.88466   0.00000  Uiso   1.00
C49    C     0.63831   0.77107   0.82944   0.00000  Uiso   1.00
C50    C     0.59879   0.75337   0.78733   0.00000  Uiso   1.00
C51    C     0.54680   0.73905   0.70390   0.00000  Uiso   1.00
C52    C     0.59381   0.79398   0.00592   0.00000  Uiso   1.00
C53    C     0.57166   0.85766   0.05265   0.00000  Uiso   1.00
C54    C     0.50166   0.87955   0.11263   0.00000  Uiso   1.00
C55    C     0.39349   0.93824   0.21748   0.00000  Uiso   1.00
C56    C     0.72195   0.68854   0.93694   0.00000  Uiso   1.00
C57    C     0.80754   0.66356   0.92569   0.00000  Uiso   1.00
C58    C     0.84542   0.59669   0.92760   0.00000  Uiso   1.00
C59    C     0.93621   0.49166   0.92534   0.00000  Uiso   1.00
C60    C     0.58307   0.68579   0.96058   0.00000  Uiso   1.00
C61    C     0.58389   0.70656   0.89738   0.00000  Uiso   1.00
C62    C     0.54435   0.68881   0.85535   0.00000  Uiso   1.00
C63    C     0.55258   0.71291   0.80007   0.00000  Uiso   1.00
C64    C     0.54768   0.75360   0.01864   0.00000  Uiso   1.00
C65    C     0.47770   0.77540   0.07856   0.00000  Uiso   1.00
C66    C     0.45544   0.83910   0.12537   0.00000  Uiso   1.00
C67    C     0.67582   0.64815   0.94966   0.00000  Uiso   1.00
C68    C     0.71357   0.58131   0.95159   0.00000  Uiso   1.00
C69    C     0.79921   0.55623   0.94034   0.00000  Uiso   1.00
H70    H     0.70391   0.79158   0.92726   0.00000  Uiso   1.00
H71    H     0.67401   0.80233   0.81961   0.00000  Uiso   1.00
H72    H     0.60738   0.88889   0.04280   0.00000  Uiso   1.00
H73    H     0.84322   0.69483   0.91585   0.00000  Uiso   1.00
H74    H     0.62049   0.79646   0.70590   0.00000  Uiso   1.00
H75    H     0.48001   0.97898   0.17650   0.00000  Uiso   1.00
H76    H     0.97733   0.56976   0.90880   0.00000  Uiso   1.00
H77    H     0.54715   0.65435   0.97048   0.00000  Uiso   1.00
H78    H     0.50865   0.65756   0.86520   0.00000  Uiso   1.00
H79    H     0.44202   0.74413   0.08839   0.00000  Uiso   1.00
H80    H     0.67786   0.55007   0.96144   0.00000  Uiso   1.00
H81    H     0.48628   0.67896   0.74290   0.00000  Uiso   1.00
H82    H     0.34580   0.86149   0.21351   0.00000  Uiso   1.00
H83    H     0.84311   0.45226   0.94581   0.00000  Uiso   1.00
O84    O     0.53087   0.74232   0.65438   0.00000  Uiso   1.00
O85    O     0.34657   0.98178   0.27180   0.00000  Uiso   1.00
O86    O     0.99904   0.44489   0.92058   0.00000  Uiso   1.00
N87    N     0.59420   0.76835   0.72904   0.00000  Uiso   1.00
N88    N     0.46285   0.93901   0.16903   0.00000  Uiso   1.00
N89    N     0.92780   0.55642   0.91877   0.00000  Uiso   1.00
N90    N     0.52198   0.70513   0.74895   0.00000  Uiso   1.00
N91    N     0.39063   0.87578   0.18894   0.00000  Uiso   1.00
N92    N     0.85558   0.49320   0.93868   0.00000  Uiso   1.00
C93    C     0.98666   0.23596   0.60459   0.00000  Uiso   1.00
C94    C     0.92313   0.27618   0.57824   0.00000  Uiso   1.00
C95    C     0.83569   0.29898   0.60771   0.00000  Uiso   1.00
C96    C     0.78859   0.33489   0.57584   0.00000  Uiso   1.00
C97    C     0.68401   0.39539   0.54391   0.00000  Uiso   1.00
C98    C     0.04853   0.16914   0.54623   0.00000  Uiso   1.00
C99    C     0.06654   0.10194   0.54880   0.00000  Uiso   1.00
C100   C     0.12501   0.04774   0.48999   0.00000  Uiso   1.00
C101   C     0.21516   0.94205   0.40839   0.00000  Uiso   1.00
C102   C     0.03754   0.27849   0.61459   0.00000  Uiso   1.00
C103   C     0.04633   0.30322   0.67463   0.00000  Uiso   1.00
C104   C     0.09556   0.34107   0.67337   0.00000  Uiso   1.00
C105   C     0.16865   0.40516   0.69791   0.00000  Uiso   1.00
C106   C     0.05848   0.25919   0.49559   0.00000  Uiso   1.00
C107   C     0.96214   0.28879   0.51903   0.00000  Uiso   1.00
C108   C     0.91516   0.32468   0.48711   0.00000  Uiso   1.00
C109   C     0.82767   0.34754   0.51653   0.00000  Uiso   1.00
C110   C     0.08754   0.18175   0.48703   0.00000  Uiso   1.00
C111   C     0.14600   0.12764   0.42821   0.00000  Uiso   1.00
C112   C     0.16409   0.06038   0.43068   0.00000  Uiso   1.00
C113   C     0.07655   0.29111   0.55539   0.00000  Uiso   1.00
C114   C     0.12579   0.32892   0.55404   0.00000  Uiso   1.00
C115   C     0.13464   0.35371   0.61406   0.00000  Uiso   1.00
H116   H     0.95629   0.22614   0.65068   0.00000  Uiso   1.00
H117   H     0.80553   0.28920   0.65352   0.00000  Uiso   1.00
H118   H     0.03635   0.09219   0.59462   0.00000  Uiso   1.00
H119   H     0.01613   0.29345   0.72043   0.00000  Uiso   1.00
H120   H     0.65559   0.36467   0.63055   0.00000  Uiso   1.00
H121   H     0.14230   0.94925   0.50637   0.00000  Uiso   1.00
H122   H     0.09968   0.37363   0.77167   0.00000  Uiso   1.00
H123   H     0.08886   0.26901   0.44950   0.00000  Uiso   1.00
H124   H     0.94536   0.33444   0.44130   0.00000  Uiso   1.00
H125   H     0.17618   0.13742   0.38240   0.00000  Uiso   1.00
H126   H     0.15597   0.33867   0.50821   0.00000  Uiso   1.00
H127   H     0.76908   0.40138   0.45830   0.00000  Uiso   1.00
H128   H     0.25580   0.98596   0.33412   0.00000  Uiso   1.00
H129   H     0.21317   0.41034   0.59942   0.00000  Uiso   1.00
O130   O     0.61555   0.42526   0.54265   0.00000  Uiso   1.00
O131   O     0.25411   0.88026   0.37974   0.00000  Uiso   1.00
O132   O     0.19818   0.43704   0.72780   0.00000  Uiso   1.00
N133   N     0.70199   0.36434   0.59114   0.00000  Uiso   1.00
N134   N     0.15702   0.97595   0.47504   0.00000  Uiso   1.00
N135   N     0.11720   0.37270   0.72307   0.00000  Uiso   1.00
N136   N     0.76306   0.38409   0.49846   0.00000  Uiso   1.00
N137   N     0.21809   0.99571   0.38235   0.00000  Uiso   1.00
N138   N     0.17827   0.39245   0.63038   0.00000  Uiso   1.00
C139   C     0.04881   0.17912   0.04423   0.00000  Uiso   1.00
C140   C     0.04489   0.12806   0.98720   0.00000  Uiso   1.00
C141   C     0.97420   0.13589   0.97133   0.00000  Uiso   1.00
C142   C     0.98354   0.08340   0.91729   0.00000  Uiso   1.00
C143   C     0.96570   0.01299   0.83431   0.00000  Uiso   1.00
C144   C     0.12099   0.19846   0.01078   0.00000  Uiso   1.00
C145   C     0.11428   0.26548   0.01474   0.00000  Uiso   1.00
C146   C     0.18768   0.27225   0.98056   0.00000  Uiso   1.00
C147   C     0.28801   0.31114   0.93422   0.00000  Uiso   1.00
C148   C     0.07806   0.13741   0.08829   0.00000  Uiso   1.00
C149   C     0.03527   0.15311   0.15743   0.00000  Uiso   1.00
C150   C     0.07254   0.10849   0.18851   0.00000  Uiso   1.00
C151   C     0.10621   0.05260   0.26253   0.00000  Uiso   1.00
C152   C     0.19108   0.07198   0.97648   0.00000  Uiso   1.00
C153   C     0.12217   0.06987   0.95040   0.00000  Uiso   1.00
C154   C     0.13161   0.01735   0.89637   0.00000  Uiso   1.00
C155   C     0.06095   0.02510   0.88043   0.00000  Uiso   1.00
C156   C     0.19826   0.14027   0.97398   0.00000  Uiso   1.00
C157   C     0.27169   0.14694   0.93978   0.00000  Uiso   1.00
C158   C     0.26510   0.21395   0.94369   0.00000  Uiso   1.00
C159   C     0.15533   0.07922   0.05149   0.00000  Uiso   1.00
C160   C     0.19268   0.03457   0.08247   0.00000  Uiso   1.00
C161   C     0.14996   0.05019   0.15165   0.00000  Uiso   1.00
H162   H     0.98865   0.22443   0.07288   0.00000  Uiso   1.00
H163   H     0.91441   0.18094   0.99982   0.00000  Uiso   1.00
H164   H     0.05447   0.31051   0.04323   0.00000  Uiso   1.00
H165   H     0.97547   0.19815   0.18589   0.00000  Uiso   1.00
H166   H     0.86619   0.10707   0.90257   0.00000  Uiso   1.00
H167   H     0.16153   0.38027   0.99412   0.00000  Uiso   1.00
H168   H     0.99494   0.14335   0.29496   0.00000  Uiso   1.00
H169   H     0.25125   0.02667   0.94783   0.00000  Uiso   1.00
H170   H     0.19142   0.97232   0.86790   0.00000  Uiso   1.00
H171   H     0.33148   0.10189   0.91132   0.00000  Uiso   1.00
H172   H     0.25248   0.98954   0.05398   0.00000  Uiso   1.00
H173   H     0.09102   0.93775   0.79550   0.00000  Uiso   1.00
H174   H     0.38636   0.21095   0.88706   0.00000  Uiso   1.00
H175   H     0.21977   0.97403   0.18789   0.00000  Uiso   1.00
O176   O     0.93452   0.99024   0.79869   0.00000  Uiso   1.00
O177   O     0.32199   0.34867   0.91883   0.00000  Uiso   1.00
O178   O     0.10343   0.03784   0.31352   0.00000  Uiso   1.00
N179   N     0.92731   0.07467   0.88834   0.00000  Uiso   1.00
N180   N     0.20343   0.33010   0.97394   0.00000  Uiso   1.00
N181   N     0.04770   0.10861   0.25520   0.00000  Uiso   1.00
N182   N     0.04829   0.98356   0.83073   0.00000  Uiso   1.00
N183   N     0.32441   0.23899   0.91632   0.00000  Uiso   1.00
N184   N     0.16868   0.01750   0.19759   0.00000  Uiso   1.00
C185   C     0.32293   0.73402   0.73072   0.00000  Uiso   1.00
C186   C     0.25493   0.77594   0.70907   0.00000  Uiso   1.00
C187   C     0.26585   0.81391   0.66498   0.00000  Uiso   1.00
C188   C     0.19584   0.84869   0.65159   0.00000  Uiso   1.00
C189   C     0.10215   0.91423   0.61343   0.00000  Uiso   1.00
C190   C     0.32852   0.65995   0.71248   0.00000  Uiso   1.00
C191   C     0.40131   0.60040   0.67128   0.00000  Uiso   1.00
C192   C     0.39325   0.53753   0.66078   0.00000  Uiso   1.00
C193   C     0.41382   0.42298   0.62797   0.00000  Uiso   1.00
C194   C     0.28684   0.76221   0.80803   0.00000  Uiso   1.00
C195   C     0.32460   0.78862   0.84717   0.00000  Uiso   1.00
C196   C     0.28145   0.81183   0.91711   0.00000  Uiso   1.00
C197   C     0.23730   0.85606   0.03265   0.00000  Uiso   1.00
C198   C     0.17919   0.72826   0.78534   0.00000  Uiso   1.00
C199   C     0.17686   0.77281   0.73873   0.00000  Uiso   1.00
C200   C     0.10682   0.80754   0.72541   0.00000  Uiso   1.00
C201   C     0.11763   0.84555   0.68132   0.00000  Uiso   1.00
C202   C     0.25045   0.65682   0.74215   0.00000  Uiso   1.00
C203   C     0.24228   0.59402   0.73171   0.00000  Uiso   1.00
C204   C     0.31504   0.53439   0.69050   0.00000  Uiso   1.00
C205   C     0.20877   0.75908   0.83770   0.00000  Uiso   1.00
C206   C     0.16556   0.78225   0.90760   0.00000  Uiso   1.00
C207   C     0.20324   0.80869   0.94683   0.00000  Uiso   1.00
H208   H     0.38372   0.73645   0.70762   0.00000  Uiso   1.00
H209   H     0.32628   0.81632   0.64202   0.00000  Uiso   1.00
H210   H     0.46172   0.60284   0.64833   0.00000  Uiso   1.00
H211   H     0.38501   0.79104   0.82419   0.00000  Uiso   1.00
H212   H     0.22818   0.90346   0.58237   0.00000  Uiso   1.00
H213   H     0.51378   0.45332   0.59569   0.00000  Uiso   1.00
H214   H     0.35202   0.85017   0.96651   0.00000  Uiso   1.00
H215   H     0.11841   0.72582   0.80844   0.00000  Uiso   1.00
H216   H     0.04641   0.80510   0.74838   0.00000  Uiso   1.00
H217   H     0.18185   0.59162   0.75468   0.00000  Uiso   1.00
H218   H     0.10514   0.77982   0.93054   0.00000  Uiso   1.00
H219   H     0.00103   0.89436   0.66869   0.00000  Uiso   1.00
H220   H     0.28662   0.44421   0.68201   0.00000  Uiso   1.00
H221   H     0.12486   0.84107   0.05283   0.00000  Uiso   1.00
O222   O     0.07204   0.95124   0.58418   0.00000  Uiso   1.00
O223   O     0.44673   0.36067   0.60167   0.00000  Uiso   1.00
O224   O     0.23451   0.88133   0.08818   0.00000  Uiso   1.00
N225   N     0.18460   0.89045   0.61094   0.00000  Uiso   1.00
N226   N     0.45161   0.46959   0.62338   0.00000  Uiso   1.00
N227   N     0.30039   0.84060   0.97007   0.00000  Uiso   1.00
N228   N     0.06237   0.88555   0.65739   0.00000  Uiso   1.00
N229   N     0.32938   0.46469   0.66983   0.00000  Uiso   1.00
N230   N     0.17816   0.83570   0.01652   0.00000  Uiso   1.00
C231   C     0.83910   0.83718   0.34571   0.00000  Uiso   1.00
C232   C     0.77742   0.88940   0.32620   0.00000  Uiso   1.00
C233   C     0.74131   0.87301   0.28081   0.00000  Uiso   1.00
C234   C     0.68642   0.92828   0.26983   0.00000  Uiso   1.00
C235   C     0.59337   0.99885   0.23451   0.00000  Uiso   1.00
C236   C     0.79909   0.85700   0.42274   0.00000  Uiso   1.00
C237   C     0.78121   0.81337   0.45851   0.00000  Uiso   1.00
C238   C     0.74457   0.84136   0.52880   0.00000  Uiso   1.00
C239   C     0.68522   0.86161   0.64335   0.00000  Uiso   1.00
C240   C     0.91798   0.85238   0.33015   0.00000  Uiso   1.00
C241   C     0.00008   0.80484   0.28809   0.00000  Uiso   1.00
C242   C     0.06354   0.82894   0.28044   0.00000  Uiso   1.00
C243   C     0.18878   0.84201   0.25124   0.00000  Uiso   1.00
C244   C     0.80584   0.96448   0.40695   0.00000  Uiso   1.00
C245   C     0.75935   0.95855   0.35947   0.00000  Uiso   1.00
C246   C     0.70451   0.01385   0.34856   0.00000  Uiso   1.00
C247   C     0.66832   0.99755   0.30315   0.00000  Uiso   1.00
C248   C     0.78102   0.92614   0.45600   0.00000  Uiso   1.00
C249   C     0.74441   0.95421   0.52626   0.00000  Uiso   1.00
C250   C     0.72647   0.91063   0.56212   0.00000  Uiso   1.00
C251   C     0.89992   0.92152   0.36342   0.00000  Uiso   1.00
C252   C     0.96327   0.94569   0.35584   0.00000  Uiso   1.00
C253   C     0.04544   0.89821   0.31376   0.00000  Uiso   1.00
H254   H     0.85317   0.78335   0.31982   0.00000  Uiso   1.00
H255   H     0.75530   0.81949   0.25508   0.00000  Uiso   1.00
H256   H     0.79521   0.75986   0.43275   0.00000  Uiso   1.00
H257   H     0.01403   0.75134   0.26236   0.00000  Uiso   1.00
H258   H     0.63881   0.89006   0.19799   0.00000  Uiso   1.00
H259   H     0.72298   0.76431   0.57263   0.00000  Uiso   1.00
H260   H     0.18442   0.74635   0.21331   0.00000  Uiso   1.00
H261   H     0.79177   0.01831   0.43285   0.00000  Uiso   1.00
H262   H     0.69054   0.06736   0.37431   0.00000  Uiso   1.00
H263   H     0.73044   0.00772   0.55198   0.00000  Uiso   1.00
H264   H     0.94926   0.99920   0.38159   0.00000  Uiso   1.00
H265   H     0.58624   0.09124   0.29476   0.00000  Uiso   1.00
H266   H     0.67042   0.96548   0.66940   0.00000  Uiso   1.00
H267   H     0.13185   0.94752   0.31009   0.00000  Uiso   1.00
O268   O     0.54702   0.01867   0.20585   0.00000  Uiso   1.00
O269   O     0.65746   0.85368   0.69735   0.00000  Uiso   1.00
O270   O     0.26285   0.83012   0.22594   0.00000  Uiso   1.00
N271   N     0.64035   0.93068   0.22879   0.00000  Uiso   1.00
N272   N     0.71903   0.81311   0.57905   0.00000  Uiso   1.00
N273   N     0.15043   0.79631   0.24314   0.00000  Uiso   1.00
N274   N     0.61206   0.03893   0.28086   0.00000  Uiso   1.00
N275   N     0.69074   0.92136   0.63112   0.00000  Uiso   1.00
N276   N     0.12215   0.90456   0.29521   0.00000  Uiso   1.00
C277   C     0.65704   0.43218   0.90317   0.00000  Uiso   1.00
C278   C     0.71903   0.40471   0.93613   0.00000  Uiso   1.00
C279   C     0.70677   0.43222   0.00330   0.00000  Uiso   1.00
C280   C     0.77101   0.39961   0.02366   0.00000  Uiso   1.00
C281   C     0.85601   0.36577   0.08174   0.00000  Uiso   1.00
C282   C     0.63894   0.37097   0.87384   0.00000  Uiso   1.00
C283   C     0.55935   0.37011   0.88863   0.00000  Uiso   1.00
C284   C     0.55618   0.30909   0.85654   0.00000  Uiso   1.00
C285   C     0.51684   0.22288   0.81787   0.00000  Uiso   1.00
C286   C     0.70628   0.44763   0.84246   0.00000  Uiso   1.00
C287   C     0.68329   0.51123   0.83085   0.00000  Uiso   1.00
C288   C     0.73681   0.51474   0.77233   0.00000  Uiso   1.00
C289   C     0.80202   0.54756   0.68493   0.00000  Uiso   1.00
C290   C     0.79293   0.32534   0.81988   0.00000  Uiso   1.00
C291   C     0.79283   0.34668   0.89089   0.00000  Uiso   1.00
C292   C     0.85712   0.31402   0.91115   0.00000  Uiso   1.00
C293   C     0.84496   0.34147   0.97834   0.00000  Uiso   1.00
C294   C     0.71275   0.31294   0.82860   0.00000  Uiso   1.00
C295   C     0.70970   0.25190   0.79648   0.00000  Uiso   1.00
C296   C     0.63012   0.25095   0.81122   0.00000  Uiso   1.00
C297   C     0.78009   0.38960   0.79722   0.00000  Uiso   1.00
C298   C     0.83364   0.39301   0.73870   0.00000  Uiso   1.00
C299   C     0.81075   0.45660   0.72701   0.00000  Uiso   1.00
H300   H     0.59958   0.47736   0.93839   0.00000  Uiso   1.00
H301   H     0.64963   0.47713   0.03830   0.00000  Uiso   1.00
H302   H     0.50224   0.41503   0.92364   0.00000  Uiso   1.00
H303   H     0.62617   0.55612   0.86587   0.00000  Uiso   1.00
H304   H     0.73767   0.45127   0.12912   0.00000  Uiso   1.00
H305   H     0.42688   0.32034   0.88734   0.00000  Uiso   1.00
H306   H     0.68821   0.61786   0.76552   0.00000  Uiso   1.00
H307   H     0.85040   0.28015   0.78465   0.00000  Uiso   1.00
H308   H     0.91423   0.26911   0.87613   0.00000  Uiso   1.00
H309   H     0.76683   0.20701   0.76147   0.00000  Uiso   1.00
H310   H     0.89076   0.34810   0.70370   0.00000  Uiso   1.00
H311   H     0.95242   0.28243   0.99750   0.00000  Uiso   1.00
H312   H     0.64163   0.15150   0.75572   0.00000  Uiso   1.00
H313   H     0.90296   0.44901   0.63389   0.00000  Uiso   1.00
O314   O     0.88250   0.36313   0.12627   0.00000  Uiso   1.00
O315   O     0.47475   0.19136   0.80905   0.00000  Uiso   1.00
O316   O     0.81760   0.58169   0.64922   0.00000  Uiso   1.00
N317   N     0.77946   0.41306   0.08559   0.00000  Uiso   1.00
N318   N     0.48889   0.29065   0.85954   0.00000  Uiso   1.00
N319   N     0.73320   0.56879   0.74564   0.00000  Uiso   1.00
N320   N     0.89502   0.32221   0.01477   0.00000  Uiso   1.00
N321   N     0.60445   0.19979   0.78872   0.00000  Uiso   1.00
N322   N     0.84875   0.47794   0.67482   0.00000  Uiso   1.00
C323   C     0.35850   0.20271   0.17458   0.00000  Uiso   1.00
C324   C     0.36491   0.18957   0.23953   0.00000  Uiso   1.00
C325   C     0.35564   0.13479   0.26085   0.00000  Uiso   1.00
C326   C     0.36380   0.13191   0.32177   0.00000  Uiso   1.00
C327   C     0.37123   0.10385   0.41679   0.00000  Uiso   1.00
C328   C     0.44180   0.20565   0.13575   0.00000  Uiso   1.00
C329   C     0.49718   0.16439   0.06981   0.00000  Uiso   1.00
C330   C     0.57006   0.17506   0.04336   0.00000  Uiso   1.00
C331   C     0.69684   0.17200   0.97726   0.00000  Uiso   1.00
C332   C     0.29003   0.27618   0.19661   0.00000  Uiso   1.00
C333   C     0.21779   0.29423   0.18182   0.00000  Uiso   1.00
C334   C     0.16289   0.36429   0.20660   0.00000  Uiso   1.00
C335   C     0.05401   0.47074   0.23498   0.00000  Uiso   1.00
C336   C     0.38947   0.29502   0.24485   0.00000  Uiso   1.00
C337   C     0.38173   0.23970   0.27770   0.00000  Uiso   1.00
C338   C     0.38990   0.23691   0.33860   0.00000  Uiso   1.00
C339   C     0.38064   0.18213   0.36001   0.00000  Uiso   1.00
C340   C     0.45863   0.25578   0.17392   0.00000  Uiso   1.00
C341   C     0.53144   0.26651   0.14756   0.00000  Uiso   1.00
C342   C     0.58691   0.22528   0.08160   0.00000  Uiso   1.00
C343   C     0.30684   0.32632   0.23478   0.00000  Uiso   1.00
C344   C     0.25205   0.39636   0.25958   0.00000  Uiso   1.00
C345   C     0.17975   0.41451   0.24484   0.00000  Uiso   1.00
H346   H     0.34541   0.16368   0.14486   0.00000  Uiso   1.00
H347   H     0.34263   0.09599   0.23129   0.00000  Uiso   1.00
H348   H     0.48414   0.12560   0.04029   0.00000  Uiso   1.00
H349   H     0.20480   0.25542   0.15229   0.00000  Uiso   1.00
H350   H     0.34700   0.04304   0.34394   0.00000  Uiso   1.00
H351   H     0.64536   0.10549   0.94118   0.00000  Uiso   1.00
H352   H     0.05631   0.37924   0.17735   0.00000  Uiso   1.00
H353   H     0.40257   0.33405   0.27457   0.00000  Uiso   1.00
H354   H     0.40292   0.27572   0.36812   0.00000  Uiso   1.00
H355   H     0.54443   0.30532   0.17711   0.00000  Uiso   1.00
H356   H     0.26509   0.43514   0.28911   0.00000  Uiso   1.00
H357   H     0.39593   0.18891   0.45500   0.00000  Uiso   1.00
H358   H     0.69430   0.25136   0.05223   0.00000  Uiso   1.00
H359   H     0.10525   0.52511   0.28841   0.00000  Uiso   1.00
O360   O     0.37070   0.07451   0.45866   0.00000  Uiso   1.00
O361   O     0.76213   0.15645   0.93025   0.00000  Uiso   1.00
O362   O     0.98931   0.51560   0.24010   0.00000  Uiso   1.00
N363   N     0.35845   0.08539   0.35725   0.00000  Uiso   1.00
N364   N     0.63741   0.14376   0.98069   0.00000  Uiso   1.00
N365   N     0.08671   0.39970   0.20148   0.00000  Uiso   1.00
N366   N     0.38478   0.16388   0.41701   0.00000  Uiso   1.00
N367   N     0.66374   0.22225   0.04045   0.00000  Uiso   1.00
N368   N     0.11304   0.47819   0.26123   0.00000  Uiso   1.00
C369   C     0.01702   0.77117   0.50718   0.00000  Uiso   1.00
C370   C     0.10018   0.74004   0.51654   0.00000  Uiso   1.00
C371   C     0.17725   0.73898   0.47842   0.00000  Uiso   1.00
C372   C     0.24592   0.70807   0.49492   0.00000  Uiso   1.00
C373   C     0.37629   0.66414   0.50145   0.00000  Uiso   1.00
C374   C     0.95303   0.82449   0.57570   0.00000  Uiso   1.00
C375   C     0.90637   0.89442   0.58731   0.00000  Uiso   1.00
C376   C     0.85115   0.93460   0.65362   0.00000  Uiso   1.00
C377   C     0.75302   0.02176   0.75198   0.00000  Uiso   1.00
C378   C     0.98750   0.71268   0.49586   0.00000  Uiso   1.00
C379   C     0.96980   0.68862   0.44035   0.00000  Uiso   1.00
C380   C     0.94359   0.63467   0.43945   0.00000  Uiso   1.00
C381   C     0.89898   0.54823   0.41385   0.00000  Uiso   1.00
C382   C     0.00193   0.71817   0.60429   0.00000  Uiso   1.00
C383   C     0.09198   0.71125   0.56928   0.00000  Uiso   1.00
C384   C     0.16056   0.68033   0.58585   0.00000  Uiso   1.00
C385   C     0.23771   0.67922   0.54776   0.00000  Uiso   1.00
C386   C     0.94483   0.79570   0.62844   0.00000  Uiso   1.00
C387   C     0.88967   0.83578   0.69474   0.00000  Uiso   1.00
C388   C     0.84294   0.90576   0.70646   0.00000  Uiso   1.00
C389   C     0.97931   0.68388   0.54860   0.00000  Uiso   1.00
C390   C     0.95311   0.62997   0.54779   0.00000  Uiso   1.00
C391   C     0.93538   0.60582   0.49229   0.00000  Uiso   1.00
H392   H     0.02340   0.79359   0.46612   0.00000  Uiso   1.00
H393   H     0.18357   0.76127   0.43761   0.00000  Uiso   1.00
H394   H     0.91272   0.91669   0.54648   0.00000  Uiso   1.00
H395   H     0.97615   0.71091   0.39955   0.00000  Uiso   1.00
H396   H     0.35752   0.71277   0.42927   0.00000  Uiso   1.00
H397   H     0.78640   0.04046   0.65883   0.00000  Uiso   1.00
H398   H     0.92015   0.60654   0.34899   0.00000  Uiso   1.00
H399   H     0.99555   0.69575   0.64535   0.00000  Uiso   1.00
H400   H     0.15420   0.65806   0.62667   0.00000  Uiso   1.00
H401   H     0.88334   0.81348   0.73555   0.00000  Uiso   1.00
H402   H     0.94678   0.60770   0.58861   0.00000  Uiso   1.00
H403   H     0.33368   0.62899   0.58272   0.00000  Uiso   1.00
H404   H     0.76256   0.95669   0.81229   0.00000  Uiso   1.00
H405   H     0.89632   0.52277   0.50245   0.00000  Uiso   1.00
O406   O     0.45046   0.64787   0.49049   0.00000  Uiso   1.00
O407   O     0.70116   0.07779   0.79166   0.00000  Uiso   1.00
O408   O     0.87665   0.50850   0.38516   0.00000  Uiso   1.00
N409   N     0.33014   0.69821   0.46794   0.00000  Uiso   1.00
N410   N     0.79619   0.00459   0.68257   0.00000  Uiso   1.00
N411   N     0.92122   0.59892   0.39290   0.00000  Uiso   1.00
N412   N     0.31732   0.65313   0.55051   0.00000  Uiso   1.00
N413   N     0.78336   0.95951   0.76514   0.00000  Uiso   1.00
N414   N     0.90839   0.55384   0.47548   0.00000  Uiso   1.00
C415   C     0.05103   0.63454   0.99048   0.00000  Uiso   1.00
C416   C     0.11658   0.65075   0.01323   0.00000  Uiso   1.00
C417   C     0.20384   0.61280   0.98218   0.00000  Uiso   1.00
C418   C     0.25299   0.63610   0.01075   0.00000  Uiso   1.00
C419   C     0.36037   0.65225   0.03735   0.00000  Uiso   1.00
C420   C     0.99074   0.62737   0.05166   0.00000  Uiso   1.00
C421   C     0.97219   0.56978   0.05291   0.00000  Uiso   1.00
C422   C     0.91540   0.57341   0.11383   0.00000  Uiso   1.00
C423   C     0.82736   0.55330   0.20008   0.00000  Uiso   1.00
C424   C     0.99926   0.70010   0.97915   0.00000  Uiso   1.00
C425   C     0.98786   0.70366   0.91945   0.00000  Uiso   1.00
C426   C     0.93822   0.76852   0.91933   0.00000  Uiso   1.00
C427   C     0.86342   0.86133   0.89299   0.00000  Uiso   1.00
C428   C     0.98314   0.74341   0.09643   0.00000  Uiso   1.00
C429   C     0.07970   0.70988   0.07078   0.00000  Uiso   1.00
C430   C     0.12873   0.73325   0.09941   0.00000  Uiso   1.00
C431   C     0.21605   0.69534   0.06840   0.00000  Uiso   1.00
C432   C     0.95386   0.68650   0.10921   0.00000  Uiso   1.00
C433   C     0.89708   0.69023   0.17014   0.00000  Uiso   1.00
C434   C     0.87845   0.63265   0.17149   0.00000  Uiso   1.00
C435   C     0.96238   0.75924   0.03670   0.00000  Uiso   1.00
C436   C     0.91275   0.82411   0.03667   0.00000  Uiso   1.00
C437   C     0.90128   0.82776   0.97698   0.00000  Uiso   1.00
H438   H     0.07974   0.58850   0.94567   0.00000  Uiso   1.00
H439   H     0.23236   0.56704   0.93765   0.00000  Uiso   1.00
H440   H     0.00073   0.52403   0.00837   0.00000  Uiso   1.00
H441   H     0.01640   0.65789   0.87492   0.00000  Uiso   1.00
H442   H     0.38529   0.56930   0.95415   0.00000  Uiso   1.00
H443   H     0.89688   0.47862   0.10326   0.00000  Uiso   1.00
H444   H     0.92992   0.76089   0.82186   0.00000  Uiso   1.00
H445   H     0.95443   0.78945   0.14124   0.00000  Uiso   1.00
H446   H     0.10017   0.77901   0.14394   0.00000  Uiso   1.00
H447   H     0.86855   0.73600   0.21466   0.00000  Uiso   1.00
H448   H     0.88422   0.86986   0.08122   0.00000  Uiso   1.00
H449   H     0.27801   0.74134   0.12158   0.00000  Uiso   1.00
H450   H     0.78959   0.65067   0.27069   0.00000  Uiso   1.00
H451   H     0.82264   0.93293   0.98930   0.00000  Uiso   1.00
O452   O     0.42979   0.64482   0.03613   0.00000  Uiso   1.00
O453   O     0.78900   0.52586   0.23175   0.00000  Uiso   1.00
O454   O     0.83235   0.89618   0.86257   0.00000  Uiso   1.00
N455   N     0.34004   0.61123   0.99317   0.00000  Uiso   1.00
N456   N     0.88342   0.52645   0.13258   0.00000  Uiso   1.00
N457   N     0.91429   0.79034   0.86951   0.00000  Uiso   1.00
N458   N     0.28232   0.70381   0.08327   0.00000  Uiso   1.00
N459   N     0.82569   0.61902   0.22268   0.00000  Uiso   1.00
N460   N     0.85656   0.88292   0.95960   0.00000  Uiso   1.00
C461   C     0.63453   0.27191   0.38310   0.00000  Uiso   1.00
C462   C     0.67702   0.23740   0.42590   0.00000  Uiso   1.00
C463   C     0.63606   0.22605   0.48458   0.00000  Uiso   1.00
C464   C     0.68620   0.19369   0.51636   0.00000  Uiso   1.00
C465   C     0.73880   0.14321   0.58678   0.00000  Uiso   1.00
C466   C     0.65877   0.33303   0.37910   0.00000  Uiso   1.00
C467   C     0.60245   0.40208   0.39843   0.00000  Uiso   1.00
C468   C     0.63723   0.45021   0.39080   0.00000  Uiso   1.00
C469   C     0.66148   0.54819   0.38852   0.00000  Uiso   1.00
C470   C     0.67876   0.21977   0.31148   0.00000  Uiso   1.00
C471   C     0.63925   0.19361   0.27394   0.00000  Uiso   1.00
C472   C     0.69087   0.14640   0.20937   0.00000  Uiso   1.00
C473   C     0.74616   0.06853   0.10210   0.00000  Uiso   1.00
C474   C     0.79644   0.23462   0.33517   0.00000  Uiso   1.00
C475   C     0.76496   0.21715   0.39986   0.00000  Uiso   1.00
C476   C     0.81519   0.18479   0.43155   0.00000  Uiso   1.00
C477   C     0.77430   0.17340   0.49028   0.00000  Uiso   1.00
C478   C     0.74670   0.31277   0.35306   0.00000  Uiso   1.00
C479   C     0.78158   0.36082   0.34540   0.00000  Uiso   1.00
C480   C     0.72533   0.42993   0.36472   0.00000  Uiso   1.00
C481   C     0.76670   0.19951   0.28544   0.00000  Uiso   1.00
C482   C     0.81838   0.15235   0.22091   0.00000  Uiso   1.00
C483   C     0.77896   0.12612   0.18329   0.00000  Uiso   1.00
H484   H     0.56607   0.28769   0.40337   0.00000  Uiso   1.00
H485   H     0.56800   0.24174   0.50472   0.00000  Uiso   1.00
H486   H     0.53440   0.41773   0.41857   0.00000  Uiso   1.00
H487   H     0.57120   0.20929   0.29411   0.00000  Uiso   1.00
H488   H     0.60892   0.18189   0.60561   0.00000  Uiso   1.00
H489   H     0.53807   0.55298   0.42394   0.00000  Uiso   1.00
H490   H     0.61567   0.11345   0.16148   0.00000  Uiso   1.00
H491   H     0.86491   0.21886   0.31490   0.00000  Uiso   1.00
H492   H     0.88324   0.16913   0.41139   0.00000  Uiso   1.00
H493   H     0.84963   0.34513   0.32524   0.00000  Uiso   1.00
H494   H     0.88643   0.13669   0.20078   0.00000  Uiso   1.00
H495   H     0.86478   0.12296   0.52987   0.00000  Uiso   1.00
H496   H     0.79393   0.49405   0.34819   0.00000  Uiso   1.00
H497   H     0.87152   0.05452   0.08574   0.00000  Uiso   1.00
O498   O     0.74351   0.12097   0.63282   0.00000  Uiso   1.00
O499   O     0.65056   0.60783   0.39446   0.00000  Uiso   1.00
O500   O     0.75236   0.03117   0.05013   0.00000  Uiso   1.00
N501   N     0.66662   0.17483   0.57454   0.00000  Uiso   1.00
N502   N     0.60038   0.52178   0.40469   0.00000  Uiso   1.00
N503   N     0.67293   0.11087   0.15931   0.00000  Uiso   1.00
N504   N     0.80430   0.14312   0.53378   0.00000  Uiso   1.00
N505   N     0.73806   0.49007   0.36393   0.00000  Uiso   1.00
N506   N     0.81060   0.07916   0.11855   0.00000  Uiso   1.00
C507   C     0.43795   0.02109   0.64197   0.00000  Uiso   1.00
C508   C     0.46235   0.00833   0.70116   0.00000  Uiso   1.00
C509   C     0.49991   0.04339   0.73311   0.00000  Uiso   1.00
C510   C     0.51727   0.02406   0.78627   0.00000  Uiso   1.00
C511   C     0.55817   0.01221   0.87504   0.00000  Uiso   1.00
C512   C     0.48334   0.95107   0.58544   0.00000  Uiso   1.00
C513   C     0.53854   0.93799   0.52009   0.00000  Uiso   1.00
C514   C     0.57357   0.87045   0.47583   0.00000  Uiso   1.00
C515   C     0.64701   0.76971   0.38493   0.00000  Uiso   1.00
C516   C     0.34352   0.03761   0.66508   0.00000  Uiso   1.00
C517   C     0.28115   0.09729   0.66667   0.00000  Uiso   1.00
C518   C     0.19846   0.10260   0.68946   0.00000  Uiso   1.00
C519   C     0.05481   0.13624   0.72221   0.00000  Uiso   1.00
C520   C     0.40200   0.92440   0.67957   0.00000  Uiso   1.00
C521   C     0.44283   0.95581   0.72158   0.00000  Uiso   1.00
C522   C     0.46013   0.93642   0.77470   0.00000  Uiso   1.00
C523   C     0.49771   0.97145   0.80673   0.00000  Uiso   1.00
C524   C     0.46382   0.89855   0.60585   0.00000  Uiso   1.00
C525   C     0.49877   0.83102   0.56168   0.00000  Uiso   1.00
C526   C     0.55401   0.81784   0.49629   0.00000  Uiso   1.00
C527   C     0.32399   0.98509   0.68550   0.00000  Uiso   1.00
C528   C     0.24138   0.99032   0.70828   0.00000  Uiso   1.00
C529   C     0.17890   0.04999   0.70991   0.00000  Uiso   1.00
H530   H     0.45315   0.06197   0.62607   0.00000  Uiso   1.00
H531   H     0.51502   0.08403   0.71728   0.00000  Uiso   1.00
H532   H     0.55363   0.97864   0.50430   0.00000  Uiso   1.00
H533   H     0.29629   0.13792   0.65087   0.00000  Uiso   1.00
H534   H     0.57502   0.08530   0.82740   0.00000  Uiso   1.00
H535   H     0.65643   0.86310   0.37830   0.00000  Uiso   1.00
H536   H     0.11376   0.19896   0.68737   0.00000  Uiso   1.00
H537   H     0.38680   0.88352   0.69547   0.00000  Uiso   1.00
H538   H     0.44502   0.89578   0.79050   0.00000  Uiso   1.00
H539   H     0.48364   0.79039   0.57750   0.00000  Uiso   1.00
H540   H     0.22629   0.94967   0.72408   0.00000  Uiso   1.00
H541   H     0.51821   0.93251   0.88682   0.00000  Uiso   1.00
H542   H     0.59962   0.71030   0.43771   0.00000  Uiso   1.00
H543   H     0.05695   0.04616   0.74679   0.00000  Uiso   1.00
O544   O     0.58614   0.02017   0.91836   0.00000  Uiso   1.00
O545   O     0.69293   0.72866   0.32915   0.00000  Uiso   1.00
O546   O     0.98097   0.16930   0.73465   0.00000  Uiso   1.00
N547   N     0.55365   0.04767   0.82836   0.00000  Uiso   1.00
N548   N     0.62977   0.83992   0.40847   0.00000  Uiso   1.00
N549   N     0.12242   0.15391   0.69741   0.00000  Uiso   1.00
N550   N     0.52308   0.96545   0.86033   0.00000  Uiso   1.00
N551   N     0.59920   0.75770   0.44044   0.00000  Uiso   1.00
N552   N     0.09185   0.07169   0.72938   0.00000  Uiso   1.00
