data_job_03497
_audit_creation_date              2018-12-19
_audit_creation_method            'Materials Studio'
_symmetry_space_group_name_H-M    'P1'
_symmetry_Int_Tables_number       1
_symmetry_cell_setting            triclinic
loop_
_symmetry_equiv_pos_as_xyz
  x,y,z
_cell_length_a                    27.0400
_cell_length_b                    8.3890
_cell_length_c                    30.3054
_cell_angle_alpha                 90.0000
_cell_angle_beta                  90.0000
_cell_angle_gamma                 90.0000
loop_
_atom_site_label
_atom_site_type_symbol
_atom_site_fract_x
_atom_site_fract_y
_atom_site_fract_z
_atom_site_U_iso_or_equiv
_atom_site_adp_type
_atom_site_occupancy
C1     C     0.62289   0.82930   0.82214   0.00000  Uiso   1.00
C2     C     0.67641   0.77980   0.81418   0.00000  Uiso   1.00
C3     C     0.71797   0.86583   0.82661   0.00000  Uiso   1.00
C4     C     0.76368   0.80024   0.81632   0.00000  Uiso   1.00
C5     C     0.84619   0.74567   0.80728   0.00000  Uiso   1.00
C6     C     0.59816   0.83076   0.77692   0.00000  Uiso   1.00
C7     C     0.57392   0.95963   0.75803   0.00000  Uiso   1.00
C8     C     0.55374   0.93692   0.71637   0.00000  Uiso   1.00
C9     C     0.51473   0.96144   0.64949   0.00000  Uiso   1.00
C10    C     0.59907   0.69269   0.84763   0.00000  Uiso   1.00
C11    C     0.57558   0.70547   0.88820   0.00000  Uiso   1.00
C12    C     0.55616   0.56652   0.90608   0.00000  Uiso   1.00
C13    C     0.51857   0.37667   0.94900   0.00000  Uiso   1.00
C14    C     0.63015   0.55982   0.78175   0.00000  Uiso   1.00
C15    C     0.68036   0.63343   0.79224   0.00000  Uiso   1.00
C16    C     0.72601   0.56768   0.78192   0.00000  Uiso   1.00
C17    C     0.76763   0.65360   0.79434   0.00000  Uiso   1.00
C18    C     0.60210   0.68439   0.75498   0.00000  Uiso   1.00
C19    C     0.58196   0.66148   0.71334   0.00000  Uiso   1.00
C20    C     0.55770   0.79029   0.69439   0.00000  Uiso   1.00
C21    C     0.60301   0.54631   0.82570   0.00000  Uiso   1.00
C22    C     0.58362   0.40732   0.84351   0.00000  Uiso   1.00
C23    C     0.56012   0.41989   0.88410   0.00000  Uiso   1.00
H24    H     0.61981   0.94326   0.83922   0.00000  Uiso   1.00
H25    H     0.71490   0.97911   0.84359   0.00000  Uiso   1.00
H26    H     0.57086   0.07288   0.77501   0.00000  Uiso   1.00
H27    H     0.57253   0.81876   0.90517   0.00000  Uiso   1.00
H28    H     0.82207   0.95433   0.83874   0.00000  Uiso   1.00
H29    H     0.51834   0.15204   0.69416   0.00000  Uiso   1.00
H30    H     0.52186   0.61619   0.96861   0.00000  Uiso   1.00
H31    H     0.63322   0.44586   0.76466   0.00000  Uiso   1.00
H32    H     0.72905   0.45441   0.76495   0.00000  Uiso   1.00
H33    H     0.58501   0.54819   0.69637   0.00000  Uiso   1.00
H34    H     0.58668   0.29407   0.82652   0.00000  Uiso   1.00
H35    H     0.83356   0.52847   0.77491   0.00000  Uiso   1.00
H36    H     0.52983   0.72619   0.63033   0.00000  Uiso   1.00
H37    H     0.53335   0.19033   0.90478   0.00000  Uiso   1.00
O38    O     0.89061   0.75602   0.80835   0.00000  Uiso   1.00
O39    O     0.49213   0.01541   0.61866   0.00000  Uiso   1.00
O40    O     0.49675   0.31238   0.97874   0.00000  Uiso   1.00
N41    N     0.81162   0.85291   0.82369   0.00000  Uiso   1.00
N42    N     0.52766   0.03777   0.68851   0.00000  Uiso   1.00
N43    N     0.53094   0.53680   0.94510   0.00000  Uiso   1.00
N44    N     0.81780   0.62376   0.78934   0.00000  Uiso   1.00
N45    N     0.53384   0.80862   0.65416   0.00000  Uiso   1.00
N46    N     0.53712   0.30765   0.91075   0.00000  Uiso   1.00
C47    C     0.12289   0.32930   0.82214   0.00000  Uiso   1.00
C48    C     0.17641   0.27980   0.81418   0.00000  Uiso   1.00
C49    C     0.21797   0.36583   0.82661   0.00000  Uiso   1.00
C50    C     0.26368   0.30024   0.81632   0.00000  Uiso   1.00
C51    C     0.34619   0.24567   0.80728   0.00000  Uiso   1.00
C52    C     0.09816   0.33076   0.77692   0.00000  Uiso   1.00
C53    C     0.07392   0.45963   0.75803   0.00000  Uiso   1.00
C54    C     0.05374   0.43692   0.71637   0.00000  Uiso   1.00
C55    C     0.01473   0.46144   0.64949   0.00000  Uiso   1.00
C56    C     0.09907   0.19269   0.84763   0.00000  Uiso   1.00
C57    C     0.07558   0.20547   0.88820   0.00000  Uiso   1.00
C58    C     0.05616   0.06652   0.90608   0.00000  Uiso   1.00
C59    C     0.01857   0.87667   0.94900   0.00000  Uiso   1.00
C60    C     0.13015   0.05982   0.78175   0.00000  Uiso   1.00
C61    C     0.18036   0.13343   0.79224   0.00000  Uiso   1.00
C62    C     0.22601   0.06768   0.78192   0.00000  Uiso   1.00
C63    C     0.26763   0.15360   0.79434   0.00000  Uiso   1.00
C64    C     0.10210   0.18439   0.75498   0.00000  Uiso   1.00
C65    C     0.08196   0.16148   0.71334   0.00000  Uiso   1.00
C66    C     0.05770   0.29029   0.69439   0.00000  Uiso   1.00
C67    C     0.10301   0.04631   0.82570   0.00000  Uiso   1.00
C68    C     0.08362   0.90732   0.84351   0.00000  Uiso   1.00
C69    C     0.06012   0.91989   0.88410   0.00000  Uiso   1.00
H70    H     0.11981   0.44326   0.83922   0.00000  Uiso   1.00
H71    H     0.21490   0.47911   0.84359   0.00000  Uiso   1.00
H72    H     0.07086   0.57288   0.77501   0.00000  Uiso   1.00
H73    H     0.07253   0.31876   0.90517   0.00000  Uiso   1.00
H74    H     0.32207   0.45433   0.83874   0.00000  Uiso   1.00
H75    H     0.01834   0.65204   0.69416   0.00000  Uiso   1.00
H76    H     0.02186   0.11619   0.96861   0.00000  Uiso   1.00
H77    H     0.13322   0.94586   0.76466   0.00000  Uiso   1.00
H78    H     0.22905   0.95441   0.76495   0.00000  Uiso   1.00
H79    H     0.08501   0.04819   0.69637   0.00000  Uiso   1.00
H80    H     0.08668   0.79407   0.82652   0.00000  Uiso   1.00
H81    H     0.33356   0.02847   0.77491   0.00000  Uiso   1.00
H82    H     0.02983   0.22619   0.63033   0.00000  Uiso   1.00
H83    H     0.03335   0.69033   0.90478   0.00000  Uiso   1.00
O84    O     0.39061   0.25602   0.80835   0.00000  Uiso   1.00
O85    O     0.99213   0.51541   0.61866   0.00000  Uiso   1.00
O86    O     0.99675   0.81238   0.97874   0.00000  Uiso   1.00
N87    N     0.31162   0.35291   0.82369   0.00000  Uiso   1.00
N88    N     0.02766   0.53777   0.68851   0.00000  Uiso   1.00
N89    N     0.03094   0.03680   0.94510   0.00000  Uiso   1.00
N90    N     0.31780   0.12376   0.78934   0.00000  Uiso   1.00
N91    N     0.03384   0.30862   0.65416   0.00000  Uiso   1.00
N92    N     0.03712   0.80765   0.91075   0.00000  Uiso   1.00
C93    C     0.37711   0.17070   0.32214   0.00000  Uiso   1.00
C94    C     0.32359   0.22020   0.31418   0.00000  Uiso   1.00
C95    C     0.28203   0.13417   0.32661   0.00000  Uiso   1.00
C96    C     0.23632   0.19976   0.31632   0.00000  Uiso   1.00
C97    C     0.15381   0.25433   0.30728   0.00000  Uiso   1.00
C98    C     0.40184   0.16924   0.27692   0.00000  Uiso   1.00
C99    C     0.42608   0.04037   0.25803   0.00000  Uiso   1.00
C100   C     0.44626   0.06308   0.21637   0.00000  Uiso   1.00
C101   C     0.48527   0.03856   0.14949   0.00000  Uiso   1.00
C102   C     0.40093   0.30731   0.34763   0.00000  Uiso   1.00
C103   C     0.42442   0.29453   0.38820   0.00000  Uiso   1.00
C104   C     0.44384   0.43348   0.40608   0.00000  Uiso   1.00
C105   C     0.48143   0.62333   0.44900   0.00000  Uiso   1.00
C106   C     0.36985   0.44018   0.28175   0.00000  Uiso   1.00
C107   C     0.31964   0.36657   0.29224   0.00000  Uiso   1.00
C108   C     0.27399   0.43232   0.28192   0.00000  Uiso   1.00
C109   C     0.23237   0.34640   0.29434   0.00000  Uiso   1.00
C110   C     0.39790   0.31561   0.25498   0.00000  Uiso   1.00
C111   C     0.41804   0.33852   0.21334   0.00000  Uiso   1.00
C112   C     0.44230   0.20971   0.19439   0.00000  Uiso   1.00
C113   C     0.39699   0.45369   0.32570   0.00000  Uiso   1.00
C114   C     0.41638   0.59268   0.34351   0.00000  Uiso   1.00
C115   C     0.43988   0.58011   0.38410   0.00000  Uiso   1.00
H116   H     0.38019   0.05674   0.33922   0.00000  Uiso   1.00
H117   H     0.28510   0.02089   0.34359   0.00000  Uiso   1.00
H118   H     0.42914   0.92712   0.27501   0.00000  Uiso   1.00
H119   H     0.42747   0.18124   0.40517   0.00000  Uiso   1.00
H120   H     0.17793   0.04567   0.33874   0.00000  Uiso   1.00
H121   H     0.48166   0.84796   0.19416   0.00000  Uiso   1.00
H122   H     0.47814   0.38381   0.46861   0.00000  Uiso   1.00
H123   H     0.36678   0.55414   0.26466   0.00000  Uiso   1.00
H124   H     0.27095   0.54559   0.26495   0.00000  Uiso   1.00
H125   H     0.41499   0.45181   0.19637   0.00000  Uiso   1.00
H126   H     0.41332   0.70593   0.32652   0.00000  Uiso   1.00
H127   H     0.16644   0.47153   0.27491   0.00000  Uiso   1.00
H128   H     0.47017   0.27381   0.13033   0.00000  Uiso   1.00
H129   H     0.46665   0.80967   0.40478   0.00000  Uiso   1.00
O130   O     0.10939   0.24398   0.30835   0.00000  Uiso   1.00
O131   O     0.50787   0.98459   0.11866   0.00000  Uiso   1.00
O132   O     0.50325   0.68762   0.47874   0.00000  Uiso   1.00
N133   N     0.18838   0.14709   0.32369   0.00000  Uiso   1.00
N134   N     0.47234   0.96223   0.18851   0.00000  Uiso   1.00
N135   N     0.46906   0.46320   0.44510   0.00000  Uiso   1.00
N136   N     0.18220   0.37624   0.28934   0.00000  Uiso   1.00
N137   N     0.46616   0.19138   0.15416   0.00000  Uiso   1.00
N138   N     0.46288   0.69235   0.41075   0.00000  Uiso   1.00
C139   C     0.87711   0.67070   0.32214   0.00000  Uiso   1.00
C140   C     0.82359   0.72020   0.31418   0.00000  Uiso   1.00
C141   C     0.78203   0.63417   0.32661   0.00000  Uiso   1.00
C142   C     0.73632   0.69976   0.31632   0.00000  Uiso   1.00
C143   C     0.65381   0.75433   0.30728   0.00000  Uiso   1.00
C144   C     0.90184   0.66924   0.27692   0.00000  Uiso   1.00
C145   C     0.92608   0.54037   0.25803   0.00000  Uiso   1.00
C146   C     0.94626   0.56308   0.21637   0.00000  Uiso   1.00
C147   C     0.98527   0.53856   0.14949   0.00000  Uiso   1.00
C148   C     0.90093   0.80731   0.34763   0.00000  Uiso   1.00
C149   C     0.92442   0.79453   0.38820   0.00000  Uiso   1.00
C150   C     0.94384   0.93348   0.40608   0.00000  Uiso   1.00
C151   C     0.98143   0.12333   0.44900   0.00000  Uiso   1.00
C152   C     0.86985   0.94018   0.28175   0.00000  Uiso   1.00
C153   C     0.81964   0.86657   0.29224   0.00000  Uiso   1.00
C154   C     0.77399   0.93232   0.28192   0.00000  Uiso   1.00
C155   C     0.73237   0.84640   0.29434   0.00000  Uiso   1.00
C156   C     0.89790   0.81561   0.25498   0.00000  Uiso   1.00
C157   C     0.91804   0.83852   0.21334   0.00000  Uiso   1.00
C158   C     0.94230   0.70971   0.19439   0.00000  Uiso   1.00
C159   C     0.89699   0.95369   0.32570   0.00000  Uiso   1.00
C160   C     0.91638   0.09268   0.34351   0.00000  Uiso   1.00
C161   C     0.93988   0.08011   0.38410   0.00000  Uiso   1.00
H162   H     0.88019   0.55674   0.33922   0.00000  Uiso   1.00
H163   H     0.78510   0.52089   0.34359   0.00000  Uiso   1.00
H164   H     0.92914   0.42712   0.27501   0.00000  Uiso   1.00
H165   H     0.92747   0.68124   0.40517   0.00000  Uiso   1.00
H166   H     0.67793   0.54567   0.33874   0.00000  Uiso   1.00
H167   H     0.98166   0.34796   0.19416   0.00000  Uiso   1.00
H168   H     0.97814   0.88381   0.46861   0.00000  Uiso   1.00
H169   H     0.86678   0.05414   0.26466   0.00000  Uiso   1.00
H170   H     0.77095   0.04559   0.26495   0.00000  Uiso   1.00
H171   H     0.91499   0.95181   0.19637   0.00000  Uiso   1.00
H172   H     0.91332   0.20593   0.32652   0.00000  Uiso   1.00
H173   H     0.66644   0.97153   0.27491   0.00000  Uiso   1.00
H174   H     0.97017   0.77381   0.13033   0.00000  Uiso   1.00
H175   H     0.96665   0.30967   0.40478   0.00000  Uiso   1.00
O176   O     0.60939   0.74398   0.30835   0.00000  Uiso   1.00
O177   O     0.00787   0.48459   0.11866   0.00000  Uiso   1.00
O178   O     0.00325   0.18762   0.47874   0.00000  Uiso   1.00
N179   N     0.68838   0.64709   0.32369   0.00000  Uiso   1.00
N180   N     0.97234   0.46223   0.18851   0.00000  Uiso   1.00
N181   N     0.96906   0.96320   0.44510   0.00000  Uiso   1.00
N182   N     0.68220   0.87624   0.28934   0.00000  Uiso   1.00
N183   N     0.96616   0.69138   0.15416   0.00000  Uiso   1.00
N184   N     0.96288   0.19235   0.41075   0.00000  Uiso   1.00
C185   C     0.37711   0.82930   0.67786   0.00000  Uiso   1.00
C186   C     0.32359   0.77980   0.68582   0.00000  Uiso   1.00
C187   C     0.28203   0.86583   0.67339   0.00000  Uiso   1.00
C188   C     0.23632   0.80024   0.68368   0.00000  Uiso   1.00
C189   C     0.15381   0.74567   0.69272   0.00000  Uiso   1.00
C190   C     0.40184   0.83076   0.72308   0.00000  Uiso   1.00
C191   C     0.42608   0.95963   0.74197   0.00000  Uiso   1.00
C192   C     0.44626   0.93692   0.78363   0.00000  Uiso   1.00
C193   C     0.48527   0.96144   0.85051   0.00000  Uiso   1.00
C194   C     0.40093   0.69269   0.65237   0.00000  Uiso   1.00
C195   C     0.42442   0.70547   0.61180   0.00000  Uiso   1.00
C196   C     0.44384   0.56652   0.59392   0.00000  Uiso   1.00
C197   C     0.48143   0.37667   0.55100   0.00000  Uiso   1.00
C198   C     0.36985   0.55982   0.71825   0.00000  Uiso   1.00
C199   C     0.31964   0.63343   0.70776   0.00000  Uiso   1.00
C200   C     0.27399   0.56768   0.71808   0.00000  Uiso   1.00
C201   C     0.23237   0.65360   0.70566   0.00000  Uiso   1.00
C202   C     0.39790   0.68439   0.74502   0.00000  Uiso   1.00
C203   C     0.41804   0.66148   0.78666   0.00000  Uiso   1.00
C204   C     0.44230   0.79029   0.80561   0.00000  Uiso   1.00
C205   C     0.39699   0.54631   0.67430   0.00000  Uiso   1.00
C206   C     0.41638   0.40732   0.65649   0.00000  Uiso   1.00
C207   C     0.43988   0.41989   0.61590   0.00000  Uiso   1.00
H208   H     0.38019   0.94326   0.66078   0.00000  Uiso   1.00
H209   H     0.28510   0.97911   0.65641   0.00000  Uiso   1.00
H210   H     0.42914   0.07288   0.72499   0.00000  Uiso   1.00
H211   H     0.42747   0.81876   0.59483   0.00000  Uiso   1.00
H212   H     0.17793   0.95433   0.66126   0.00000  Uiso   1.00
H213   H     0.48166   0.15204   0.80584   0.00000  Uiso   1.00
H214   H     0.47814   0.61619   0.53139   0.00000  Uiso   1.00
H215   H     0.36678   0.44586   0.73534   0.00000  Uiso   1.00
H216   H     0.27095   0.45441   0.73505   0.00000  Uiso   1.00
H217   H     0.41499   0.54819   0.80363   0.00000  Uiso   1.00
H218   H     0.41332   0.29407   0.67348   0.00000  Uiso   1.00
H219   H     0.16644   0.52847   0.72509   0.00000  Uiso   1.00
H220   H     0.47017   0.72619   0.86967   0.00000  Uiso   1.00
H221   H     0.46665   0.19033   0.59522   0.00000  Uiso   1.00
O222   O     0.10939   0.75602   0.69165   0.00000  Uiso   1.00
O223   O     0.50787   0.01541   0.88134   0.00000  Uiso   1.00
O224   O     0.50325   0.31238   0.52126   0.00000  Uiso   1.00
N225   N     0.18838   0.85291   0.67631   0.00000  Uiso   1.00
N226   N     0.47234   0.03777   0.81149   0.00000  Uiso   1.00
N227   N     0.46906   0.53680   0.55490   0.00000  Uiso   1.00
N228   N     0.18220   0.62376   0.71066   0.00000  Uiso   1.00
N229   N     0.46616   0.80862   0.84584   0.00000  Uiso   1.00
N230   N     0.46288   0.30765   0.58925   0.00000  Uiso   1.00
C231   C     0.87711   0.32930   0.67786   0.00000  Uiso   1.00
C232   C     0.82359   0.27980   0.68582   0.00000  Uiso   1.00
C233   C     0.78203   0.36583   0.67339   0.00000  Uiso   1.00
C234   C     0.73632   0.30024   0.68368   0.00000  Uiso   1.00
C235   C     0.65381   0.24567   0.69272   0.00000  Uiso   1.00
C236   C     0.90184   0.33076   0.72308   0.00000  Uiso   1.00
C237   C     0.92608   0.45963   0.74197   0.00000  Uiso   1.00
C238   C     0.94626   0.43692   0.78363   0.00000  Uiso   1.00
C239   C     0.98527   0.46144   0.85051   0.00000  Uiso   1.00
C240   C     0.90093   0.19269   0.65237   0.00000  Uiso   1.00
C241   C     0.92442   0.20547   0.61180   0.00000  Uiso   1.00
C242   C     0.94384   0.06652   0.59392   0.00000  Uiso   1.00
C243   C     0.98143   0.87667   0.55100   0.00000  Uiso   1.00
C244   C     0.86985   0.05982   0.71825   0.00000  Uiso   1.00
C245   C     0.81964   0.13343   0.70776   0.00000  Uiso   1.00
C246   C     0.77399   0.06768   0.71808   0.00000  Uiso   1.00
C247   C     0.73237   0.15360   0.70566   0.00000  Uiso   1.00
C248   C     0.89790   0.18439   0.74502   0.00000  Uiso   1.00
C249   C     0.91804   0.16148   0.78666   0.00000  Uiso   1.00
C250   C     0.94230   0.29029   0.80561   0.00000  Uiso   1.00
C251   C     0.89699   0.04631   0.67430   0.00000  Uiso   1.00
C252   C     0.91638   0.90732   0.65649   0.00000  Uiso   1.00
C253   C     0.93988   0.91989   0.61590   0.00000  Uiso   1.00
H254   H     0.88019   0.44326   0.66078   0.00000  Uiso   1.00
H255   H     0.78510   0.47911   0.65641   0.00000  Uiso   1.00
H256   H     0.92914   0.57288   0.72499   0.00000  Uiso   1.00
H257   H     0.92747   0.31876   0.59483   0.00000  Uiso   1.00
H258   H     0.67793   0.45433   0.66126   0.00000  Uiso   1.00
H259   H     0.98166   0.65204   0.80584   0.00000  Uiso   1.00
H260   H     0.97814   0.11619   0.53139   0.00000  Uiso   1.00
H261   H     0.86678   0.94586   0.73534   0.00000  Uiso   1.00
H262   H     0.77095   0.95441   0.73505   0.00000  Uiso   1.00
H263   H     0.91499   0.04819   0.80363   0.00000  Uiso   1.00
H264   H     0.91332   0.79407   0.67348   0.00000  Uiso   1.00
H265   H     0.66644   0.02847   0.72509   0.00000  Uiso   1.00
H266   H     0.97017   0.22619   0.86967   0.00000  Uiso   1.00
H267   H     0.96665   0.69033   0.59522   0.00000  Uiso   1.00
O268   O     0.60939   0.25602   0.69165   0.00000  Uiso   1.00
O269   O     0.00787   0.51541   0.88134   0.00000  Uiso   1.00
O270   O     0.00325   0.81238   0.52126   0.00000  Uiso   1.00
N271   N     0.68838   0.35291   0.67631   0.00000  Uiso   1.00
N272   N     0.97234   0.53777   0.81149   0.00000  Uiso   1.00
N273   N     0.96906   0.03680   0.55490   0.00000  Uiso   1.00
N274   N     0.68220   0.12376   0.71066   0.00000  Uiso   1.00
N275   N     0.96616   0.30862   0.84584   0.00000  Uiso   1.00
N276   N     0.96288   0.80765   0.58925   0.00000  Uiso   1.00
C277   C     0.62289   0.17070   0.17786   0.00000  Uiso   1.00
C278   C     0.67641   0.22020   0.18582   0.00000  Uiso   1.00
C279   C     0.71797   0.13417   0.17339   0.00000  Uiso   1.00
C280   C     0.76368   0.19976   0.18368   0.00000  Uiso   1.00
C281   C     0.84619   0.25433   0.19272   0.00000  Uiso   1.00
C282   C     0.59816   0.16924   0.22308   0.00000  Uiso   1.00
C283   C     0.57392   0.04037   0.24197   0.00000  Uiso   1.00
C284   C     0.55374   0.06308   0.28363   0.00000  Uiso   1.00
C285   C     0.51473   0.03856   0.35051   0.00000  Uiso   1.00
C286   C     0.59907   0.30731   0.15237   0.00000  Uiso   1.00
C287   C     0.57558   0.29453   0.11180   0.00000  Uiso   1.00
C288   C     0.55616   0.43348   0.09392   0.00000  Uiso   1.00
C289   C     0.51857   0.62333   0.05100   0.00000  Uiso   1.00
C290   C     0.63015   0.44018   0.21825   0.00000  Uiso   1.00
C291   C     0.68036   0.36657   0.20776   0.00000  Uiso   1.00
C292   C     0.72601   0.43232   0.21808   0.00000  Uiso   1.00
C293   C     0.76763   0.34640   0.20566   0.00000  Uiso   1.00
C294   C     0.60210   0.31561   0.24502   0.00000  Uiso   1.00
C295   C     0.58196   0.33852   0.28666   0.00000  Uiso   1.00
C296   C     0.55770   0.20971   0.30561   0.00000  Uiso   1.00
C297   C     0.60301   0.45369   0.17430   0.00000  Uiso   1.00
C298   C     0.58362   0.59268   0.15649   0.00000  Uiso   1.00
C299   C     0.56012   0.58011   0.11590   0.00000  Uiso   1.00
H300   H     0.61981   0.05674   0.16078   0.00000  Uiso   1.00
H301   H     0.71490   0.02089   0.15641   0.00000  Uiso   1.00
H302   H     0.57086   0.92712   0.22499   0.00000  Uiso   1.00
H303   H     0.57253   0.18124   0.09483   0.00000  Uiso   1.00
H304   H     0.82207   0.04567   0.16126   0.00000  Uiso   1.00
H305   H     0.51834   0.84796   0.30584   0.00000  Uiso   1.00
H306   H     0.52186   0.38381   0.03139   0.00000  Uiso   1.00
H307   H     0.63322   0.55414   0.23534   0.00000  Uiso   1.00
H308   H     0.72905   0.54559   0.23505   0.00000  Uiso   1.00
H309   H     0.58501   0.45181   0.30363   0.00000  Uiso   1.00
H310   H     0.58668   0.70593   0.17348   0.00000  Uiso   1.00
H311   H     0.83356   0.47153   0.22509   0.00000  Uiso   1.00
H312   H     0.52983   0.27381   0.36967   0.00000  Uiso   1.00
H313   H     0.53335   0.80967   0.09522   0.00000  Uiso   1.00
O314   O     0.89061   0.24398   0.19165   0.00000  Uiso   1.00
O315   O     0.49213   0.98459   0.38134   0.00000  Uiso   1.00
O316   O     0.49675   0.68762   0.02126   0.00000  Uiso   1.00
N317   N     0.81162   0.14709   0.17631   0.00000  Uiso   1.00
N318   N     0.52766   0.96223   0.31149   0.00000  Uiso   1.00
N319   N     0.53094   0.46320   0.05490   0.00000  Uiso   1.00
N320   N     0.81780   0.37624   0.21066   0.00000  Uiso   1.00
N321   N     0.53384   0.19138   0.34584   0.00000  Uiso   1.00
N322   N     0.53712   0.69235   0.08925   0.00000  Uiso   1.00
C323   C     0.12289   0.67070   0.17786   0.00000  Uiso   1.00
C324   C     0.17641   0.72020   0.18582   0.00000  Uiso   1.00
C325   C     0.21797   0.63417   0.17339   0.00000  Uiso   1.00
C326   C     0.26368   0.69976   0.18368   0.00000  Uiso   1.00
C327   C     0.34619   0.75433   0.19272   0.00000  Uiso   1.00
C328   C     0.09816   0.66924   0.22308   0.00000  Uiso   1.00
C329   C     0.07392   0.54037   0.24197   0.00000  Uiso   1.00
C330   C     0.05374   0.56308   0.28363   0.00000  Uiso   1.00
C331   C     0.01473   0.53856   0.35051   0.00000  Uiso   1.00
C332   C     0.09907   0.80731   0.15237   0.00000  Uiso   1.00
C333   C     0.07558   0.79453   0.11180   0.00000  Uiso   1.00
C334   C     0.05616   0.93348   0.09392   0.00000  Uiso   1.00
C335   C     0.01857   0.12333   0.05100   0.00000  Uiso   1.00
C336   C     0.13015   0.94018   0.21825   0.00000  Uiso   1.00
C337   C     0.18036   0.86657   0.20776   0.00000  Uiso   1.00
C338   C     0.22601   0.93232   0.21808   0.00000  Uiso   1.00
C339   C     0.26763   0.84640   0.20566   0.00000  Uiso   1.00
C340   C     0.10210   0.81561   0.24502   0.00000  Uiso   1.00
C341   C     0.08196   0.83852   0.28666   0.00000  Uiso   1.00
C342   C     0.05770   0.70971   0.30561   0.00000  Uiso   1.00
C343   C     0.10301   0.95369   0.17430   0.00000  Uiso   1.00
C344   C     0.08362   0.09268   0.15649   0.00000  Uiso   1.00
C345   C     0.06012   0.08011   0.11590   0.00000  Uiso   1.00
H346   H     0.11981   0.55674   0.16078   0.00000  Uiso   1.00
H347   H     0.21490   0.52089   0.15641   0.00000  Uiso   1.00
H348   H     0.07086   0.42712   0.22499   0.00000  Uiso   1.00
H349   H     0.07253   0.68124   0.09483   0.00000  Uiso   1.00
H350   H     0.32207   0.54567   0.16126   0.00000  Uiso   1.00
H351   H     0.01834   0.34796   0.30584   0.00000  Uiso   1.00
H352   H     0.02186   0.88381   0.03139   0.00000  Uiso   1.00
H353   H     0.13322   0.05414   0.23534   0.00000  Uiso   1.00
H354   H     0.22905   0.04559   0.23505   0.00000  Uiso   1.00
H355   H     0.08501   0.95181   0.30363   0.00000  Uiso   1.00
H356   H     0.08668   0.20593   0.17348   0.00000  Uiso   1.00
H357   H     0.33356   0.97153   0.22509   0.00000  Uiso   1.00
H358   H     0.02983   0.77381   0.36967   0.00000  Uiso   1.00
H359   H     0.03335   0.30967   0.09522   0.00000  Uiso   1.00
O360   O     0.39061   0.74398   0.19165   0.00000  Uiso   1.00
O361   O     0.99213   0.48459   0.38134   0.00000  Uiso   1.00
O362   O     0.99675   0.18762   0.02126   0.00000  Uiso   1.00
N363   N     0.31162   0.64709   0.17631   0.00000  Uiso   1.00
N364   N     0.02766   0.46223   0.31149   0.00000  Uiso   1.00
N365   N     0.03094   0.96320   0.05490   0.00000  Uiso   1.00
N366   N     0.31780   0.87624   0.21066   0.00000  Uiso   1.00
N367   N     0.03384   0.69138   0.34584   0.00000  Uiso   1.00
N368   N     0.03712   0.19235   0.08925   0.00000  Uiso   1.00
