data_job_06461
_audit_creation_date              2018-12-19
_audit_creation_method            'Materials Studio'
_symmetry_space_group_name_H-M    'P1'
_symmetry_Int_Tables_number       1
_symmetry_cell_setting            triclinic
loop_
_symmetry_equiv_pos_as_xyz
  x,y,z
_cell_length_a                    19.0093
_cell_length_b                    19.7744
_cell_length_c                    20.3467
_cell_angle_alpha                 70.1469
_cell_angle_beta                  108.8275
_cell_angle_gamma                 103.6066
loop_
_atom_site_label
_atom_site_type_symbol
_atom_site_fract_x
_atom_site_fract_y
_atom_site_fract_z
_atom_site_U_iso_or_equiv
_atom_site_adp_type
_atom_site_occupancy
C1     C     0.32417   0.41059   0.04522   0.00000  Uiso   1.00
C2     C     0.24794   0.36287   0.03689   0.00000  Uiso   1.00
C3     C     0.22023   0.31705   0.99280   0.00000  Uiso   1.00
C4     C     0.14923   0.27796   0.99272   0.00000  Uiso   1.00
C5     C     0.03720   0.20290   0.97328   0.00000  Uiso   1.00
C6     C     0.30807   0.48791   0.02644   0.00000  Uiso   1.00
C7     C     0.33093   0.54722   0.97357   0.00000  Uiso   1.00
C8     C     0.31056   0.61339   0.96471   0.00000  Uiso   1.00
C9     C     0.29193   0.73247   0.92909   0.00000  Uiso   1.00
C10    C     0.36385   0.38925   0.12597   0.00000  Uiso   1.00
C11    C     0.43361   0.36562   0.15680   0.00000  Uiso   1.00
C12    C     0.46020   0.34875   0.23173   0.00000  Uiso   1.00
C13    C     0.52817   0.31465   0.35065   0.00000  Uiso   1.00
C14    C     0.24735   0.42266   0.12349   0.00000  Uiso   1.00
C15    C     0.20622   0.36943   0.07939   0.00000  Uiso   1.00
C16    C     0.13524   0.33040   0.07939   0.00000  Uiso   1.00
C17    C     0.10743   0.28452   0.03531   0.00000  Uiso   1.00
C18    C     0.26635   0.49447   0.06894   0.00000  Uiso   1.00
C19    C     0.24595   0.56057   0.06016   0.00000  Uiso   1.00
C20    C     0.26876   0.61996   0.00729   0.00000  Uiso   1.00
C21    C     0.32212   0.39581   0.16848   0.00000  Uiso   1.00
C22    C     0.34862   0.37898   0.24338   0.00000  Uiso   1.00
C23    C     0.41841   0.35532   0.27431   0.00000  Uiso   1.00
H24    H     0.35665   0.40549   0.01213   0.00000  Uiso   1.00
H25    H     0.25253   0.31199   0.95991   0.00000  Uiso   1.00
H26    H     0.36322   0.54213   0.94069   0.00000  Uiso   1.00
H27    H     0.46588   0.36056   0.12388   0.00000  Uiso   1.00
H28    H     0.11869   0.21125   0.92073   0.00000  Uiso   1.00
H29    H     0.35211   0.69650   0.88024   0.00000  Uiso   1.00
H30    H     0.56858   0.31363   0.26653   0.00000  Uiso   1.00
H31    H     0.21487   0.42777   0.15658   0.00000  Uiso   1.00
H32    H     0.10297   0.33549   0.11229   0.00000  Uiso   1.00
H33    H     0.21366   0.56563   0.09307   0.00000  Uiso   1.00
H34    H     0.31632   0.38406   0.27626   0.00000  Uiso   1.00
H35    H     0.99730   0.23032   0.04441   0.00000  Uiso   1.00
H36    H     0.23072   0.71558   0.00391   0.00000  Uiso   1.00
H37    H     0.44719   0.33271   0.39021   0.00000  Uiso   1.00
O38    O     0.98693   0.15970   0.95081   0.00000  Uiso   1.00
O39    O     0.29318   0.79634   0.89769   0.00000  Uiso   1.00
O40    O     0.57719   0.29402   0.40449   0.00000  Uiso   1.00
N41    N     0.10548   0.22839   0.95593   0.00000  Uiso   1.00
N42    N     0.32370   0.68207   0.91806   0.00000  Uiso   1.00
N43    N     0.52610   0.32414   0.27921   0.00000  Uiso   1.00
N44    N     0.04016   0.23865   0.02248   0.00000  Uiso   1.00
N45    N     0.25839   0.69234   0.98461   0.00000  Uiso   1.00
N46    N     0.46078   0.33440   0.34576   0.00000  Uiso   1.00
C47    C     0.22843   0.39888   0.70831   0.00000  Uiso   1.00
C48    C     0.29802   0.39734   0.77227   0.00000  Uiso   1.00
C49    C     0.30643   0.34659   0.84001   0.00000  Uiso   1.00
C50    C     0.37441   0.35457   0.89124   0.00000  Uiso   1.00
C51    C     0.47371   0.34357   0.99300   0.00000  Uiso   1.00
C52    C     0.20473   0.47364   0.68667   0.00000  Uiso   1.00
C53    C     0.13470   0.48705   0.68242   0.00000  Uiso   1.00
C54    C     0.12415   0.55926   0.66159   0.00000  Uiso   1.00
C55    C     0.07860   0.66672   0.63040   0.00000  Uiso   1.00
C56    C     0.25501   0.39721   0.64579   0.00000  Uiso   1.00
C57    C     0.22724   0.34638   0.60717   0.00000  Uiso   1.00
C58    C     0.25900   0.35425   0.55191   0.00000  Uiso   1.00
C59    C     0.29151   0.34305   0.45726   0.00000  Uiso   1.00
C60    C     0.33419   0.50328   0.67884   0.00000  Uiso   1.00
C61    C     0.35546   0.45404   0.75626   0.00000  Uiso   1.00
C62    C     0.42344   0.46210   0.80740   0.00000  Uiso   1.00
C63    C     0.43196   0.41137   0.87521   0.00000  Uiso   1.00
C64    C     0.26217   0.53034   0.67066   0.00000  Uiso   1.00
C65    C     0.25172   0.60255   0.64982   0.00000  Uiso   1.00
C66    C     0.18169   0.61607   0.64555   0.00000  Uiso   1.00
C67    C     0.31245   0.45392   0.62979   0.00000  Uiso   1.00
C68    C     0.34425   0.46188   0.57457   0.00000  Uiso   1.00
C69    C     0.31654   0.41106   0.53587   0.00000  Uiso   1.00
H70    H     0.18370   0.35474   0.72077   0.00000  Uiso   1.00
H71    H     0.26196   0.30272   0.85237   0.00000  Uiso   1.00
H72    H     0.09026   0.44316   0.69481   0.00000  Uiso   1.00
H73    H     0.18278   0.30250   0.61957   0.00000  Uiso   1.00
H74    H     0.37405   0.27008   0.99124   0.00000  Uiso   1.00
H75    H     0.01200   0.56619   0.65897   0.00000  Uiso   1.00
H76    H     0.20710   0.26959   0.50032   0.00000  Uiso   1.00
H77    H     0.37891   0.54743   0.66638   0.00000  Uiso   1.00
H78    H     0.46789   0.50598   0.79500   0.00000  Uiso   1.00
H79    H     0.29618   0.64642   0.63744   0.00000  Uiso   1.00
H80    H     0.38871   0.50577   0.56220   0.00000  Uiso   1.00
H81    H     0.54118   0.43505   0.94467   0.00000  Uiso   1.00
H82    H     0.17913   0.73117   0.61241   0.00000  Uiso   1.00
H83    H     0.37424   0.43457   0.45376   0.00000  Uiso   1.00
O84    O     0.51261   0.32184   0.05356   0.00000  Uiso   1.00
O85    O     0.03761   0.71033   0.61763   0.00000  Uiso   1.00
O86    O     0.29359   0.32120   0.40948   0.00000  Uiso   1.00
N87    N     0.40118   0.31458   0.96262   0.00000  Uiso   1.00
N88    N     0.06269   0.59143   0.65199   0.00000  Uiso   1.00
N89    N     0.24508   0.31415   0.50364   0.00000  Uiso   1.00
N90    N     0.49111   0.40335   0.93757   0.00000  Uiso   1.00
N91    N     0.15262   0.68020   0.62693   0.00000  Uiso   1.00
N92    N     0.33501   0.40292   0.47859   0.00000  Uiso   1.00
C93    C     0.89067   0.40574   0.80596   0.00000  Uiso   1.00
C94    C     0.90918   0.41190   0.73641   0.00000  Uiso   1.00
C95    C     0.94296   0.36243   0.72640   0.00000  Uiso   1.00
C96    C     0.95515   0.37786   0.65877   0.00000  Uiso   1.00
C97    C     0.98711   0.37790   0.55924   0.00000  Uiso   1.00
C98    C     0.92981   0.47536   0.82627   0.00000  Uiso   1.00
C99    C     0.98091   0.47924   0.89181   0.00000  Uiso   1.00
C100   C     0.01045   0.54810   0.89982   0.00000  Uiso   1.00
C101   C     0.07438   0.64666   0.93983   0.00000  Uiso   1.00
C102   C     0.80670   0.40904   0.78510   0.00000  Uiso   1.00
C103   C     0.75428   0.35718   0.81603   0.00000  Uiso   1.00
C104   C     0.68017   0.37021   0.78939   0.00000  Uiso   1.00
C105   C     0.55296   0.36580   0.76546   0.00000  Uiso   1.00
C106   C     0.85226   0.52112   0.70367   0.00000  Uiso   1.00
C107   C     0.88832   0.47456   0.68085   0.00000  Uiso   1.00
C108   C     0.90046   0.49007   0.61322   0.00000  Uiso   1.00
C109   C     0.93424   0.44064   0.60310   0.00000  Uiso   1.00
C110   C     0.90895   0.53802   0.77071   0.00000  Uiso   1.00
C111   C     0.93841   0.60689   0.77863   0.00000  Uiso   1.00
C112   C     0.98955   0.61088   0.84416   0.00000  Uiso   1.00
C113   C     0.78583   0.47171   0.72953   0.00000  Uiso   1.00
C114   C     0.71179   0.48482   0.70284   0.00000  Uiso   1.00
C115   C     0.65928   0.43299   0.73372   0.00000  Uiso   1.00
H116   H     0.90691   0.35696   0.84922   0.00000  Uiso   1.00
H117   H     0.95910   0.31394   0.76941   0.00000  Uiso   1.00
H118   H     0.99704   0.43074   0.93480   0.00000  Uiso   1.00
H119   H     0.77045   0.30869   0.85902   0.00000  Uiso   1.00
H120   H     0.00778   0.29390   0.65643   0.00000  Uiso   1.00
H121   H     0.08776   0.54017   0.00517   0.00000  Uiso   1.00
H122   H     0.60995   0.28281   0.84539   0.00000  Uiso   1.00
H123   H     0.83602   0.56991   0.66041   0.00000  Uiso   1.00
H124   H     0.88431   0.53857   0.57023   0.00000  Uiso   1.00
H125   H     0.92225   0.65537   0.73562   0.00000  Uiso   1.00
H126   H     0.69567   0.53332   0.65985   0.00000  Uiso   1.00
H127   H     0.94709   0.47622   0.49477   0.00000  Uiso   1.00
H128   H     0.02706   0.72249   0.84352   0.00000  Uiso   1.00
H129   H     0.54926   0.46513   0.68373   0.00000  Uiso   1.00
O130   O     0.01051   0.36062   0.51970   0.00000  Uiso   1.00
O131   O     0.11542   0.68371   0.97724   0.00000  Uiso   1.00
O132   O     0.48855   0.34606   0.76760   0.00000  Uiso   1.00
N133   N     0.98686   0.34110   0.63076   0.00000  Uiso   1.00
N134   N     0.06164   0.57135   0.95680   0.00000  Uiso   1.00
N135   N     0.61493   0.33075   0.80743   0.00000  Uiso   1.00
N136   N     0.95420   0.43921   0.54377   0.00000  Uiso   1.00
N137   N     0.02898   0.66946   0.86982   0.00000  Uiso   1.00
N138   N     0.58227   0.42885   0.72044   0.00000  Uiso   1.00
C139   C     0.45524   0.88700   0.18554   0.00000  Uiso   1.00
C140   C     0.45598   0.83474   0.26069   0.00000  Uiso   1.00
C141   C     0.49942   0.77892   0.29670   0.00000  Uiso   1.00
C142   C     0.49203   0.73716   0.36506   0.00000  Uiso   1.00
C143   C     0.50069   0.65397   0.47702   0.00000  Uiso   1.00
C144   C     0.47403   0.96313   0.19480   0.00000  Uiso   1.00
C145   C     0.53262   0.01525   0.17540   0.00000  Uiso   1.00
C146   C     0.54042   0.08157   0.18829   0.00000  Uiso   1.00
C147   C     0.57705   0.19772   0.19790   0.00000  Uiso   1.00
C148   C     0.37379   0.88033   0.14046   0.00000  Uiso   1.00
C149   C     0.34810   0.86287   0.07537   0.00000  Uiso   1.00
C150   C     0.27151   0.85950   0.04250   0.00000  Uiso   1.00
C151   C     0.15251   0.84710   0.96775   0.00000  Uiso   1.00
C152   C     0.36489   0.91210   0.24292   0.00000  Uiso   1.00
C153   C     0.40691   0.84838   0.29185   0.00000  Uiso   1.00
C154   C     0.39945   0.80669   0.36018   0.00000  Uiso   1.00
C155   C     0.44287   0.75082   0.39628   0.00000  Uiso   1.00
C156   C     0.42495   0.97676   0.22596   0.00000  Uiso   1.00
C157   C     0.43266   0.04302   0.23888   0.00000  Uiso   1.00
C158   C     0.49125   0.09523   0.21951   0.00000  Uiso   1.00
C159   C     0.32471   0.89397   0.17163   0.00000  Uiso   1.00
C160   C     0.24814   0.89064   0.13885   0.00000  Uiso   1.00
C161   C     0.22235   0.87316   0.07372   0.00000  Uiso   1.00
H162   H     0.49344   0.87639   0.16128   0.00000  Uiso   1.00
H163   H     0.53739   0.76839   0.27257   0.00000  Uiso   1.00
H164   H     0.57058   0.00469   0.15128   0.00000  Uiso   1.00
H165   H     0.38610   0.85232   0.05127   0.00000  Uiso   1.00
H166   H     0.56450   0.65469   0.40970   0.00000  Uiso   1.00
H167   H     0.63447   0.15294   0.15394   0.00000  Uiso   1.00
H168   H     0.24544   0.83164   0.94304   0.00000  Uiso   1.00
H169   H     0.32668   0.92272   0.26718   0.00000  Uiso   1.00
H170   H     0.36147   0.81726   0.38428   0.00000  Uiso   1.00
H171   H     0.39467   0.05356   0.26299   0.00000  Uiso   1.00
H172   H     0.21018   0.90119   0.16298   0.00000  Uiso   1.00
H173   H     0.42172   0.69435   0.50037   0.00000  Uiso   1.00
H174   H     0.49169   0.19261   0.24461   0.00000  Uiso   1.00
H175   H     0.10266   0.87131   0.03371   0.00000  Uiso   1.00
O176   O     0.51902   0.60433   0.53016   0.00000  Uiso   1.00
O177   O     0.61082   0.25801   0.19460   0.00000  Uiso   1.00
O178   O     0.10042   0.83648   0.91791   0.00000  Uiso   1.00
N179   N     0.52611   0.67848   0.41496   0.00000  Uiso   1.00
N180   N     0.59153   0.14432   0.17585   0.00000  Uiso   1.00
N181   N     0.22783   0.84395   0.97867   0.00000  Uiso   1.00
N182   N     0.44928   0.69983   0.46375   0.00000  Uiso   1.00
N183   N     0.51471   0.16566   0.22464   0.00000  Uiso   1.00
N184   N     0.15100   0.86530   0.02746   0.00000  Uiso   1.00
C185   C     0.79018   0.88164   0.29735   0.00000  Uiso   1.00
C186   C     0.72726   0.87294   0.23043   0.00000  Uiso   1.00
C187   C     0.66895   0.81562   0.22844   0.00000  Uiso   1.00
C188   C     0.61699   0.81767   0.16192   0.00000  Uiso   1.00
C189   C     0.51833   0.79546   0.06748   0.00000  Uiso   1.00
C190   C     0.78775   0.95505   0.30509   0.00000  Uiso   1.00
C191   C     0.78031   0.96677   0.36587   0.00000  Uiso   1.00
C192   C     0.77928   0.03795   0.36220   0.00000  Uiso   1.00
C193   C     0.77458   0.14322   0.38368   0.00000  Uiso   1.00
C194   C     0.86334   0.88928   0.27803   0.00000  Uiso   1.00
C195   C     0.91946   0.84572   0.31607   0.00000  Uiso   1.00
C196   C     0.98208   0.86154   0.28963   0.00000  Uiso   1.00
C197   C     0.09475   0.86469   0.26910   0.00000  Uiso   1.00
C198   C     0.80159   0.98721   0.18277   0.00000  Uiso   1.00
C199   C     0.73346   0.93028   0.16820   0.00000  Uiso   1.00
C200   C     0.68157   0.93242   0.10167   0.00000  Uiso   1.00
C201   C     0.62320   0.87511   0.09957   0.00000  Uiso   1.00
C202   C     0.79395   0.01239   0.24285   0.00000  Uiso   1.00
C203   C     0.79293   0.08357   0.23909   0.00000  Uiso   1.00
C204   C     0.78548   0.09540   0.29985   0.00000  Uiso   1.00
C205   C     0.86953   0.94662   0.21579   0.00000  Uiso   1.00
C206   C     0.93208   0.96251   0.18929   0.00000  Uiso   1.00
C207   C     0.98829   0.91898   0.22728   0.00000  Uiso   1.00
H208   H     0.78535   0.83700   0.34581   0.00000  Uiso   1.00
H209   H     0.66417   0.77126   0.27661   0.00000  Uiso   1.00
H210   H     0.77552   0.92239   0.41402   0.00000  Uiso   1.00
H211   H     0.91465   0.80135   0.36423   0.00000  Uiso   1.00
H212   H     0.53254   0.72367   0.17246   0.00000  Uiso   1.00
H213   H     0.76735   0.04234   0.46220   0.00000  Uiso   1.00
H214   H     0.06073   0.78711   0.35720   0.00000  Uiso   1.00
H215   H     0.80641   0.03185   0.13432   0.00000  Uiso   1.00
H216   H     0.68638   0.97680   0.05351   0.00000  Uiso   1.00
H217   H     0.79773   0.12793   0.19093   0.00000  Uiso   1.00
H218   H     0.93686   0.00689   0.14113   0.00000  Uiso   1.00
H219   H     0.55056   0.89050   0.99138   0.00000  Uiso   1.00
H220   H     0.78537   0.20916   0.28113   0.00000  Uiso   1.00
H221   H     0.07875   0.95393   0.17613   0.00000  Uiso   1.00
O222   O     0.46220   0.76737   0.03258   0.00000  Uiso   1.00
O223   O     0.77027   0.18544   0.41272   0.00000  Uiso   1.00
O224   O     0.15518   0.85058   0.27497   0.00000  Uiso   1.00
N225   N     0.55326   0.77048   0.14093   0.00000  Uiso   1.00
N226   N     0.77278   0.06842   0.41181   0.00000  Uiso   1.00
N227   N     0.04708   0.82981   0.31366   0.00000  Uiso   1.00
N228   N     0.56296   0.86025   0.04349   0.00000  Uiso   1.00
N229   N     0.78248   0.15818   0.31438   0.00000  Uiso   1.00
N230   N     0.05678   0.91957   0.21623   0.00000  Uiso   1.00
C231   C     0.70738   0.88883   0.61354   0.00000  Uiso   1.00
C232   C     0.78729   0.90311   0.60620   0.00000  Uiso   1.00
C233   C     0.81889   0.85950   0.58576   0.00000  Uiso   1.00
C234   C     0.89283   0.88196   0.58224   0.00000  Uiso   1.00
C235   C     0.01069   0.89445   0.56832   0.00000  Uiso   1.00
C236   C     0.67162   0.95629   0.56423   0.00000  Uiso   1.00
C237   C     0.60597   0.95739   0.50851   0.00000  Uiso   1.00
C238   C     0.58254   0.02461   0.46968   0.00000  Uiso   1.00
C239   C     0.52080   0.11966   0.39064   0.00000  Uiso   1.00
C240   C     0.71470   0.88756   0.69080   0.00000  Uiso   1.00
C241   C     0.68525   0.83089   0.74151   0.00000  Uiso   1.00
C242   C     0.69808   0.84025   0.80923   0.00000  Uiso   1.00
C243   C     0.70323   0.82859   0.92672   0.00000  Uiso   1.00
C244   C     0.78250   0.00626   0.64364   0.00000  Uiso   1.00
C245   C     0.82809   0.96689   0.62255   0.00000  Uiso   1.00
C246   C     0.90201   0.98942   0.61906   0.00000  Uiso   1.00
C247   C     0.93371   0.94585   0.59862   0.00000  Uiso   1.00
C248   C     0.71243   0.02007   0.58058   0.00000  Uiso   1.00
C249   C     0.68908   0.08731   0.54182   0.00000  Uiso   1.00
C250   C     0.62341   0.08851   0.48606   0.00000  Uiso   1.00
C251   C     0.75551   0.95134   0.70716   0.00000  Uiso   1.00
C252   C     0.76838   0.96080   0.77481   0.00000  Uiso   1.00
C253   C     0.73896   0.90415   0.82561   0.00000  Uiso   1.00
H254   H     0.67561   0.83918   0.60080   0.00000  Uiso   1.00
H255   H     0.78729   0.81015   0.57310   0.00000  Uiso   1.00
H256   H     0.57440   0.90802   0.49588   0.00000  Uiso   1.00
H257   H     0.65368   0.78154   0.72883   0.00000  Uiso   1.00
H258   H     0.92909   0.80611   0.54957   0.00000  Uiso   1.00
H259   H     0.48019   0.01247   0.38676   0.00000  Uiso   1.00
H260   H     0.64736   0.74576   0.87799   0.00000  Uiso   1.00
H261   H     0.81427   0.05592   0.65637   0.00000  Uiso   1.00
H262   H     0.93357   0.03878   0.63172   0.00000  Uiso   1.00
H263   H     0.72067   0.13665   0.55449   0.00000  Uiso   1.00
H264   H     0.79996   0.01017   0.78745   0.00000  Uiso   1.00
H265   H     0.04782   0.99168   0.59714   0.00000  Uiso   1.00
H266   H     0.59891   0.19804   0.43433   0.00000  Uiso   1.00
H267   H     0.76609   0.93133   0.92557   0.00000  Uiso   1.00
O268   O     0.06442   0.88373   0.55611   0.00000  Uiso   1.00
O269   O     0.47547   0.15446   0.34252   0.00000  Uiso   1.00
O270   O     0.69480   0.80454   0.98701   0.00000  Uiso   1.00
N271   N     0.94067   0.85213   0.56416   0.00000  Uiso   1.00
N272   N     0.52098   0.04507   0.41194   0.00000  Uiso   1.00
N273   N     0.67725   0.79572   0.87119   0.00000  Uiso   1.00
N274   N     0.00455   0.95198   0.58976   0.00000  Uiso   1.00
N275   N     0.58486   0.14492   0.43753   0.00000  Uiso   1.00
N276   N     0.74114   0.89557   0.89679   0.00000  Uiso   1.00
C277   C     0.67583   0.58941   0.95478   0.00000  Uiso   1.00
C278   C     0.75206   0.63713   0.96311   0.00000  Uiso   1.00
C279   C     0.77977   0.68295   0.00720   0.00000  Uiso   1.00
C280   C     0.85077   0.72204   0.00728   0.00000  Uiso   1.00
C281   C     0.96280   0.79710   0.02672   0.00000  Uiso   1.00
C282   C     0.69193   0.51209   0.97356   0.00000  Uiso   1.00
C283   C     0.66907   0.45278   0.02643   0.00000  Uiso   1.00
C284   C     0.68944   0.38661   0.03529   0.00000  Uiso   1.00
C285   C     0.70807   0.26753   0.07091   0.00000  Uiso   1.00
C286   C     0.63615   0.61075   0.87403   0.00000  Uiso   1.00
C287   C     0.56639   0.63438   0.84320   0.00000  Uiso   1.00
C288   C     0.53980   0.65125   0.76827   0.00000  Uiso   1.00
C289   C     0.47183   0.68535   0.64935   0.00000  Uiso   1.00
C290   C     0.75265   0.57734   0.87651   0.00000  Uiso   1.00
C291   C     0.79378   0.63057   0.92061   0.00000  Uiso   1.00
C292   C     0.86476   0.66960   0.92061   0.00000  Uiso   1.00
C293   C     0.89257   0.71548   0.96469   0.00000  Uiso   1.00
C294   C     0.73365   0.50553   0.93106   0.00000  Uiso   1.00
C295   C     0.75405   0.43943   0.93984   0.00000  Uiso   1.00
C296   C     0.73124   0.38004   0.99271   0.00000  Uiso   1.00
C297   C     0.67788   0.60419   0.83152   0.00000  Uiso   1.00
C298   C     0.65138   0.62102   0.75662   0.00000  Uiso   1.00
C299   C     0.58159   0.64468   0.72569   0.00000  Uiso   1.00
H300   H     0.64335   0.59451   0.98787   0.00000  Uiso   1.00
H301   H     0.74747   0.68801   0.04009   0.00000  Uiso   1.00
H302   H     0.63678   0.45787   0.05931   0.00000  Uiso   1.00
H303   H     0.53412   0.63944   0.87612   0.00000  Uiso   1.00
H304   H     0.88131   0.78875   0.07927   0.00000  Uiso   1.00
H305   H     0.64789   0.30350   0.11976   0.00000  Uiso   1.00
H306   H     0.43142   0.68637   0.73347   0.00000  Uiso   1.00
H307   H     0.78513   0.57223   0.84342   0.00000  Uiso   1.00
H308   H     0.89703   0.66451   0.88771   0.00000  Uiso   1.00
H309   H     0.78634   0.43437   0.90693   0.00000  Uiso   1.00
H310   H     0.68368   0.61594   0.72374   0.00000  Uiso   1.00
H311   H     0.00270   0.76968   0.95559   0.00000  Uiso   1.00
H312   H     0.76928   0.28442   0.99609   0.00000  Uiso   1.00
H313   H     0.55281   0.66729   0.60979   0.00000  Uiso   1.00
O314   O     0.01307   0.84030   0.04919   0.00000  Uiso   1.00
O315   O     0.70682   0.20366   0.10231   0.00000  Uiso   1.00
O316   O     0.42281   0.70598   0.59551   0.00000  Uiso   1.00
N317   N     0.89452   0.77161   0.04407   0.00000  Uiso   1.00
N318   N     0.67630   0.31793   0.08194   0.00000  Uiso   1.00
N319   N     0.47390   0.67586   0.72079   0.00000  Uiso   1.00
N320   N     0.95984   0.76135   0.97752   0.00000  Uiso   1.00
N321   N     0.74161   0.30766   0.01539   0.00000  Uiso   1.00
N322   N     0.53922   0.66560   0.65424   0.00000  Uiso   1.00
C323   C     0.77157   0.60112   0.29169   0.00000  Uiso   1.00
C324   C     0.70198   0.60266   0.22773   0.00000  Uiso   1.00
C325   C     0.69357   0.65341   0.15999   0.00000  Uiso   1.00
C326   C     0.62559   0.64543   0.10876   0.00000  Uiso   1.00
C327   C     0.52629   0.65643   0.00700   0.00000  Uiso   1.00
C328   C     0.79527   0.52636   0.31333   0.00000  Uiso   1.00
C329   C     0.86530   0.51295   0.31758   0.00000  Uiso   1.00
C330   C     0.87585   0.44074   0.33841   0.00000  Uiso   1.00
C331   C     0.92140   0.33328   0.36960   0.00000  Uiso   1.00
C332   C     0.74499   0.60279   0.35421   0.00000  Uiso   1.00
C333   C     0.77276   0.65362   0.39283   0.00000  Uiso   1.00
C334   C     0.74100   0.64575   0.44809   0.00000  Uiso   1.00
C335   C     0.70849   0.65695   0.54274   0.00000  Uiso   1.00
C336   C     0.66581   0.49672   0.32116   0.00000  Uiso   1.00
C337   C     0.64454   0.54596   0.24374   0.00000  Uiso   1.00
C338   C     0.57656   0.53790   0.19260   0.00000  Uiso   1.00
C339   C     0.56804   0.58863   0.12479   0.00000  Uiso   1.00
C340   C     0.73783   0.46966   0.32934   0.00000  Uiso   1.00
C341   C     0.74828   0.39745   0.35018   0.00000  Uiso   1.00
C342   C     0.81831   0.38393   0.35445   0.00000  Uiso   1.00
C343   C     0.68755   0.54608   0.37021   0.00000  Uiso   1.00
C344   C     0.65575   0.53812   0.42543   0.00000  Uiso   1.00
C345   C     0.68346   0.58894   0.46413   0.00000  Uiso   1.00
H346   H     0.81630   0.64526   0.27923   0.00000  Uiso   1.00
H347   H     0.73804   0.69728   0.14763   0.00000  Uiso   1.00
H348   H     0.90974   0.55684   0.30519   0.00000  Uiso   1.00
H349   H     0.81722   0.69750   0.38043   0.00000  Uiso   1.00
H350   H     0.62595   0.72992   0.00876   0.00000  Uiso   1.00
H351   H     0.98800   0.43381   0.34103   0.00000  Uiso   1.00
H352   H     0.79290   0.73041   0.49968   0.00000  Uiso   1.00
H353   H     0.62109   0.45257   0.33362   0.00000  Uiso   1.00
H354   H     0.53211   0.49402   0.20500   0.00000  Uiso   1.00
H355   H     0.70382   0.35358   0.36256   0.00000  Uiso   1.00
H356   H     0.61129   0.49423   0.43780   0.00000  Uiso   1.00
H357   H     0.45882   0.56495   0.05533   0.00000  Uiso   1.00
H358   H     0.82087   0.26883   0.38759   0.00000  Uiso   1.00
H359   H     0.62576   0.56543   0.54624   0.00000  Uiso   1.00
O360   O     0.48739   0.67816   0.94644   0.00000  Uiso   1.00
O361   O     0.96239   0.28967   0.38237   0.00000  Uiso   1.00
O362   O     0.70641   0.67880   0.59052   0.00000  Uiso   1.00
N363   N     0.59882   0.68542   0.03738   0.00000  Uiso   1.00
N364   N     0.93731   0.40857   0.34801   0.00000  Uiso   1.00
N365   N     0.75492   0.68585   0.49636   0.00000  Uiso   1.00
N366   N     0.50889   0.59665   0.06243   0.00000  Uiso   1.00
N367   N     0.84738   0.31980   0.37307   0.00000  Uiso   1.00
N368   N     0.66499   0.59708   0.52141   0.00000  Uiso   1.00
C369   C     0.10933   0.59426   0.19404   0.00000  Uiso   1.00
C370   C     0.09082   0.58810   0.26359   0.00000  Uiso   1.00
C371   C     0.05704   0.63757   0.27360   0.00000  Uiso   1.00
C372   C     0.04485   0.62214   0.34123   0.00000  Uiso   1.00
C373   C     0.01289   0.62210   0.44076   0.00000  Uiso   1.00
C374   C     0.07019   0.52464   0.17373   0.00000  Uiso   1.00
C375   C     0.01909   0.52076   0.10819   0.00000  Uiso   1.00
C376   C     0.98955   0.45190   0.10018   0.00000  Uiso   1.00
C377   C     0.92562   0.35334   0.06017   0.00000  Uiso   1.00
C378   C     0.19330   0.59096   0.21490   0.00000  Uiso   1.00
C379   C     0.24572   0.64282   0.18397   0.00000  Uiso   1.00
C380   C     0.31983   0.62979   0.21061   0.00000  Uiso   1.00
C381   C     0.44704   0.63420   0.23454   0.00000  Uiso   1.00
C382   C     0.14774   0.47888   0.29633   0.00000  Uiso   1.00
C383   C     0.11168   0.52544   0.31915   0.00000  Uiso   1.00
C384   C     0.09954   0.50993   0.38678   0.00000  Uiso   1.00
C385   C     0.06576   0.55936   0.39690   0.00000  Uiso   1.00
C386   C     0.09105   0.46198   0.22929   0.00000  Uiso   1.00
C387   C     0.06159   0.39311   0.22137   0.00000  Uiso   1.00
C388   C     0.01045   0.38912   0.15584   0.00000  Uiso   1.00
C389   C     0.21417   0.52829   0.27047   0.00000  Uiso   1.00
C390   C     0.28821   0.51518   0.29716   0.00000  Uiso   1.00
C391   C     0.34072   0.56701   0.26628   0.00000  Uiso   1.00
H392   H     0.09309   0.64304   0.15078   0.00000  Uiso   1.00
H393   H     0.04090   0.68606   0.23059   0.00000  Uiso   1.00
H394   H     0.00296   0.56926   0.06520   0.00000  Uiso   1.00
H395   H     0.22955   0.69131   0.14098   0.00000  Uiso   1.00
H396   H     0.99222   0.70610   0.34357   0.00000  Uiso   1.00
H397   H     0.91224   0.45983   0.99483   0.00000  Uiso   1.00
H398   H     0.39005   0.71719   0.15461   0.00000  Uiso   1.00
H399   H     0.16398   0.43009   0.33959   0.00000  Uiso   1.00
H400   H     0.11569   0.46143   0.42977   0.00000  Uiso   1.00
H401   H     0.07775   0.34463   0.26438   0.00000  Uiso   1.00
H402   H     0.30433   0.46668   0.34015   0.00000  Uiso   1.00
H403   H     0.05291   0.52378   0.50523   0.00000  Uiso   1.00
H404   H     0.97294   0.27751   0.15648   0.00000  Uiso   1.00
H405   H     0.45074   0.53487   0.31627   0.00000  Uiso   1.00
O406   O     0.98949   0.63938   0.48030   0.00000  Uiso   1.00
O407   O     0.88458   0.31629   0.02276   0.00000  Uiso   1.00
O408   O     0.51145   0.65394   0.23240   0.00000  Uiso   1.00
N409   N     0.01314   0.65890   0.36924   0.00000  Uiso   1.00
N410   N     0.93836   0.42865   0.04320   0.00000  Uiso   1.00
N411   N     0.38507   0.66925   0.19257   0.00000  Uiso   1.00
N412   N     0.04580   0.56079   0.45623   0.00000  Uiso   1.00
N413   N     0.97102   0.33054   0.13018   0.00000  Uiso   1.00
N414   N     0.41773   0.57115   0.27956   0.00000  Uiso   1.00
C415   C     0.54476   0.11300   0.81446   0.00000  Uiso   1.00
C416   C     0.54402   0.16526   0.73931   0.00000  Uiso   1.00
C417   C     0.50058   0.22108   0.70330   0.00000  Uiso   1.00
C418   C     0.50797   0.26284   0.63494   0.00000  Uiso   1.00
C419   C     0.49931   0.34603   0.52298   0.00000  Uiso   1.00
C420   C     0.52597   0.03687   0.80520   0.00000  Uiso   1.00
C421   C     0.46738   0.98475   0.82460   0.00000  Uiso   1.00
C422   C     0.45958   0.91843   0.81171   0.00000  Uiso   1.00
C423   C     0.42295   0.80228   0.80210   0.00000  Uiso   1.00
C424   C     0.62621   0.11967   0.85954   0.00000  Uiso   1.00
C425   C     0.65190   0.13713   0.92463   0.00000  Uiso   1.00
C426   C     0.72849   0.14050   0.95750   0.00000  Uiso   1.00
C427   C     0.84749   0.15290   0.03225   0.00000  Uiso   1.00
C428   C     0.63511   0.08790   0.75708   0.00000  Uiso   1.00
C429   C     0.59309   0.15162   0.70815   0.00000  Uiso   1.00
C430   C     0.60055   0.19331   0.63982   0.00000  Uiso   1.00
C431   C     0.55713   0.24918   0.60372   0.00000  Uiso   1.00
C432   C     0.57505   0.02324   0.77404   0.00000  Uiso   1.00
C433   C     0.56734   0.95698   0.76112   0.00000  Uiso   1.00
C434   C     0.50875   0.90477   0.78049   0.00000  Uiso   1.00
C435   C     0.67529   0.10603   0.82837   0.00000  Uiso   1.00
C436   C     0.75186   0.10936   0.86115   0.00000  Uiso   1.00
C437   C     0.77765   0.12684   0.92628   0.00000  Uiso   1.00
H438   H     0.50656   0.12361   0.83872   0.00000  Uiso   1.00
H439   H     0.46261   0.23161   0.72743   0.00000  Uiso   1.00
H440   H     0.42942   0.99531   0.84872   0.00000  Uiso   1.00
H441   H     0.61390   0.14768   0.94873   0.00000  Uiso   1.00
H442   H     0.43550   0.34531   0.59030   0.00000  Uiso   1.00
H443   H     0.36553   0.84706   0.84606   0.00000  Uiso   1.00
H444   H     0.75456   0.16836   0.05696   0.00000  Uiso   1.00
H445   H     0.67332   0.07728   0.73282   0.00000  Uiso   1.00
H446   H     0.63853   0.18274   0.61572   0.00000  Uiso   1.00
H447   H     0.60533   0.94644   0.73701   0.00000  Uiso   1.00
H448   H     0.78982   0.09881   0.83702   0.00000  Uiso   1.00
H449   H     0.57828   0.30565   0.49963   0.00000  Uiso   1.00
H450   H     0.50831   0.80739   0.75539   0.00000  Uiso   1.00
H451   H     0.89734   0.12869   0.96629   0.00000  Uiso   1.00
O452   O     0.48098   0.39567   0.46984   0.00000  Uiso   1.00
O453   O     0.38918   0.74199   0.80540   0.00000  Uiso   1.00
O454   O     0.89958   0.16352   0.08209   0.00000  Uiso   1.00
N455   N     0.47389   0.32152   0.58504   0.00000  Uiso   1.00
N456   N     0.40847   0.85568   0.82415   0.00000  Uiso   1.00
N457   N     0.77217   0.15605   0.02133   0.00000  Uiso   1.00
N458   N     0.55072   0.30017   0.53625   0.00000  Uiso   1.00
N459   N     0.48529   0.83434   0.77536   0.00000  Uiso   1.00
N460   N     0.84900   0.13470   0.97254   0.00000  Uiso   1.00
C461   C     0.20982   0.11836   0.70265   0.00000  Uiso   1.00
C462   C     0.27274   0.12706   0.76957   0.00000  Uiso   1.00
C463   C     0.33105   0.18438   0.77156   0.00000  Uiso   1.00
C464   C     0.38301   0.18233   0.83808   0.00000  Uiso   1.00
C465   C     0.48167   0.20454   0.93252   0.00000  Uiso   1.00
C466   C     0.21225   0.04495   0.69491   0.00000  Uiso   1.00
C467   C     0.21969   0.03323   0.63413   0.00000  Uiso   1.00
C468   C     0.22072   0.96205   0.63780   0.00000  Uiso   1.00
C469   C     0.22542   0.85678   0.61632   0.00000  Uiso   1.00
C470   C     0.13666   0.11072   0.72197   0.00000  Uiso   1.00
C471   C     0.08054   0.15428   0.68393   0.00000  Uiso   1.00
C472   C     0.01792   0.13846   0.71037   0.00000  Uiso   1.00
C473   C     0.90525   0.13531   0.73090   0.00000  Uiso   1.00
C474   C     0.19841   0.01279   0.81723   0.00000  Uiso   1.00
C475   C     0.26654   0.06972   0.83180   0.00000  Uiso   1.00
C476   C     0.31843   0.06758   0.89833   0.00000  Uiso   1.00
C477   C     0.37680   0.12489   0.90043   0.00000  Uiso   1.00
C478   C     0.20605   0.98761   0.75715   0.00000  Uiso   1.00
C479   C     0.20707   0.91643   0.76091   0.00000  Uiso   1.00
C480   C     0.21452   0.90460   0.70015   0.00000  Uiso   1.00
C481   C     0.13047   0.05338   0.78421   0.00000  Uiso   1.00
C482   C     0.06792   0.03749   0.81071   0.00000  Uiso   1.00
C483   C     0.01171   0.08102   0.77272   0.00000  Uiso   1.00
H484   H     0.21465   0.16300   0.65419   0.00000  Uiso   1.00
H485   H     0.33583   0.22874   0.72339   0.00000  Uiso   1.00
H486   H     0.22448   0.07761   0.58598   0.00000  Uiso   1.00
H487   H     0.08535   0.19865   0.63577   0.00000  Uiso   1.00
H488   H     0.46746   0.27633   0.82754   0.00000  Uiso   1.00
H489   H     0.23265   0.95766   0.53780   0.00000  Uiso   1.00
H490   H     0.93927   0.21289   0.64280   0.00000  Uiso   1.00
H491   H     0.19359   0.96815   0.86568   0.00000  Uiso   1.00
H492   H     0.31362   0.02320   0.94649   0.00000  Uiso   1.00
H493   H     0.20227   0.87207   0.80907   0.00000  Uiso   1.00
H494   H     0.06314   0.99311   0.85887   0.00000  Uiso   1.00
H495   H     0.44944   0.10950   0.00862   0.00000  Uiso   1.00
H496   H     0.21463   0.79084   0.71887   0.00000  Uiso   1.00
H497   H     0.92125   0.04607   0.82387   0.00000  Uiso   1.00
O498   O     0.53780   0.23263   0.96742   0.00000  Uiso   1.00
O499   O     0.22973   0.81456   0.58728   0.00000  Uiso   1.00
O500   O     0.84482   0.14942   0.72503   0.00000  Uiso   1.00
N501   N     0.44674   0.22952   0.85907   0.00000  Uiso   1.00
N502   N     0.22722   0.93158   0.58819   0.00000  Uiso   1.00
N503   N     0.95292   0.17019   0.68634   0.00000  Uiso   1.00
N504   N     0.43704   0.13975   0.95651   0.00000  Uiso   1.00
N505   N     0.21752   0.84182   0.68562   0.00000  Uiso   1.00
N506   N     0.94322   0.08043   0.78377   0.00000  Uiso   1.00
C507   C     0.29262   0.11117   0.38646   0.00000  Uiso   1.00
C508   C     0.21271   0.09689   0.39380   0.00000  Uiso   1.00
C509   C     0.18111   0.14050   0.41424   0.00000  Uiso   1.00
C510   C     0.10717   0.11804   0.41776   0.00000  Uiso   1.00
C511   C     0.98931   0.10555   0.43168   0.00000  Uiso   1.00
C512   C     0.32838   0.04371   0.43577   0.00000  Uiso   1.00
C513   C     0.39403   0.04261   0.49149   0.00000  Uiso   1.00
C514   C     0.41746   0.97539   0.53032   0.00000  Uiso   1.00
C515   C     0.47920   0.88034   0.60936   0.00000  Uiso   1.00
C516   C     0.28530   0.11244   0.30920   0.00000  Uiso   1.00
C517   C     0.31475   0.16911   0.25849   0.00000  Uiso   1.00
C518   C     0.30192   0.15975   0.19077   0.00000  Uiso   1.00
C519   C     0.29677   0.17141   0.07328   0.00000  Uiso   1.00
C520   C     0.21750   0.99374   0.35636   0.00000  Uiso   1.00
C521   C     0.17191   0.03311   0.37745   0.00000  Uiso   1.00
C522   C     0.09799   0.01058   0.38094   0.00000  Uiso   1.00
C523   C     0.06629   0.05415   0.40138   0.00000  Uiso   1.00
C524   C     0.28757   0.97993   0.41942   0.00000  Uiso   1.00
C525   C     0.31092   0.91269   0.45818   0.00000  Uiso   1.00
C526   C     0.37659   0.91149   0.51394   0.00000  Uiso   1.00
C527   C     0.24449   0.04866   0.29284   0.00000  Uiso   1.00
C528   C     0.23162   0.03920   0.22519   0.00000  Uiso   1.00
C529   C     0.26104   0.09585   0.17439   0.00000  Uiso   1.00
H530   H     0.32439   0.16082   0.39920   0.00000  Uiso   1.00
H531   H     0.21271   0.18985   0.42690   0.00000  Uiso   1.00
H532   H     0.42560   0.09198   0.50412   0.00000  Uiso   1.00
H533   H     0.34632   0.21846   0.27117   0.00000  Uiso   1.00
H534   H     0.07091   0.19389   0.45043   0.00000  Uiso   1.00
H535   H     0.51981   0.98753   0.61324   0.00000  Uiso   1.00
H536   H     0.35264   0.25424   0.12201   0.00000  Uiso   1.00
H537   H     0.18573   0.94408   0.34363   0.00000  Uiso   1.00
H538   H     0.06643   0.96122   0.36828   0.00000  Uiso   1.00
H539   H     0.27933   0.86335   0.44551   0.00000  Uiso   1.00
H540   H     0.20004   0.98983   0.21255   0.00000  Uiso   1.00
H541   H     0.95218   0.00832   0.40286   0.00000  Uiso   1.00
H542   H     0.40109   0.80196   0.56567   0.00000  Uiso   1.00
H543   H     0.23391   0.06867   0.07443   0.00000  Uiso   1.00
O544   O     0.93558   0.11627   0.44389   0.00000  Uiso   1.00
O545   O     0.52453   0.84554   0.65748   0.00000  Uiso   1.00
O546   O     0.30520   0.19546   0.01299   0.00000  Uiso   1.00
N547   N     0.05933   0.14787   0.43584   0.00000  Uiso   1.00
N548   N     0.47902   0.95493   0.58806   0.00000  Uiso   1.00
N549   N     0.32275   0.20428   0.12881   0.00000  Uiso   1.00
N550   N     0.99545   0.04802   0.41024   0.00000  Uiso   1.00
N551   N     0.41514   0.85508   0.56247   0.00000  Uiso   1.00
N552   N     0.25886   0.10443   0.10321   0.00000  Uiso   1.00
