data_job_00915
_audit_creation_date              2018-12-19
_audit_creation_method            'Materials Studio'
_symmetry_space_group_name_H-M    'P1'
_symmetry_Int_Tables_number       1
_symmetry_cell_setting            triclinic
loop_
_symmetry_equiv_pos_as_xyz
  x,y,z
_cell_length_a                    14.2091
_cell_length_b                    12.3622
_cell_length_c                    21.4974
_cell_angle_alpha                 90.0000
_cell_angle_beta                  138.4685
_cell_angle_gamma                 90.0000
loop_
_atom_site_label
_atom_site_type_symbol
_atom_site_fract_x
_atom_site_fract_y
_atom_site_fract_z
_atom_site_U_iso_or_equiv
_atom_site_adp_type
_atom_site_occupancy
C1     C     0.11455   0.94830   0.13608   0.00000  Uiso   1.00
C2     C     0.18098   0.83662   0.16115   0.00000  Uiso   1.00
C3     C     0.16724   0.77039   0.10258   0.00000  Uiso   1.00
C4     C     0.23618   0.67118   0.13861   0.00000  Uiso   1.00
C5     C     0.32713   0.50259   0.16362   0.00000  Uiso   1.00
C6     C     0.02634   0.94291   0.15182   0.00000  Uiso   1.00
C7     C     0.88259   0.96606   0.08542   0.00000  Uiso   1.00
C8     C     0.82137   0.95634   0.11361   0.00000  Uiso   1.00
C9     C     0.67226   0.95285   0.12417   0.00000  Uiso   1.00
C10    C     0.23697   0.02532   0.21048   0.00000  Uiso   1.00
C11    C     0.27031   0.11777   0.19340   0.00000  Uiso   1.00
C12    C     0.38641   0.17745   0.27097   0.00000  Uiso   1.00
C13    C     0.56434   0.30190   0.37261   0.00000  Uiso   1.00
C14    C     0.26141   0.88990   0.30421   0.00000  Uiso   1.00
C15    C     0.26074   0.80491   0.25247   0.00000  Uiso   1.00
C16    C     0.32973   0.70578   0.28860   0.00000  Uiso   1.00
C17    C     0.31611   0.63941   0.23010   0.00000  Uiso   1.00
C18    C     0.10610   0.91120   0.24315   0.00000  Uiso   1.00
C19    C     0.04508   0.90145   0.27144   0.00000  Uiso   1.00
C20    C     0.90128   0.92457   0.20510   0.00000  Uiso   1.00
C21    C     0.31675   0.99360   0.30181   0.00000  Uiso   1.00
C22    C     0.43281   0.05315   0.37942   0.00000  Uiso   1.00
C23    C     0.46632   0.14568   0.36246   0.00000  Uiso   1.00
H24    H     0.05244   0.97299   0.06498   0.00000  Uiso   1.00
H25    H     0.10549   0.79496   0.03190   0.00000  Uiso   1.00
H26    H     0.82089   0.99062   0.01475   0.00000  Uiso   1.00
H27    H     0.20856   0.14230   0.12272   0.00000  Uiso   1.00
H28    H     0.19944   0.58358   0.03550   0.00000  Uiso   1.00
H29    H     0.59936   0.99616   0.99935   0.00000  Uiso   1.00
H30    H     0.41683   0.31601   0.22701   0.00000  Uiso   1.00
H31    H     0.32352   0.86520   0.37532   0.00000  Uiso   1.00
H32    H     0.39145   0.68125   0.35928   0.00000  Uiso   1.00
H33    H     0.10684   0.87691   0.34212   0.00000  Uiso   1.00
H34    H     0.49451   0.02858   0.45009   0.00000  Uiso   1.00
H35    H     0.43153   0.49128   0.30121   0.00000  Uiso   1.00
H36    H     0.83144   0.90387   0.26505   0.00000  Uiso   1.00
H37    H     0.64892   0.22372   0.49271   0.00000  Uiso   1.00
O38    O     0.35524   0.41835   0.15219   0.00000  Uiso   1.00
O39    O     0.56796   0.95967   0.10476   0.00000  Uiso   1.00
O40    O     0.64047   0.37930   0.40344   0.00000  Uiso   1.00
N41    N     0.24477   0.58711   0.10024   0.00000  Uiso   1.00
N42    N     0.68372   0.97283   0.06644   0.00000  Uiso   1.00
N43    N     0.44796   0.27188   0.27928   0.00000  Uiso   1.00
N44    N     0.36965   0.53745   0.24322   0.00000  Uiso   1.00
N45    N     0.80860   0.92317   0.20941   0.00000  Uiso   1.00
N46    N     0.57285   0.22222   0.42225   0.00000  Uiso   1.00
C47    C     0.88545   0.44829   0.36392   0.00000  Uiso   1.00
C48    C     0.81902   0.33662   0.33885   0.00000  Uiso   1.00
C49    C     0.83276   0.27039   0.39742   0.00000  Uiso   1.00
C50    C     0.76382   0.17118   0.36139   0.00000  Uiso   1.00
C51    C     0.67287   0.00259   0.33638   0.00000  Uiso   1.00
C52    C     0.97366   0.44291   0.34818   0.00000  Uiso   1.00
C53    C     0.11741   0.46606   0.41458   0.00000  Uiso   1.00
C54    C     0.17863   0.45634   0.38639   0.00000  Uiso   1.00
C55    C     0.32774   0.45285   0.37583   0.00000  Uiso   1.00
C56    C     0.76303   0.52532   0.28952   0.00000  Uiso   1.00
C57    C     0.72969   0.61777   0.30660   0.00000  Uiso   1.00
C58    C     0.61359   0.67745   0.22903   0.00000  Uiso   1.00
C59    C     0.43566   0.80190   0.12739   0.00000  Uiso   1.00
C60    C     0.73859   0.38990   0.19579   0.00000  Uiso   1.00
C61    C     0.73926   0.30491   0.24753   0.00000  Uiso   1.00
C62    C     0.67027   0.20578   0.21140   0.00000  Uiso   1.00
C63    C     0.68389   0.13941   0.26990   0.00000  Uiso   1.00
C64    C     0.89390   0.41120   0.25685   0.00000  Uiso   1.00
C65    C     0.95492   0.40145   0.22856   0.00000  Uiso   1.00
C66    C     0.09872   0.42457   0.29490   0.00000  Uiso   1.00
C67    C     0.68325   0.49360   0.19819   0.00000  Uiso   1.00
C68    C     0.56719   0.55315   0.12058   0.00000  Uiso   1.00
C69    C     0.53368   0.64568   0.13754   0.00000  Uiso   1.00
H70    H     0.94756   0.47299   0.43502   0.00000  Uiso   1.00
H71    H     0.89451   0.29496   0.46810   0.00000  Uiso   1.00
H72    H     0.17911   0.49062   0.48525   0.00000  Uiso   1.00
H73    H     0.79144   0.64230   0.37728   0.00000  Uiso   1.00
H74    H     0.80056   0.08358   0.46450   0.00000  Uiso   1.00
H75    H     0.40064   0.49616   0.50065   0.00000  Uiso   1.00
H76    H     0.58317   0.81601   0.27299   0.00000  Uiso   1.00
H77    H     0.67648   0.36520   0.12468   0.00000  Uiso   1.00
H78    H     0.60855   0.18125   0.14072   0.00000  Uiso   1.00
H79    H     0.89316   0.37691   0.15788   0.00000  Uiso   1.00
H80    H     0.50549   0.52858   0.04991   0.00000  Uiso   1.00
H81    H     0.56847   0.99128   0.19879   0.00000  Uiso   1.00
H82    H     0.16856   0.40387   0.23495   0.00000  Uiso   1.00
H83    H     0.35108   0.72372   0.00729   0.00000  Uiso   1.00
O84    O     0.64476   0.91835   0.34781   0.00000  Uiso   1.00
O85    O     0.43204   0.45967   0.39524   0.00000  Uiso   1.00
O86    O     0.35953   0.87930   0.09656   0.00000  Uiso   1.00
N87    N     0.75523   0.08711   0.39976   0.00000  Uiso   1.00
N88    N     0.31628   0.47283   0.43356   0.00000  Uiso   1.00
N89    N     0.55204   0.77188   0.22072   0.00000  Uiso   1.00
N90    N     0.63035   0.03745   0.25678   0.00000  Uiso   1.00
N91    N     0.19140   0.42317   0.29059   0.00000  Uiso   1.00
N92    N     0.42715   0.72222   0.07775   0.00000  Uiso   1.00
C93    C     0.88545   0.05171   0.86392   0.00000  Uiso   1.00
C94    C     0.81902   0.16338   0.83885   0.00000  Uiso   1.00
C95    C     0.83276   0.22961   0.89742   0.00000  Uiso   1.00
C96    C     0.76382   0.32882   0.86139   0.00000  Uiso   1.00
C97    C     0.67287   0.49741   0.83638   0.00000  Uiso   1.00
C98    C     0.97366   0.05709   0.84818   0.00000  Uiso   1.00
C99    C     0.11741   0.03394   0.91458   0.00000  Uiso   1.00
C100   C     0.17863   0.04366   0.88639   0.00000  Uiso   1.00
C101   C     0.32774   0.04715   0.87583   0.00000  Uiso   1.00
C102   C     0.76303   0.97468   0.78952   0.00000  Uiso   1.00
C103   C     0.72969   0.88223   0.80660   0.00000  Uiso   1.00
C104   C     0.61359   0.82255   0.72903   0.00000  Uiso   1.00
C105   C     0.43566   0.69810   0.62739   0.00000  Uiso   1.00
C106   C     0.73859   0.11010   0.69579   0.00000  Uiso   1.00
C107   C     0.73926   0.19509   0.74753   0.00000  Uiso   1.00
C108   C     0.67027   0.29422   0.71140   0.00000  Uiso   1.00
C109   C     0.68389   0.36059   0.76990   0.00000  Uiso   1.00
C110   C     0.89390   0.08880   0.75685   0.00000  Uiso   1.00
C111   C     0.95492   0.09855   0.72856   0.00000  Uiso   1.00
C112   C     0.09872   0.07543   0.79490   0.00000  Uiso   1.00
C113   C     0.68325   0.00640   0.69819   0.00000  Uiso   1.00
C114   C     0.56719   0.94685   0.62058   0.00000  Uiso   1.00
C115   C     0.53368   0.85432   0.63754   0.00000  Uiso   1.00
H116   H     0.94756   0.02701   0.93502   0.00000  Uiso   1.00
H117   H     0.89451   0.20504   0.96810   0.00000  Uiso   1.00
H118   H     0.17911   0.00938   0.98525   0.00000  Uiso   1.00
H119   H     0.79144   0.85770   0.87728   0.00000  Uiso   1.00
H120   H     0.80056   0.41642   0.96450   0.00000  Uiso   1.00
H121   H     0.40064   0.00384   0.00065   0.00000  Uiso   1.00
H122   H     0.58317   0.68399   0.77299   0.00000  Uiso   1.00
H123   H     0.67648   0.13480   0.62468   0.00000  Uiso   1.00
H124   H     0.60855   0.31875   0.64072   0.00000  Uiso   1.00
H125   H     0.89316   0.12309   0.65788   0.00000  Uiso   1.00
H126   H     0.50549   0.97142   0.54991   0.00000  Uiso   1.00
H127   H     0.56847   0.50872   0.69879   0.00000  Uiso   1.00
H128   H     0.16856   0.09613   0.73495   0.00000  Uiso   1.00
H129   H     0.35108   0.77628   0.50729   0.00000  Uiso   1.00
O130   O     0.64476   0.58165   0.84781   0.00000  Uiso   1.00
O131   O     0.43204   0.04033   0.89524   0.00000  Uiso   1.00
O132   O     0.35953   0.62070   0.59656   0.00000  Uiso   1.00
N133   N     0.75523   0.41289   0.89976   0.00000  Uiso   1.00
N134   N     0.31628   0.02717   0.93356   0.00000  Uiso   1.00
N135   N     0.55204   0.72812   0.72072   0.00000  Uiso   1.00
N136   N     0.63035   0.46255   0.75678   0.00000  Uiso   1.00
N137   N     0.19140   0.07683   0.79059   0.00000  Uiso   1.00
N138   N     0.42715   0.77778   0.57775   0.00000  Uiso   1.00
C139   C     0.11455   0.55171   0.63608   0.00000  Uiso   1.00
C140   C     0.18098   0.66338   0.66115   0.00000  Uiso   1.00
C141   C     0.16724   0.72961   0.60258   0.00000  Uiso   1.00
C142   C     0.23618   0.82882   0.63861   0.00000  Uiso   1.00
C143   C     0.32713   0.99741   0.66362   0.00000  Uiso   1.00
C144   C     0.02634   0.55709   0.65182   0.00000  Uiso   1.00
C145   C     0.88259   0.53394   0.58542   0.00000  Uiso   1.00
C146   C     0.82137   0.54366   0.61361   0.00000  Uiso   1.00
C147   C     0.67226   0.54715   0.62417   0.00000  Uiso   1.00
C148   C     0.23697   0.47468   0.71048   0.00000  Uiso   1.00
C149   C     0.27031   0.38223   0.69340   0.00000  Uiso   1.00
C150   C     0.38641   0.32255   0.77097   0.00000  Uiso   1.00
C151   C     0.56434   0.19810   0.87261   0.00000  Uiso   1.00
C152   C     0.26141   0.61010   0.80421   0.00000  Uiso   1.00
C153   C     0.26074   0.69509   0.75247   0.00000  Uiso   1.00
C154   C     0.32973   0.79422   0.78860   0.00000  Uiso   1.00
C155   C     0.31611   0.86059   0.73010   0.00000  Uiso   1.00
C156   C     0.10610   0.58880   0.74315   0.00000  Uiso   1.00
C157   C     0.04508   0.59855   0.77144   0.00000  Uiso   1.00
C158   C     0.90128   0.57543   0.70510   0.00000  Uiso   1.00
C159   C     0.31675   0.50640   0.80181   0.00000  Uiso   1.00
C160   C     0.43281   0.44685   0.87942   0.00000  Uiso   1.00
C161   C     0.46632   0.35432   0.86246   0.00000  Uiso   1.00
H162   H     0.05244   0.52701   0.56498   0.00000  Uiso   1.00
H163   H     0.10549   0.70504   0.53190   0.00000  Uiso   1.00
H164   H     0.82089   0.50938   0.51475   0.00000  Uiso   1.00
H165   H     0.20856   0.35770   0.62272   0.00000  Uiso   1.00
H166   H     0.19944   0.91642   0.53550   0.00000  Uiso   1.00
H167   H     0.59936   0.50384   0.49935   0.00000  Uiso   1.00
H168   H     0.41683   0.18399   0.72701   0.00000  Uiso   1.00
H169   H     0.32352   0.63480   0.87532   0.00000  Uiso   1.00
H170   H     0.39145   0.81875   0.85928   0.00000  Uiso   1.00
H171   H     0.10684   0.62309   0.84212   0.00000  Uiso   1.00
H172   H     0.49451   0.47142   0.95009   0.00000  Uiso   1.00
H173   H     0.43153   0.00872   0.80121   0.00000  Uiso   1.00
H174   H     0.83144   0.59613   0.76505   0.00000  Uiso   1.00
H175   H     0.64892   0.27628   0.99271   0.00000  Uiso   1.00
O176   O     0.35524   0.08165   0.65219   0.00000  Uiso   1.00
O177   O     0.56796   0.54033   0.60476   0.00000  Uiso   1.00
O178   O     0.64047   0.12070   0.90344   0.00000  Uiso   1.00
N179   N     0.24477   0.91289   0.60024   0.00000  Uiso   1.00
N180   N     0.68372   0.52717   0.56644   0.00000  Uiso   1.00
N181   N     0.44796   0.22812   0.77928   0.00000  Uiso   1.00
N182   N     0.36965   0.96255   0.74322   0.00000  Uiso   1.00
N183   N     0.80860   0.57683   0.70941   0.00000  Uiso   1.00
N184   N     0.57285   0.27778   0.92225   0.00000  Uiso   1.00
