data_job_06248
_audit_creation_date              2018-12-19
_audit_creation_method            'Materials Studio'
_symmetry_space_group_name_H-M    'P1'
_symmetry_Int_Tables_number       1
_symmetry_cell_setting            triclinic
loop_
_symmetry_equiv_pos_as_xyz
  x,y,z
_cell_length_a                    16.6028
_cell_length_b                    16.6035
_cell_length_c                    16.6042
_cell_angle_alpha                 89.1740
_cell_angle_beta                  89.1706
_cell_angle_gamma                 89.1671
loop_
_atom_site_label
_atom_site_type_symbol
_atom_site_fract_x
_atom_site_fract_y
_atom_site_fract_z
_atom_site_U_iso_or_equiv
_atom_site_adp_type
_atom_site_occupancy
C1     C     0.84201   0.14767   0.51994   0.00000  Uiso   1.00
C2     C     0.79746   0.22693   0.53594   0.00000  Uiso   1.00
C3     C     0.73208   0.23711   0.58800   0.00000  Uiso   1.00
C4     C     0.69980   0.31442   0.59421   0.00000  Uiso   1.00
C5     C     0.62574   0.42763   0.62576   0.00000  Uiso   1.00
C6     C     0.83880   0.13535   0.42921   0.00000  Uiso   1.00
C7     C     0.80819   0.06852   0.39155   0.00000  Uiso   1.00
C8     C     0.81072   0.06873   0.30793   0.00000  Uiso   1.00
C9     C     0.80089   0.03973   0.17380   0.00000  Uiso   1.00
C10    C     0.93015   0.16242   0.53878   0.00000  Uiso   1.00
C11    C     0.97635   0.11834   0.59322   0.00000  Uiso   1.00
C12    C     0.05581   0.14132   0.60184   0.00000  Uiso   1.00
C13    C     0.18781   0.15435   0.63782   0.00000  Uiso   1.00
C14    C     0.90095   0.26686   0.43840   0.00000  Uiso   1.00
C15    C     0.82948   0.29167   0.49164   0.00000  Uiso   1.00
C16    C     0.79730   0.36898   0.49779   0.00000  Uiso   1.00
C17    C     0.73188   0.37928   0.54985   0.00000  Uiso   1.00
C18    C     0.87082   0.20008   0.38493   0.00000  Uiso   1.00
C19    C     0.87340   0.20039   0.30134   0.00000  Uiso   1.00
C20    C     0.84280   0.13359   0.26356   0.00000  Uiso   1.00
C21    C     0.96217   0.22716   0.49449   0.00000  Uiso   1.00
C22    C     0.04156   0.25021   0.50302   0.00000  Uiso   1.00
C23    C     0.08788   0.20618   0.55747   0.00000  Uiso   1.00
H24    H     0.81708   0.09727   0.55441   0.00000  Uiso   1.00
H25    H     0.70732   0.18700   0.62225   0.00000  Uiso   1.00
H26    H     0.78342   0.01843   0.42584   0.00000  Uiso   1.00
H27    H     0.95156   0.06824   0.62749   0.00000  Uiso   1.00
H28    H     0.59972   0.31502   0.67792   0.00000  Uiso   1.00
H29    H     0.76022   0.95957   0.26377   0.00000  Uiso   1.00
H30    H     0.11477   0.06461   0.68897   0.00000  Uiso   1.00
H31    H     0.92588   0.31727   0.40392   0.00000  Uiso   1.00
H32    H     0.82208   0.41907   0.46351   0.00000  Uiso   1.00
H33    H     0.89819   0.25050   0.26709   0.00000  Uiso   1.00
H34    H     0.06632   0.30031   0.46873   0.00000  Uiso   1.00
H35    H     0.69287   0.50338   0.54907   0.00000  Uiso   1.00
H36    H     0.85337   0.14793   0.13492   0.00000  Uiso   1.00
H37    H     0.20791   0.25297   0.56013   0.00000  Uiso   1.00
O38    O     0.57604   0.47219   0.65538   0.00000  Uiso   1.00
O39    O     0.78661   0.00585   0.11204   0.00000  Uiso   1.00
O40    O     0.25177   0.14366   0.66990   0.00000  Uiso   1.00
N41    N     0.63590   0.34538   0.63943   0.00000  Uiso   1.00
N42    N     0.78594   0.01307   0.25222   0.00000  Uiso   1.00
N43    N     0.11742   0.11125   0.64974   0.00000  Uiso   1.00
N44    N     0.68602   0.44674   0.57009   0.00000  Uiso   1.00
N45    N     0.83606   0.11442   0.18289   0.00000  Uiso   1.00
N46    N     0.16754   0.21261   0.58041   0.00000  Uiso   1.00
C47    C     0.51992   0.84200   0.14765   0.00000  Uiso   1.00
C48    C     0.53592   0.79746   0.22690   0.00000  Uiso   1.00
C49    C     0.58798   0.73208   0.23708   0.00000  Uiso   1.00
C50    C     0.59420   0.69981   0.31438   0.00000  Uiso   1.00
C51    C     0.62575   0.62575   0.42758   0.00000  Uiso   1.00
C52    C     0.42919   0.83879   0.13533   0.00000  Uiso   1.00
C53    C     0.39152   0.80818   0.06850   0.00000  Uiso   1.00
C54    C     0.30790   0.81071   0.06872   0.00000  Uiso   1.00
C55    C     0.17375   0.80089   0.03972   0.00000  Uiso   1.00
C56    C     0.53876   0.93014   0.16240   0.00000  Uiso   1.00
C57    C     0.59321   0.97633   0.11832   0.00000  Uiso   1.00
C58    C     0.60182   0.05578   0.14131   0.00000  Uiso   1.00
C59    C     0.63780   0.18778   0.15435   0.00000  Uiso   1.00
C60    C     0.43837   0.90095   0.26684   0.00000  Uiso   1.00
C61    C     0.49162   0.82948   0.29164   0.00000  Uiso   1.00
C62    C     0.49776   0.79730   0.36895   0.00000  Uiso   1.00
C63    C     0.54983   0.73189   0.37924   0.00000  Uiso   1.00
C64    C     0.38489   0.87081   0.20006   0.00000  Uiso   1.00
C65    C     0.30130   0.87340   0.20037   0.00000  Uiso   1.00
C66    C     0.26352   0.84279   0.13357   0.00000  Uiso   1.00
C67    C     0.49447   0.96216   0.22714   0.00000  Uiso   1.00
C68    C     0.50299   0.04155   0.25019   0.00000  Uiso   1.00
C69    C     0.55744   0.08786   0.20617   0.00000  Uiso   1.00
H70    H     0.55440   0.81707   0.09725   0.00000  Uiso   1.00
H71    H     0.62225   0.70731   0.18696   0.00000  Uiso   1.00
H72    H     0.42582   0.78341   0.01841   0.00000  Uiso   1.00
H73    H     0.62747   0.95153   0.06823   0.00000  Uiso   1.00
H74    H     0.67791   0.59973   0.31497   0.00000  Uiso   1.00
H75    H     0.26374   0.76021   0.95956   0.00000  Uiso   1.00
H76    H     0.68897   0.11474   0.06460   0.00000  Uiso   1.00
H77    H     0.40388   0.92588   0.31724   0.00000  Uiso   1.00
H78    H     0.46347   0.82209   0.41903   0.00000  Uiso   1.00
H79    H     0.26705   0.89819   0.25048   0.00000  Uiso   1.00
H80    H     0.46870   0.06631   0.30030   0.00000  Uiso   1.00
H81    H     0.54904   0.69288   0.50333   0.00000  Uiso   1.00
H82    H     0.13487   0.85337   0.14792   0.00000  Uiso   1.00
H83    H     0.56010   0.20789   0.25296   0.00000  Uiso   1.00
O84    O     0.65538   0.57605   0.47213   0.00000  Uiso   1.00
O85    O     0.11200   0.78661   0.00585   0.00000  Uiso   1.00
O86    O     0.66989   0.25174   0.14366   0.00000  Uiso   1.00
N87    N     0.63942   0.63591   0.34533   0.00000  Uiso   1.00
N88    N     0.25219   0.78593   0.01305   0.00000  Uiso   1.00
N89    N     0.64972   0.11739   0.11124   0.00000  Uiso   1.00
N90    N     0.57008   0.68603   0.44669   0.00000  Uiso   1.00
N91    N     0.18284   0.83606   0.11441   0.00000  Uiso   1.00
N92    N     0.58038   0.16752   0.21260   0.00000  Uiso   1.00
C93    C     0.14769   0.51993   0.84199   0.00000  Uiso   1.00
C94    C     0.22695   0.53592   0.79745   0.00000  Uiso   1.00
C95    C     0.23713   0.58798   0.73208   0.00000  Uiso   1.00
C96    C     0.31443   0.59419   0.69981   0.00000  Uiso   1.00
C97    C     0.42765   0.62573   0.62575   0.00000  Uiso   1.00
C98    C     0.13537   0.42920   0.83878   0.00000  Uiso   1.00
C99    C     0.06854   0.39154   0.80817   0.00000  Uiso   1.00
C100   C     0.06876   0.30792   0.81070   0.00000  Uiso   1.00
C101   C     0.03976   0.17378   0.80087   0.00000  Uiso   1.00
C102   C     0.16244   0.53877   0.93013   0.00000  Uiso   1.00
C103   C     0.11835   0.59322   0.97633   0.00000  Uiso   1.00
C104   C     0.14134   0.60184   0.05577   0.00000  Uiso   1.00
C105   C     0.15437   0.63782   0.18777   0.00000  Uiso   1.00
C106   C     0.26689   0.43838   0.90093   0.00000  Uiso   1.00
C107   C     0.29169   0.49162   0.82947   0.00000  Uiso   1.00
C108   C     0.36901   0.49776   0.79729   0.00000  Uiso   1.00
C109   C     0.37930   0.54983   0.73188   0.00000  Uiso   1.00
C110   C     0.20011   0.38491   0.87080   0.00000  Uiso   1.00
C111   C     0.20042   0.30132   0.87338   0.00000  Uiso   1.00
C112   C     0.13362   0.26354   0.84277   0.00000  Uiso   1.00
C113   C     0.22718   0.49448   0.96214   0.00000  Uiso   1.00
C114   C     0.25024   0.50301   0.04154   0.00000  Uiso   1.00
C115   C     0.20620   0.55746   0.08785   0.00000  Uiso   1.00
H116   H     0.09728   0.55441   0.81707   0.00000  Uiso   1.00
H117   H     0.18700   0.62224   0.70732   0.00000  Uiso   1.00
H118   H     0.01844   0.42583   0.78341   0.00000  Uiso   1.00
H119   H     0.06825   0.62749   0.95153   0.00000  Uiso   1.00
H120   H     0.31503   0.67790   0.59974   0.00000  Uiso   1.00
H121   H     0.95960   0.26376   0.76020   0.00000  Uiso   1.00
H122   H     0.06462   0.68899   0.11473   0.00000  Uiso   1.00
H123   H     0.31730   0.40390   0.92586   0.00000  Uiso   1.00
H124   H     0.41910   0.46348   0.82208   0.00000  Uiso   1.00
H125   H     0.25054   0.26707   0.89816   0.00000  Uiso   1.00
H126   H     0.30034   0.46872   0.06629   0.00000  Uiso   1.00
H127   H     0.50340   0.54903   0.69288   0.00000  Uiso   1.00
H128   H     0.14797   0.13489   0.85334   0.00000  Uiso   1.00
H129   H     0.25300   0.56012   0.20787   0.00000  Uiso   1.00
O130   O     0.47221   0.65535   0.57606   0.00000  Uiso   1.00
O131   O     0.00589   0.11202   0.78659   0.00000  Uiso   1.00
O132   O     0.14368   0.66991   0.25172   0.00000  Uiso   1.00
N133   N     0.34539   0.63940   0.63591   0.00000  Uiso   1.00
N134   N     0.01309   0.25221   0.78592   0.00000  Uiso   1.00
N135   N     0.11127   0.64975   0.11739   0.00000  Uiso   1.00
N136   N     0.44676   0.57006   0.68603   0.00000  Uiso   1.00
N137   N     0.11445   0.18287   0.83604   0.00000  Uiso   1.00
N138   N     0.21263   0.58041   0.16750   0.00000  Uiso   1.00
C139   C     0.15799   0.85233   0.48006   0.00000  Uiso   1.00
C140   C     0.20254   0.77307   0.46406   0.00000  Uiso   1.00
C141   C     0.26792   0.76289   0.41200   0.00000  Uiso   1.00
C142   C     0.30020   0.68558   0.40579   0.00000  Uiso   1.00
C143   C     0.37426   0.57237   0.37424   0.00000  Uiso   1.00
C144   C     0.16120   0.86465   0.57078   0.00000  Uiso   1.00
C145   C     0.19181   0.93148   0.60845   0.00000  Uiso   1.00
C146   C     0.18928   0.93127   0.69207   0.00000  Uiso   1.00
C147   C     0.19911   0.96027   0.82620   0.00000  Uiso   1.00
C148   C     0.06985   0.83758   0.46122   0.00000  Uiso   1.00
C149   C     0.02365   0.88166   0.40677   0.00000  Uiso   1.00
C150   C     0.94420   0.85868   0.39816   0.00000  Uiso   1.00
C151   C     0.81219   0.84565   0.36218   0.00000  Uiso   1.00
C152   C     0.09905   0.73314   0.56160   0.00000  Uiso   1.00
C153   C     0.17052   0.70833   0.50836   0.00000  Uiso   1.00
C154   C     0.20270   0.63102   0.50221   0.00000  Uiso   1.00
C155   C     0.26812   0.62072   0.45015   0.00000  Uiso   1.00
C156   C     0.12918   0.79992   0.61507   0.00000  Uiso   1.00
C157   C     0.12660   0.79961   0.69866   0.00000  Uiso   1.00
C158   C     0.15720   0.86641   0.73644   0.00000  Uiso   1.00
C159   C     0.03783   0.77284   0.50551   0.00000  Uiso   1.00
C160   C     0.95844   0.74979   0.49698   0.00000  Uiso   1.00
C161   C     0.91212   0.79382   0.44253   0.00000  Uiso   1.00
H162   H     0.18292   0.90273   0.44559   0.00000  Uiso   1.00
H163   H     0.29268   0.81300   0.37775   0.00000  Uiso   1.00
H164   H     0.21658   0.98157   0.57416   0.00000  Uiso   1.00
H165   H     0.04844   0.93176   0.37251   0.00000  Uiso   1.00
H166   H     0.40028   0.68498   0.32208   0.00000  Uiso   1.00
H167   H     0.23978   0.04043   0.73623   0.00000  Uiso   1.00
H168   H     0.88523   0.93539   0.31103   0.00000  Uiso   1.00
H169   H     0.07412   0.68273   0.59608   0.00000  Uiso   1.00
H170   H     0.17792   0.58093   0.53649   0.00000  Uiso   1.00
H171   H     0.10181   0.74950   0.73291   0.00000  Uiso   1.00
H172   H     0.93368   0.69969   0.53126   0.00000  Uiso   1.00
H173   H     0.30713   0.49662   0.45093   0.00000  Uiso   1.00
H174   H     0.14663   0.85207   0.86508   0.00000  Uiso   1.00
H175   H     0.79209   0.74703   0.43987   0.00000  Uiso   1.00
O176   O     0.42396   0.52781   0.34462   0.00000  Uiso   1.00
O177   O     0.21339   0.99415   0.88796   0.00000  Uiso   1.00
O178   O     0.74823   0.85634   0.33010   0.00000  Uiso   1.00
N179   N     0.36410   0.65462   0.36057   0.00000  Uiso   1.00
N180   N     0.21406   0.98693   0.74778   0.00000  Uiso   1.00
N181   N     0.88258   0.88875   0.35026   0.00000  Uiso   1.00
N182   N     0.31398   0.55326   0.42991   0.00000  Uiso   1.00
N183   N     0.16394   0.88558   0.81711   0.00000  Uiso   1.00
N184   N     0.83246   0.78739   0.41959   0.00000  Uiso   1.00
C185   C     0.48008   0.15800   0.85235   0.00000  Uiso   1.00
C186   C     0.46408   0.20254   0.77310   0.00000  Uiso   1.00
C187   C     0.41202   0.26792   0.76292   0.00000  Uiso   1.00
C188   C     0.40580   0.30019   0.68562   0.00000  Uiso   1.00
C189   C     0.37425   0.37425   0.57242   0.00000  Uiso   1.00
C190   C     0.57081   0.16121   0.86467   0.00000  Uiso   1.00
C191   C     0.60848   0.19182   0.93150   0.00000  Uiso   1.00
C192   C     0.69210   0.18929   0.93128   0.00000  Uiso   1.00
C193   C     0.82625   0.19911   0.96028   0.00000  Uiso   1.00
C194   C     0.46124   0.06986   0.83760   0.00000  Uiso   1.00
C195   C     0.40679   0.02367   0.88168   0.00000  Uiso   1.00
C196   C     0.39818   0.94422   0.85869   0.00000  Uiso   1.00
C197   C     0.36220   0.81222   0.84565   0.00000  Uiso   1.00
C198   C     0.56163   0.09905   0.73316   0.00000  Uiso   1.00
C199   C     0.50838   0.17052   0.70836   0.00000  Uiso   1.00
C200   C     0.50224   0.20270   0.63105   0.00000  Uiso   1.00
C201   C     0.45017   0.26811   0.62076   0.00000  Uiso   1.00
C202   C     0.61511   0.12919   0.79994   0.00000  Uiso   1.00
C203   C     0.69870   0.12660   0.79963   0.00000  Uiso   1.00
C204   C     0.73648   0.15721   0.86643   0.00000  Uiso   1.00
C205   C     0.50553   0.03784   0.77286   0.00000  Uiso   1.00
C206   C     0.49701   0.95845   0.74980   0.00000  Uiso   1.00
C207   C     0.44256   0.91214   0.79383   0.00000  Uiso   1.00
H208   H     0.44560   0.18293   0.90275   0.00000  Uiso   1.00
H209   H     0.37775   0.29269   0.81304   0.00000  Uiso   1.00
H210   H     0.57418   0.21659   0.98159   0.00000  Uiso   1.00
H211   H     0.37253   0.04847   0.93177   0.00000  Uiso   1.00
H212   H     0.32209   0.40027   0.68503   0.00000  Uiso   1.00
H213   H     0.73626   0.23979   0.04044   0.00000  Uiso   1.00
H214   H     0.31103   0.88526   0.93540   0.00000  Uiso   1.00
H215   H     0.59612   0.07412   0.68276   0.00000  Uiso   1.00
H216   H     0.53653   0.17791   0.58097   0.00000  Uiso   1.00
H217   H     0.73295   0.10181   0.74952   0.00000  Uiso   1.00
H218   H     0.53130   0.93369   0.69970   0.00000  Uiso   1.00
H219   H     0.45096   0.30711   0.49667   0.00000  Uiso   1.00
H220   H     0.86513   0.14663   0.85208   0.00000  Uiso   1.00
H221   H     0.43990   0.79211   0.74704   0.00000  Uiso   1.00
O222   O     0.34462   0.42395   0.52787   0.00000  Uiso   1.00
O223   O     0.88800   0.21339   0.99415   0.00000  Uiso   1.00
O224   O     0.33011   0.74826   0.85634   0.00000  Uiso   1.00
N225   N     0.36058   0.36409   0.65467   0.00000  Uiso   1.00
N226   N     0.74781   0.21407   0.98695   0.00000  Uiso   1.00
N227   N     0.35028   0.88261   0.88876   0.00000  Uiso   1.00
N228   N     0.42992   0.31397   0.55331   0.00000  Uiso   1.00
N229   N     0.81716   0.16394   0.88559   0.00000  Uiso   1.00
N230   N     0.41962   0.83248   0.78740   0.00000  Uiso   1.00
C231   C     0.85231   0.48007   0.15801   0.00000  Uiso   1.00
C232   C     0.77305   0.46408   0.20255   0.00000  Uiso   1.00
C233   C     0.76287   0.41202   0.26792   0.00000  Uiso   1.00
C234   C     0.68557   0.40581   0.30019   0.00000  Uiso   1.00
C235   C     0.57235   0.37427   0.37425   0.00000  Uiso   1.00
C236   C     0.86463   0.57080   0.16122   0.00000  Uiso   1.00
C237   C     0.93146   0.60846   0.19183   0.00000  Uiso   1.00
C238   C     0.93124   0.69208   0.18930   0.00000  Uiso   1.00
C239   C     0.96024   0.82622   0.19913   0.00000  Uiso   1.00
C240   C     0.83757   0.46123   0.06987   0.00000  Uiso   1.00
C241   C     0.88165   0.40678   0.02367   0.00000  Uiso   1.00
C242   C     0.85866   0.39816   0.94422   0.00000  Uiso   1.00
C243   C     0.84563   0.36218   0.81223   0.00000  Uiso   1.00
C244   C     0.73311   0.56162   0.09906   0.00000  Uiso   1.00
C245   C     0.70831   0.50838   0.17053   0.00000  Uiso   1.00
C246   C     0.63099   0.50224   0.20271   0.00000  Uiso   1.00
C247   C     0.62070   0.45017   0.26812   0.00000  Uiso   1.00
C248   C     0.79989   0.61509   0.12920   0.00000  Uiso   1.00
C249   C     0.79958   0.69868   0.12662   0.00000  Uiso   1.00
C250   C     0.86638   0.73646   0.15723   0.00000  Uiso   1.00
C251   C     0.77282   0.50552   0.03786   0.00000  Uiso   1.00
C252   C     0.74976   0.49699   0.95846   0.00000  Uiso   1.00
C253   C     0.79380   0.44254   0.91215   0.00000  Uiso   1.00
H254   H     0.90272   0.44559   0.18293   0.00000  Uiso   1.00
H255   H     0.81300   0.37776   0.29268   0.00000  Uiso   1.00
H256   H     0.98156   0.57417   0.21659   0.00000  Uiso   1.00
H257   H     0.93175   0.37251   0.04847   0.00000  Uiso   1.00
H258   H     0.68498   0.32210   0.40026   0.00000  Uiso   1.00
H259   H     0.04040   0.73624   0.23980   0.00000  Uiso   1.00
H260   H     0.93538   0.31101   0.88527   0.00000  Uiso   1.00
H261   H     0.68270   0.59610   0.07414   0.00000  Uiso   1.00
H262   H     0.58090   0.53652   0.17792   0.00000  Uiso   1.00
H263   H     0.74946   0.73293   0.10184   0.00000  Uiso   1.00
H264   H     0.69966   0.53128   0.93371   0.00000  Uiso   1.00
H265   H     0.49660   0.45097   0.30712   0.00000  Uiso   1.00
H266   H     0.85203   0.86511   0.14666   0.00000  Uiso   1.00
H267   H     0.74700   0.43988   0.79213   0.00000  Uiso   1.00
O268   O     0.52779   0.34465   0.42394   0.00000  Uiso   1.00
O269   O     0.99411   0.88798   0.21341   0.00000  Uiso   1.00
O270   O     0.85632   0.33009   0.74828   0.00000  Uiso   1.00
N271   N     0.65461   0.36060   0.36409   0.00000  Uiso   1.00
N272   N     0.98691   0.74779   0.21408   0.00000  Uiso   1.00
N273   N     0.88873   0.35025   0.88261   0.00000  Uiso   1.00
N274   N     0.55324   0.42994   0.31397   0.00000  Uiso   1.00
N275   N     0.88555   0.81713   0.16396   0.00000  Uiso   1.00
N276   N     0.78737   0.41959   0.83250   0.00000  Uiso   1.00
