data_job_03431
_audit_creation_date              2018-12-19
_audit_creation_method            'Materials Studio'
_symmetry_space_group_name_H-M    'P1'
_symmetry_Int_Tables_number       1
_symmetry_cell_setting            triclinic
loop_
_symmetry_equiv_pos_as_xyz
  x,y,z
_cell_length_a                    30.0890
_cell_length_b                    7.7765
_cell_length_c                    40.5507
_cell_angle_alpha                 90.0000
_cell_angle_beta                  159.9971
_cell_angle_gamma                 90.0000
loop_
_atom_site_label
_atom_site_type_symbol
_atom_site_fract_x
_atom_site_fract_y
_atom_site_fract_z
_atom_site_U_iso_or_equiv
_atom_site_adp_type
_atom_site_occupancy
C1     C     0.61039   0.17719   0.75280   0.00000  Uiso   1.00
C2     C     0.65203   0.30703   0.80795   0.00000  Uiso   1.00
C3     C     0.66513   0.27397   0.85056   0.00000  Uiso   1.00
C4     C     0.70426   0.40995   0.89768   0.00000  Uiso   1.00
C5     C     0.76503   0.58677   0.98263   0.00000  Uiso   1.00
C6     C     0.49223   0.25514   0.65335   0.00000  Uiso   1.00
C7     C     0.37100   0.17845   0.56596   0.00000  Uiso   1.00
C8     C     0.27563   0.27074   0.48294   0.00000  Uiso   1.00
C9     C     0.08835   0.36695   0.32785   0.00000  Uiso   1.00
C10    C     0.71855   0.17518   0.80252   0.00000  Uiso   1.00
C11    C     0.78759   0.03124   0.84054   0.00000  Uiso   1.00
C12    C     0.88275   0.05620   0.88309   0.00000  Uiso   1.00
C13    C     0.04686   0.02825   0.95962   0.00000  Uiso   1.00
C14    C     0.65659   0.47746   0.76073   0.00000  Uiso   1.00
C15    C     0.67711   0.47012   0.81226   0.00000  Uiso   1.00
C16    C     0.71624   0.60618   0.85933   0.00000  Uiso   1.00
C17    C     0.72941   0.57333   0.90200   0.00000  Uiso   1.00
C18    C     0.51732   0.41823   0.65765   0.00000  Uiso   1.00
C19    C     0.42211   0.51066   0.57474   0.00000  Uiso   1.00
C20    C     0.30076   0.43413   0.48725   0.00000  Uiso   1.00
C21    C     0.74365   0.33827   0.80683   0.00000  Uiso   1.00
C22    C     0.83870   0.36346   0.84932   0.00000  Uiso   1.00
C23    C     0.90788   0.21959   0.88741   0.00000  Uiso   1.00
H24    H     0.59085   0.05022   0.74944   0.00000  Uiso   1.00
H25    H     0.64569   0.14774   0.84720   0.00000  Uiso   1.00
H26    H     0.35162   0.05223   0.56265   0.00000  Uiso   1.00
H27    H     0.76815   0.90505   0.83719   0.00000  Uiso   1.00
H28    H     0.71752   0.32781   0.95746   0.00000  Uiso   1.00
H29    H     0.09745   0.12639   0.35747   0.00000  Uiso   1.00
H30    H     0.97578   0.81603   0.93639   0.00000  Uiso   1.00
H31    H     0.67612   0.60444   0.76408   0.00000  Uiso   1.00
H32    H     0.73565   0.73238   0.86266   0.00000  Uiso   1.00
H33    H     0.44157   0.63686   0.57810   0.00000  Uiso   1.00
H34    H     0.85810   0.48968   0.85264   0.00000  Uiso   1.00
H35    H     0.79053   0.80232   0.97000   0.00000  Uiso   1.00
H36    H     0.17045   0.60089   0.37000   0.00000  Uiso   1.00
H37    H     0.04879   0.29054   0.94893   0.00000  Uiso   1.00
O38    O     0.79160   0.63925   0.02828   0.00000  Uiso   1.00
O39    O     0.97811   0.37497   0.24112   0.00000  Uiso   1.00
O40    O     0.13046   0.96779   0.00065   0.00000  Uiso   1.00
N41    N     0.72656   0.42192   0.94690   0.00000  Uiso   1.00
N42    N     0.14682   0.23361   0.38594   0.00000  Uiso   1.00
N43    N     0.96797   0.94344   0.92716   0.00000  Uiso   1.00
N44    N     0.76584   0.67725   0.95365   0.00000  Uiso   1.00
N45    N     0.18611   0.48894   0.39269   0.00000  Uiso   1.00
N46    N     0.00725   0.19877   0.93391   0.00000  Uiso   1.00
C47    C     0.11039   0.67719   0.75280   0.00000  Uiso   1.00
C48    C     0.15203   0.80703   0.80795   0.00000  Uiso   1.00
C49    C     0.16513   0.77397   0.85056   0.00000  Uiso   1.00
C50    C     0.20426   0.90995   0.89768   0.00000  Uiso   1.00
C51    C     0.26503   0.08677   0.98263   0.00000  Uiso   1.00
C52    C     0.99223   0.75514   0.65335   0.00000  Uiso   1.00
C53    C     0.87100   0.67845   0.56596   0.00000  Uiso   1.00
C54    C     0.77563   0.77074   0.48294   0.00000  Uiso   1.00
C55    C     0.58835   0.86695   0.32785   0.00000  Uiso   1.00
C56    C     0.21855   0.67518   0.80252   0.00000  Uiso   1.00
C57    C     0.28759   0.53124   0.84054   0.00000  Uiso   1.00
C58    C     0.38275   0.55620   0.88309   0.00000  Uiso   1.00
C59    C     0.54686   0.52825   0.95962   0.00000  Uiso   1.00
C60    C     0.15659   0.97746   0.76073   0.00000  Uiso   1.00
C61    C     0.17711   0.97012   0.81226   0.00000  Uiso   1.00
C62    C     0.21624   0.10618   0.85933   0.00000  Uiso   1.00
C63    C     0.22941   0.07333   0.90200   0.00000  Uiso   1.00
C64    C     0.01732   0.91823   0.65765   0.00000  Uiso   1.00
C65    C     0.92211   0.01066   0.57474   0.00000  Uiso   1.00
C66    C     0.80076   0.93413   0.48725   0.00000  Uiso   1.00
C67    C     0.24365   0.83827   0.80683   0.00000  Uiso   1.00
C68    C     0.33870   0.86346   0.84932   0.00000  Uiso   1.00
C69    C     0.40788   0.71959   0.88741   0.00000  Uiso   1.00
H70    H     0.09085   0.55022   0.74944   0.00000  Uiso   1.00
H71    H     0.14569   0.64774   0.84720   0.00000  Uiso   1.00
H72    H     0.85162   0.55223   0.56265   0.00000  Uiso   1.00
H73    H     0.26815   0.40505   0.83719   0.00000  Uiso   1.00
H74    H     0.21752   0.82781   0.95746   0.00000  Uiso   1.00
H75    H     0.59745   0.62639   0.35747   0.00000  Uiso   1.00
H76    H     0.47578   0.31603   0.93639   0.00000  Uiso   1.00
H77    H     0.17612   0.10444   0.76408   0.00000  Uiso   1.00
H78    H     0.23565   0.23238   0.86266   0.00000  Uiso   1.00
H79    H     0.94157   0.13686   0.57810   0.00000  Uiso   1.00
H80    H     0.35810   0.98968   0.85264   0.00000  Uiso   1.00
H81    H     0.29053   0.30232   0.97000   0.00000  Uiso   1.00
H82    H     0.67045   0.10089   0.37000   0.00000  Uiso   1.00
H83    H     0.54879   0.79054   0.94893   0.00000  Uiso   1.00
O84    O     0.29160   0.13925   0.02828   0.00000  Uiso   1.00
O85    O     0.47811   0.87497   0.24112   0.00000  Uiso   1.00
O86    O     0.63046   0.46779   0.00065   0.00000  Uiso   1.00
N87    N     0.22656   0.92192   0.94690   0.00000  Uiso   1.00
N88    N     0.64682   0.73361   0.38594   0.00000  Uiso   1.00
N89    N     0.46797   0.44344   0.92716   0.00000  Uiso   1.00
N90    N     0.26584   0.17725   0.95365   0.00000  Uiso   1.00
N91    N     0.68611   0.98894   0.39269   0.00000  Uiso   1.00
N92    N     0.50725   0.69877   0.93391   0.00000  Uiso   1.00
C93    C     0.38961   0.17719   0.24720   0.00000  Uiso   1.00
C94    C     0.34797   0.30703   0.19205   0.00000  Uiso   1.00
C95    C     0.33487   0.27397   0.14944   0.00000  Uiso   1.00
C96    C     0.29574   0.40995   0.10232   0.00000  Uiso   1.00
C97    C     0.23497   0.58677   0.01737   0.00000  Uiso   1.00
C98    C     0.50777   0.25514   0.34665   0.00000  Uiso   1.00
C99    C     0.62900   0.17845   0.43404   0.00000  Uiso   1.00
C100   C     0.72437   0.27074   0.51706   0.00000  Uiso   1.00
C101   C     0.91165   0.36695   0.67215   0.00000  Uiso   1.00
C102   C     0.28145   0.17518   0.19748   0.00000  Uiso   1.00
C103   C     0.21241   0.03124   0.15946   0.00000  Uiso   1.00
C104   C     0.11725   0.05620   0.11691   0.00000  Uiso   1.00
C105   C     0.95314   0.02825   0.04038   0.00000  Uiso   1.00
C106   C     0.34341   0.47746   0.23927   0.00000  Uiso   1.00
C107   C     0.32289   0.47012   0.18774   0.00000  Uiso   1.00
C108   C     0.28376   0.60618   0.14067   0.00000  Uiso   1.00
C109   C     0.27059   0.57333   0.09800   0.00000  Uiso   1.00
C110   C     0.48268   0.41823   0.34235   0.00000  Uiso   1.00
C111   C     0.57789   0.51066   0.42526   0.00000  Uiso   1.00
C112   C     0.69924   0.43413   0.51275   0.00000  Uiso   1.00
C113   C     0.25635   0.33827   0.19317   0.00000  Uiso   1.00
C114   C     0.16130   0.36346   0.15068   0.00000  Uiso   1.00
C115   C     0.09212   0.21959   0.11259   0.00000  Uiso   1.00
H116   H     0.40915   0.05022   0.25056   0.00000  Uiso   1.00
H117   H     0.35431   0.14774   0.15280   0.00000  Uiso   1.00
H118   H     0.64838   0.05223   0.43735   0.00000  Uiso   1.00
H119   H     0.23185   0.90505   0.16281   0.00000  Uiso   1.00
H120   H     0.28248   0.32781   0.04254   0.00000  Uiso   1.00
H121   H     0.90255   0.12639   0.64253   0.00000  Uiso   1.00
H122   H     0.02422   0.81603   0.06361   0.00000  Uiso   1.00
H123   H     0.32388   0.60444   0.23592   0.00000  Uiso   1.00
H124   H     0.26435   0.73238   0.13734   0.00000  Uiso   1.00
H125   H     0.55843   0.63686   0.42190   0.00000  Uiso   1.00
H126   H     0.14190   0.48968   0.14736   0.00000  Uiso   1.00
H127   H     0.20947   0.80232   0.03000   0.00000  Uiso   1.00
H128   H     0.82955   0.60089   0.63000   0.00000  Uiso   1.00
H129   H     0.95121   0.29054   0.05107   0.00000  Uiso   1.00
O130   O     0.20840   0.63925   0.97172   0.00000  Uiso   1.00
O131   O     0.02189   0.37497   0.75888   0.00000  Uiso   1.00
O132   O     0.86954   0.96779   0.99935   0.00000  Uiso   1.00
N133   N     0.27344   0.42192   0.05310   0.00000  Uiso   1.00
N134   N     0.85318   0.23361   0.61406   0.00000  Uiso   1.00
N135   N     0.03203   0.94344   0.07284   0.00000  Uiso   1.00
N136   N     0.23416   0.67725   0.04635   0.00000  Uiso   1.00
N137   N     0.81389   0.48894   0.60731   0.00000  Uiso   1.00
N138   N     0.99275   0.19877   0.06609   0.00000  Uiso   1.00
C139   C     0.88961   0.67719   0.24720   0.00000  Uiso   1.00
C140   C     0.84797   0.80703   0.19205   0.00000  Uiso   1.00
C141   C     0.83487   0.77397   0.14944   0.00000  Uiso   1.00
C142   C     0.79574   0.90995   0.10232   0.00000  Uiso   1.00
C143   C     0.73497   0.08677   0.01737   0.00000  Uiso   1.00
C144   C     0.00777   0.75514   0.34665   0.00000  Uiso   1.00
C145   C     0.12900   0.67845   0.43404   0.00000  Uiso   1.00
C146   C     0.22437   0.77074   0.51706   0.00000  Uiso   1.00
C147   C     0.41165   0.86695   0.67215   0.00000  Uiso   1.00
C148   C     0.78145   0.67518   0.19748   0.00000  Uiso   1.00
C149   C     0.71241   0.53124   0.15946   0.00000  Uiso   1.00
C150   C     0.61725   0.55620   0.11691   0.00000  Uiso   1.00
C151   C     0.45314   0.52825   0.04038   0.00000  Uiso   1.00
C152   C     0.84341   0.97746   0.23927   0.00000  Uiso   1.00
C153   C     0.82289   0.97012   0.18774   0.00000  Uiso   1.00
C154   C     0.78376   0.10618   0.14067   0.00000  Uiso   1.00
C155   C     0.77059   0.07333   0.09800   0.00000  Uiso   1.00
C156   C     0.98268   0.91823   0.34235   0.00000  Uiso   1.00
C157   C     0.07789   0.01066   0.42526   0.00000  Uiso   1.00
C158   C     0.19924   0.93413   0.51275   0.00000  Uiso   1.00
C159   C     0.75635   0.83827   0.19317   0.00000  Uiso   1.00
C160   C     0.66130   0.86346   0.15068   0.00000  Uiso   1.00
C161   C     0.59212   0.71959   0.11259   0.00000  Uiso   1.00
H162   H     0.90915   0.55022   0.25056   0.00000  Uiso   1.00
H163   H     0.85431   0.64774   0.15280   0.00000  Uiso   1.00
H164   H     0.14838   0.55223   0.43735   0.00000  Uiso   1.00
H165   H     0.73185   0.40505   0.16281   0.00000  Uiso   1.00
H166   H     0.78248   0.82781   0.04254   0.00000  Uiso   1.00
H167   H     0.40255   0.62639   0.64253   0.00000  Uiso   1.00
H168   H     0.52422   0.31603   0.06361   0.00000  Uiso   1.00
H169   H     0.82388   0.10444   0.23592   0.00000  Uiso   1.00
H170   H     0.76435   0.23238   0.13734   0.00000  Uiso   1.00
H171   H     0.05843   0.13686   0.42190   0.00000  Uiso   1.00
H172   H     0.64190   0.98968   0.14736   0.00000  Uiso   1.00
H173   H     0.70947   0.30232   0.03000   0.00000  Uiso   1.00
H174   H     0.32955   0.10089   0.63000   0.00000  Uiso   1.00
H175   H     0.45121   0.79054   0.05107   0.00000  Uiso   1.00
O176   O     0.70840   0.13925   0.97172   0.00000  Uiso   1.00
O177   O     0.52189   0.87497   0.75888   0.00000  Uiso   1.00
O178   O     0.36954   0.46779   0.99935   0.00000  Uiso   1.00
N179   N     0.77344   0.92192   0.05310   0.00000  Uiso   1.00
N180   N     0.35318   0.73361   0.61406   0.00000  Uiso   1.00
N181   N     0.53203   0.44344   0.07284   0.00000  Uiso   1.00
N182   N     0.73416   0.17725   0.04635   0.00000  Uiso   1.00
N183   N     0.31389   0.98894   0.60731   0.00000  Uiso   1.00
N184   N     0.49275   0.69877   0.06609   0.00000  Uiso   1.00
