data_job_06810
_audit_creation_date              2018-12-19
_audit_creation_method            'Materials Studio'
_symmetry_space_group_name_H-M    'P1'
_symmetry_Int_Tables_number       1
_symmetry_cell_setting            triclinic
loop_
_symmetry_equiv_pos_as_xyz
  x,y,z
_cell_length_a                    22.7748
_cell_length_b                    22.3891
_cell_length_c                    21.5212
_cell_angle_alpha                 109.0440
_cell_angle_beta                  105.3260
_cell_angle_gamma                 111.6450
loop_
_atom_site_label
_atom_site_type_symbol
_atom_site_fract_x
_atom_site_fract_y
_atom_site_fract_z
_atom_site_U_iso_or_equiv
_atom_site_adp_type
_atom_site_occupancy
C1     C     0.33478   0.00859   0.24199   0.00000  Uiso   1.00
C2     C     0.25476   0.96952   0.20363   0.00000  Uiso   1.00
C3     C     0.21520   0.97871   0.15007   0.00000  Uiso   1.00
C4     C     0.14263   0.93795   0.12178   0.00000  Uiso   1.00
C5     C     0.02322   0.88464   0.05852   0.00000  Uiso   1.00
C6     C     0.35522   0.04660   0.32360   0.00000  Uiso   1.00
C7     C     0.40013   0.12059   0.37090   0.00000  Uiso   1.00
C8     C     0.41213   0.14471   0.44359   0.00000  Uiso   1.00
C9     C     0.44872   0.21106   0.56659   0.00000  Uiso   1.00
C10    C     0.35427   0.94884   0.22960   0.00000  Uiso   1.00
C11    C     0.39839   0.94066   0.19789   0.00000  Uiso   1.00
C12    C     0.40962   0.88248   0.19147   0.00000  Uiso   1.00
C13    C     0.44473   0.79706   0.16853   0.00000  Uiso   1.00
C14    C     0.27627   0.91984   0.28701   0.00000  Uiso   1.00
C15    C     0.22298   0.92131   0.22809   0.00000  Uiso   1.00
C16    C     0.15046   0.88052   0.19987   0.00000  Uiso   1.00
C17    C     0.11079   0.88965   0.14627   0.00000  Uiso   1.00
C18    C     0.32344   0.99839   0.34805   0.00000  Uiso   1.00
C19    C     0.33539   0.02240   0.42069   0.00000  Uiso   1.00
C20    C     0.38030   0.09642   0.46809   0.00000  Uiso   1.00
C21    C     0.32249   0.90064   0.25405   0.00000  Uiso   1.00
C22    C     0.33365   0.84246   0.24769   0.00000  Uiso   1.00
C23    C     0.37778   0.83419   0.21596   0.00000  Uiso   1.00
H24    H     0.35953   0.04612   0.22297   0.00000  Uiso   1.00
H25    H     0.23981   0.01603   0.13117   0.00000  Uiso   1.00
H26    H     0.42472   0.15788   0.35196   0.00000  Uiso   1.00
H27    H     0.42298   0.97798   0.17898   0.00000  Uiso   1.00
H28    H     0.09307   0.96143   0.04019   0.00000  Uiso   1.00
H29    H     0.48297   0.26053   0.50575   0.00000  Uiso   1.00
H30    H     0.47931   0.88116   0.14099   0.00000  Uiso   1.00
H31    H     0.25153   0.88231   0.30604   0.00000  Uiso   1.00
H32    H     0.12588   0.84322   0.21880   0.00000  Uiso   1.00
H33    H     0.31079   0.98508   0.43959   0.00000  Uiso   1.00
H34    H     0.30905   0.80517   0.26661   0.00000  Uiso   1.00
H35    H     0.00060   0.82117   0.11132   0.00000  Uiso   1.00
H36    H     0.39050   0.12028   0.57688   0.00000  Uiso   1.00
H37    H     0.38684   0.74090   0.21211   0.00000  Uiso   1.00
O38    O     0.96613   0.86856   0.01688   0.00000  Uiso   1.00
O39    O     0.47767   0.26097   0.62768   0.00000  Uiso   1.00
O40    O     0.47287   0.76325   0.14911   0.00000  Uiso   1.00
N41    N     0.08855   0.93377   0.06890   0.00000  Uiso   1.00
N42    N     0.45307   0.21342   0.50416   0.00000  Uiso   1.00
N43    N     0.44967   0.85875   0.16315   0.00000  Uiso   1.00
N44    N     0.03879   0.85830   0.10717   0.00000  Uiso   1.00
N45    N     0.40332   0.13795   0.54243   0.00000  Uiso   1.00
N46    N     0.39991   0.78328   0.20143   0.00000  Uiso   1.00
C47    C     0.22062   0.34046   0.82642   0.00000  Uiso   1.00
C48    C     0.19843   0.26023   0.78480   0.00000  Uiso   1.00
C49    C     0.13936   0.20170   0.77438   0.00000  Uiso   1.00
C50    C     0.12827   0.13249   0.73475   0.00000  Uiso   1.00
C51    C     0.08679   0.00947   0.67444   0.00000  Uiso   1.00
C52    C     0.29512   0.37728   0.88576   0.00000  Uiso   1.00
C53    C     0.31733   0.41717   0.96023   0.00000  Uiso   1.00
C54    C     0.38764   0.44649   0.00559   0.00000  Uiso   1.00
C55    C     0.49628   0.50524   0.10203   0.00000  Uiso   1.00
C56    C     0.22680   0.37096   0.77315   0.00000  Uiso   1.00
C57    C     0.19158   0.40556   0.75295   0.00000  Uiso   1.00
C58    C     0.20437   0.42958   0.70352   0.00000  Uiso   1.00
C59    C     0.20693   0.47852   0.62511   0.00000  Uiso   1.00
C60    C     0.30598   0.32162   0.77456   0.00000  Uiso   1.00
C61    C     0.24480   0.25000   0.75663   0.00000  Uiso   1.00
C62    C     0.23380   0.18086   0.71700   0.00000  Uiso   1.00
C63    C     0.17471   0.12224   0.70652   0.00000  Uiso   1.00
C64    C     0.34148   0.36705   0.85760   0.00000  Uiso   1.00
C65    C     0.41177   0.39632   0.90286   0.00000  Uiso   1.00
C66    C     0.43409   0.43624   0.97737   0.00000  Uiso   1.00
C67    C     0.27316   0.36073   0.74498   0.00000  Uiso   1.00
C68    C     0.28602   0.38471   0.69557   0.00000  Uiso   1.00
C69    C     0.25082   0.41933   0.67530   0.00000  Uiso   1.00
H70    H     0.18452   0.34843   0.84835   0.00000  Uiso   1.00
H71    H     0.10349   0.20965   0.79619   0.00000  Uiso   1.00
H72    H     0.28144   0.42508   0.98201   0.00000  Uiso   1.00
H73    H     0.15570   0.41347   0.77476   0.00000  Uiso   1.00
H74    H     0.03412   0.05126   0.72597   0.00000  Uiso   1.00
H75    H     0.40934   0.50554   0.11778   0.00000  Uiso   1.00
H76    H     0.14419   0.48106   0.68076   0.00000  Uiso   1.00
H77    H     0.34208   0.31366   0.75263   0.00000  Uiso   1.00
H78    H     0.26969   0.17296   0.69521   0.00000  Uiso   1.00
H79    H     0.44764   0.38840   0.88104   0.00000  Uiso   1.00
H80    H     0.32190   0.37678   0.67379   0.00000  Uiso   1.00
H81    H     0.16901   0.02149   0.64401   0.00000  Uiso   1.00
H82    H     0.54423   0.47577   0.03583   0.00000  Uiso   1.00
H83    H     0.27908   0.45128   0.59880   0.00000  Uiso   1.00
O84    O     0.05111   0.94445   0.64897   0.00000  Uiso   1.00
O85    O     0.54339   0.54046   0.16301   0.00000  Uiso   1.00
O86    O     0.19552   0.50833   0.58964   0.00000  Uiso   1.00
N87    N     0.07579   0.06356   0.71454   0.00000  Uiso   1.00
N88    N     0.42660   0.48828   0.08087   0.00000  Uiso   1.00
N89    N     0.17872   0.46541   0.67230   0.00000  Uiso   1.00
N90    N     0.14837   0.04754   0.67044   0.00000  Uiso   1.00
N91    N     0.49918   0.47226   0.03677   0.00000  Uiso   1.00
N92    N     0.25131   0.44938   0.62820   0.00000  Uiso   1.00
C93    C     0.95617   0.30047   0.30630   0.00000  Uiso   1.00
C94    C     0.91725   0.26532   0.22333   0.00000  Uiso   1.00
C95    C     0.91741   0.20765   0.17327   0.00000  Uiso   1.00
C96    C     0.87848   0.18333   0.09972   0.00000  Uiso   1.00
C97    C     0.82381   0.12386   0.97432   0.00000  Uiso   1.00
C98    C     0.00305   0.38136   0.33256   0.00000  Uiso   1.00
C99    C     0.07535   0.42124   0.37436   0.00000  Uiso   1.00
C100   C     0.10865   0.49461   0.39277   0.00000  Uiso   1.00
C101   C     0.18718   0.61530   0.43700   0.00000  Uiso   1.00
C102   C     0.90065   0.29544   0.33451   0.00000  Uiso   1.00
C103   C     0.88687   0.26311   0.37796   0.00000  Uiso   1.00
C104   C     0.83397   0.26416   0.39802   0.00000  Uiso   1.00
C105   C     0.75351   0.25145   0.44528   0.00000  Uiso   1.00
C106   C     0.88675   0.35985   0.26470   0.00000  Uiso   1.00
C107   C     0.87954   0.29757   0.20073   0.00000  Uiso   1.00
C108   C     0.84060   0.27334   0.12724   0.00000  Uiso   1.00
C109   C     0.84070   0.21564   0.07708   0.00000  Uiso   1.00
C110   C     0.96534   0.41361   0.30997   0.00000  Uiso   1.00
C111   C     0.99854   0.48694   0.32833   0.00000  Uiso   1.00
C112   C     0.07088   0.52692   0.37013   0.00000  Uiso   1.00
C113   C     0.86294   0.32769   0.31191   0.00000  Uiso   1.00
C114   C     0.81006   0.32880   0.33192   0.00000  Uiso   1.00
C115   C     0.79620   0.29647   0.37539   0.00000  Uiso   1.00
H116   H     0.98553   0.27537   0.32390   0.00000  Uiso   1.00
H117   H     0.94660   0.18271   0.19078   0.00000  Uiso   1.00
H118   H     0.10452   0.39627   0.39184   0.00000  Uiso   1.00
H119   H     0.91606   0.23816   0.39543   0.00000  Uiso   1.00
H120   H     0.88683   0.09421   0.03322   0.00000  Uiso   1.00
H121   H     0.21980   0.54453   0.45720   0.00000  Uiso   1.00
H122   H     0.82241   0.21112   0.46477   0.00000  Uiso   1.00
H123   H     0.85739   0.38496   0.24711   0.00000  Uiso   1.00
H124   H     0.81143   0.29831   0.10977   0.00000  Uiso   1.00
H125   H     0.96934   0.51187   0.31084   0.00000  Uiso   1.00
H126   H     0.78089   0.35376   0.31443   0.00000  Uiso   1.00
H127   H     0.77712   0.18804   0.96748   0.00000  Uiso   1.00
H128   H     0.11009   0.63836   0.39145   0.00000  Uiso   1.00
H129   H     0.71270   0.30494   0.39903   0.00000  Uiso   1.00
O130   O     0.80407   0.08216   0.91139   0.00000  Uiso   1.00
O131   O     0.24091   0.67296   0.46764   0.00000  Uiso   1.00
O132   O     0.71955   0.23553   0.47757   0.00000  Uiso   1.00
N133   N     0.86731   0.12818   0.03660   0.00000  Uiso   1.00
N134   N     0.17862   0.54920   0.43298   0.00000  Uiso   1.00
N135   N     0.80711   0.23750   0.44008   0.00000  Uiso   1.00
N136   N     0.80827   0.17866   0.00122   0.00000  Uiso   1.00
N137   N     0.11958   0.59968   0.39760   0.00000  Uiso   1.00
N138   N     0.74807   0.28799   0.40470   0.00000  Uiso   1.00
C139   C     0.76682   0.74185   0.41164   0.00000  Uiso   1.00
C140   C     0.69714   0.72742   0.35952   0.00000  Uiso   1.00
C141   C     0.63092   0.67435   0.34270   0.00000  Uiso   1.00
C142   C     0.57369   0.66988   0.29377   0.00000  Uiso   1.00
C143   C     0.46416   0.64035   0.21757   0.00000  Uiso   1.00
C144   C     0.80559   0.82191   0.46881   0.00000  Uiso   1.00
C145   C     0.83057   0.84829   0.54387   0.00000  Uiso   1.00
C146   C     0.86464   0.92337   0.58694   0.00000  Uiso   1.00
C147   C     0.92352   0.04055   0.68042   0.00000  Uiso   1.00
C148   C     0.80877   0.73546   0.36755   0.00000  Uiso   1.00
C149   C     0.83644   0.68916   0.35749   0.00000  Uiso   1.00
C150   C     0.87320   0.69146   0.31531   0.00000  Uiso   1.00
C151   C     0.93702   0.67441   0.25157   0.00000  Uiso   1.00
C152   C     0.78292   0.82828   0.35464   0.00000  Uiso   1.00
C153   C     0.70589   0.77437   0.32856   0.00000  Uiso   1.00
C154   C     0.64874   0.76998   0.27964   0.00000  Uiso   1.00
C155   C     0.58245   0.71691   0.26275   0.00000  Uiso   1.00
C156   C     0.81434   0.86886   0.43785   0.00000  Uiso   1.00
C157   C     0.84838   0.94392   0.48081   0.00000  Uiso   1.00
C158   C     0.87340   0.97041   0.55593   0.00000  Uiso   1.00
C159   C     0.81752   0.78240   0.33659   0.00000  Uiso   1.00
C160   C     0.85425   0.78479   0.29443   0.00000  Uiso   1.00
C161   C     0.88196   0.73850   0.28430   0.00000  Uiso   1.00
H162   H     0.76002   0.70530   0.43575   0.00000  Uiso   1.00
H163   H     0.62418   0.63803   0.36668   0.00000  Uiso   1.00
H164   H     0.82380   0.81194   0.56782   0.00000  Uiso   1.00
H165   H     0.82966   0.65283   0.38146   0.00000  Uiso   1.00
H166   H     0.47743   0.58417   0.27646   0.00000  Uiso   1.00
H167   H     0.89836   0.95088   0.70058   0.00000  Uiso   1.00
H168   H     0.91073   0.61536   0.30761   0.00000  Uiso   1.00
H169   H     0.78973   0.86484   0.33054   0.00000  Uiso   1.00
H170   H     0.65552   0.80632   0.25569   0.00000  Uiso   1.00
H171   H     0.85514   0.98024   0.45684   0.00000  Uiso   1.00
H172   H     0.86101   0.82112   0.27048   0.00000  Uiso   1.00
H173   H     0.50287   0.72076   0.18639   0.00000  Uiso   1.00
H174   H     0.92380   0.08747   0.61051   0.00000  Uiso   1.00
H175   H     0.93617   0.75196   0.21753   0.00000  Uiso   1.00
O176   O     0.40133   0.61111   0.18410   0.00000  Uiso   1.00
O177   O     0.95358   0.09222   0.74053   0.00000  Uiso   1.00
O178   O     0.96980   0.65202   0.22496   0.00000  Uiso   1.00
N179   N     0.50184   0.62434   0.26552   0.00000  Uiso   1.00
N180   N     0.89537   0.96719   0.66205   0.00000  Uiso   1.00
N181   N     0.90695   0.65352   0.29467   0.00000  Uiso   1.00
N182   N     0.51553   0.69783   0.21705   0.00000  Uiso   1.00
N183   N     0.90906   0.04069   0.61358   0.00000  Uiso   1.00
N184   N     0.92064   0.72702   0.24620   0.00000  Uiso   1.00
C185   C     0.72118   0.48983   0.79736   0.00000  Uiso   1.00
C186   C     0.69745   0.43746   0.71793   0.00000  Uiso   1.00
C187   C     0.64491   0.42606   0.65744   0.00000  Uiso   1.00
C188   C     0.63105   0.37587   0.58938   0.00000  Uiso   1.00
C189   C     0.58855   0.30028   0.46714   0.00000  Uiso   1.00
C190   C     0.79989   0.54086   0.82814   0.00000  Uiso   1.00
C191   C     0.83349   0.61640   0.86033   0.00000  Uiso   1.00
C192   C     0.90587   0.65324   0.88505   0.00000  Uiso   1.00
C193   C     0.02241   0.73818   0.93396   0.00000  Uiso   1.00
C194   C     0.71335   0.44397   0.83690   0.00000  Uiso   1.00
C195   C     0.67420   0.43806   0.87648   0.00000  Uiso   1.00
C196   C     0.67373   0.39335   0.90860   0.00000  Uiso   1.00
C197   C     0.65591   0.32785   0.97111   0.00000  Uiso   1.00
C198   C     0.78999   0.42096   0.78406   0.00000  Uiso   1.00
C199   C     0.73483   0.40006   0.71070   0.00000  Uiso   1.00
C200   C     0.72105   0.34987   0.64272   0.00000  Uiso   1.00
C201   C     0.66850   0.33839   0.58214   0.00000  Uiso   1.00
C202   C     0.83727   0.50346   0.82091   0.00000  Uiso   1.00
C203   C     0.90962   0.54020   0.84560   0.00000  Uiso   1.00
C204   C     0.94331   0.61577   0.87781   0.00000  Uiso   1.00
C205   C     0.75073   0.40656   0.82968   0.00000  Uiso   1.00
C206   C     0.75033   0.36186   0.86175   0.00000  Uiso   1.00
C207   C     0.71118   0.35587   0.90136   0.00000  Uiso   1.00
H208   H     0.69208   0.51896   0.80299   0.00000  Uiso   1.00
H209   H     0.61600   0.45503   0.66306   0.00000  Uiso   1.00
H210   H     0.80455   0.64533   0.86592   0.00000  Uiso   1.00
H211   H     0.64528   0.46702   0.88206   0.00000  Uiso   1.00
H212   H     0.54816   0.36767   0.50472   0.00000  Uiso   1.00
H213   H     0.94571   0.76894   0.93249   0.00000  Uiso   1.00
H214   H     0.60987   0.39293   0.96653   0.00000  Uiso   1.00
H215   H     0.81909   0.39184   0.77843   0.00000  Uiso   1.00
H216   H     0.74998   0.32093   0.63714   0.00000  Uiso   1.00
H217   H     0.93853   0.51123   0.84001   0.00000  Uiso   1.00
H218   H     0.77926   0.33292   0.85615   0.00000  Uiso   1.00
H219   H     0.65690   0.25884   0.48369   0.00000  Uiso   1.00
H220   H     0.05446   0.66010   0.91146   0.00000  Uiso   1.00
H221   H     0.71862   0.28409   0.94550   0.00000  Uiso   1.00
O222   O     0.55479   0.26892   0.40171   0.00000  Uiso   1.00
O223   O     0.07637   0.79537   0.96293   0.00000  Uiso   1.00
O224   O     0.63575   0.30205   0.00758   0.00000  Uiso   1.00
N225   N     0.58322   0.35178   0.51916   0.00000  Uiso   1.00
N226   N     0.95492   0.72694   0.91909   0.00000  Uiso   1.00
N227   N     0.64095   0.37542   0.95093   0.00000  Uiso   1.00
N228   N     0.64174   0.29321   0.50785   0.00000  Uiso   1.00
N229   N     0.01343   0.66837   0.90777   0.00000  Uiso   1.00
N230   N     0.69946   0.31685   0.93961   0.00000  Uiso   1.00
C231   C     0.49701   0.86016   0.69433   0.00000  Uiso   1.00
C232   C     0.44511   0.77850   0.65567   0.00000  Uiso   1.00
C233   C     0.44748   0.72513   0.60255   0.00000  Uiso   1.00
C234   C     0.39517   0.65351   0.57387   0.00000  Uiso   1.00
C235   C     0.32263   0.52937   0.51025   0.00000  Uiso   1.00
C236   C     0.52615   0.88352   0.77592   0.00000  Uiso   1.00
C237   C     0.59665   0.91847   0.82391   0.00000  Uiso   1.00
C238   C     0.61256   0.93527   0.89645   0.00000  Uiso   1.00
C239   C     0.66584   0.97423   0.01955   0.00000  Uiso   1.00
C240   C     0.45323   0.89633   0.68125   0.00000  Uiso   1.00
C241   C     0.46243   0.94207   0.64966   0.00000  Uiso   1.00
C242   C     0.41696   0.96967   0.64252   0.00000  Uiso   1.00
C243   C     0.35702   0.02852   0.61862   0.00000  Uiso   1.00
C244   C     0.39991   0.82787   0.73786   0.00000  Uiso   1.00
C245   C     0.39237   0.76096   0.67931   0.00000  Uiso   1.00
C246   C     0.34005   0.68940   0.65070   0.00000  Uiso   1.00
C247   C     0.34233   0.63594   0.59754   0.00000  Uiso   1.00
C248   C     0.47341   0.86598   0.79956   0.00000  Uiso   1.00
C249   C     0.48922   0.88274   0.87205   0.00000  Uiso   1.00
C250   C     0.55973   0.91770   0.92014   0.00000  Uiso   1.00
C251   C     0.40049   0.87879   0.70489   0.00000  Uiso   1.00
C252   C     0.35500   0.90633   0.69780   0.00000  Uiso   1.00
C253   C     0.36413   0.95209   0.66620   0.00000  Uiso   1.00
H254   H     0.53807   0.87382   0.67594   0.00000  Uiso   1.00
H255   H     0.48830   0.73873   0.58427   0.00000  Uiso   1.00
H256   H     0.63745   0.93205   0.80560   0.00000  Uiso   1.00
H257   H     0.50325   0.95563   0.63137   0.00000  Uiso   1.00
H258   H     0.40988   0.58122   0.49309   0.00000  Uiso   1.00
H259   H     0.72437   0.98885   0.95977   0.00000  Uiso   1.00
H260   H     0.44139   0.03860   0.59239   0.00000  Uiso   1.00
H261   H     0.35885   0.81421   0.75626   0.00000  Uiso   1.00
H262   H     0.29924   0.67584   0.66900   0.00000  Uiso   1.00
H263   H     0.44840   0.86916   0.89033   0.00000  Uiso   1.00
H264   H     0.31419   0.89274   0.71610   0.00000  Uiso   1.00
H265   H     0.25643   0.53017   0.56186   0.00000  Uiso   1.00
H266   H     0.57093   0.93782   0.02854   0.00000  Uiso   1.00
H267   H     0.28794   0.98755   0.66116   0.00000  Uiso   1.00
O268   O     0.29719   0.46575   0.46865   0.00000  Uiso   1.00
O269   O     0.70980   0.00056   0.08091   0.00000  Uiso   1.00
O270   O     0.33852   0.06582   0.59891   0.00000  Uiso   1.00
N271   N     0.38194   0.58820   0.52124   0.00000  Uiso   1.00
N272   N     0.67597   0.96930   0.95756   0.00000  Uiso   1.00
N273   N     0.41141   0.01582   0.61410   0.00000  Uiso   1.00
N274   N     0.29937   0.56073   0.55825   0.00000  Uiso   1.00
N275   N     0.59340   0.94184   0.99456   0.00000  Uiso   1.00
N276   N     0.32884   0.98835   0.65110   0.00000  Uiso   1.00
C277   C     0.65894   0.06444   0.68266   0.00000  Uiso   1.00
C278   C     0.72938   0.11753   0.69081   0.00000  Uiso   1.00
C279   C     0.79481   0.13209   0.73521   0.00000  Uiso   1.00
C280   C     0.85294   0.18241   0.73502   0.00000  Uiso   1.00
C281   C     0.96339   0.25957   0.75419   0.00000  Uiso   1.00
C282   C     0.61549   0.01070   0.60126   0.00000  Uiso   1.00
C283   C     0.58516   0.93544   0.57038   0.00000  Uiso   1.00
C284   C     0.54741   0.89583   0.49481   0.00000  Uiso   1.00
C285   C     0.48100   0.80712   0.37497   0.00000  Uiso   1.00
C286   C     0.62297   0.10859   0.70156   0.00000  Uiso   1.00
C287   C     0.59891   0.11563   0.75500   0.00000  Uiso   1.00
C288   C     0.56744   0.15843   0.76386   0.00000  Uiso   1.00
C289   C     0.51264   0.22172   0.79975   0.00000  Uiso   1.00
C290   C     0.64582   0.12792   0.60337   0.00000  Uiso   1.00
C291   C     0.72224   0.15201   0.64774   0.00000  Uiso   1.00
C292   C     0.78029   0.20232   0.64748   0.00000  Uiso   1.00
C293   C     0.84580   0.21695   0.69188   0.00000  Uiso   1.00
C294   C     0.60836   0.04517   0.55819   0.00000  Uiso   1.00
C295   C     0.57064   0.00567   0.48265   0.00000  Uiso   1.00
C296   C     0.54027   0.93037   0.45166   0.00000  Uiso   1.00
C297   C     0.61584   0.14308   0.65849   0.00000  Uiso   1.00
C298   C     0.58439   0.18587   0.66727   0.00000  Uiso   1.00
C299   C     0.56030   0.19297   0.72071   0.00000  Uiso   1.00
H300   H     0.66449   0.03759   0.71618   0.00000  Uiso   1.00
H301   H     0.80031   0.10539   0.76852   0.00000  Uiso   1.00
H302   H     0.59068   0.90877   0.60372   0.00000  Uiso   1.00
H303   H     0.60443   0.08894   0.78831   0.00000  Uiso   1.00
H304   H     0.94774   0.19574   0.80754   0.00000  Uiso   1.00
H305   H     0.50572   0.78115   0.46005   0.00000  Uiso   1.00
H306   H     0.53471   0.16107   0.84929   0.00000  Uiso   1.00
H307   H     0.64027   0.15476   0.56983   0.00000  Uiso   1.00
H308   H     0.77476   0.22899   0.61415   0.00000  Uiso   1.00
H309   H     0.56513   0.03237   0.44934   0.00000  Uiso   1.00
H310   H     0.57889   0.21254   0.63393   0.00000  Uiso   1.00
H311   H     0.92701   0.29606   0.68224   0.00000  Uiso   1.00
H312   H     0.48498   0.88147   0.33475   0.00000  Uiso   1.00
H313   H     0.51398   0.26139   0.72399   0.00000  Uiso   1.00
O314   O     0.02628   0.29259   0.77666   0.00000  Uiso   1.00
O315   O     0.44635   0.74867   0.32077   0.00000  Uiso   1.00
O316   O     0.48440   0.24712   0.83145   0.00000  Uiso   1.00
N317   N     0.92440   0.20917   0.77198   0.00000  Uiso   1.00
N318   N     0.51115   0.82156   0.44710   0.00000  Uiso   1.00
N319   N     0.53824   0.17674   0.81099   0.00000  Uiso   1.00
N320   N     0.91325   0.26315   0.70456   0.00000  Uiso   1.00
N321   N     0.49999   0.87554   0.37967   0.00000  Uiso   1.00
N322   N     0.52708   0.23072   0.74357   0.00000  Uiso   1.00
C323   C     0.71181   0.66535   0.95240   0.00000  Uiso   1.00
C324   C     0.74421   0.74803   0.99032   0.00000  Uiso   1.00
C325   C     0.80599   0.79771   0.99495   0.00000  Uiso   1.00
C326   C     0.82679   0.87104   0.03197   0.00000  Uiso   1.00
C327   C     0.88311   0.99596   0.08606   0.00000  Uiso   1.00
C328   C     0.63739   0.63493   0.89625   0.00000  Uiso   1.00
C329   C     0.60936   0.58952   0.82180   0.00000  Uiso   1.00
C330   C     0.54024   0.56763   0.77963   0.00000  Uiso   1.00
C331   C     0.43070   0.51692   0.68768   0.00000  Uiso   1.00
C332   C     0.70384   0.64178   0.01004   0.00000  Uiso   1.00
C333   C     0.73166   0.60211   0.03124   0.00000  Uiso   1.00
C334   C     0.71846   0.58597   0.08486   0.00000  Uiso   1.00
C335   C     0.71210   0.54589   0.16959   0.00000  Uiso   1.00
C336   C     0.63887   0.70723   0.00990   0.00000  Uiso   1.00
C337   C     0.70459   0.77078   0.02154   0.00000  Uiso   1.00
C338   C     0.72530   0.84405   0.05856   0.00000  Uiso   1.00
C339   C     0.78710   0.89383   0.06326   0.00000  Uiso   1.00
C340   C     0.59778   0.65768   0.92748   0.00000  Uiso   1.00
C341   C     0.52867   0.63585   0.88541   0.00000  Uiso   1.00
C342   C     0.50055   0.59041   0.81091   0.00000  Uiso   1.00
C343   C     0.66422   0.66453   0.04127   0.00000  Uiso   1.00
C344   C     0.65097   0.64844   0.09486   0.00000  Uiso   1.00
C345   C     0.67878   0.60875   0.11615   0.00000  Uiso   1.00
H346   H     0.74265   0.64764   0.92809   0.00000  Uiso   1.00
H347   H     0.83663   0.78009   0.97077   0.00000  Uiso   1.00
H348   H     0.64003   0.57192   0.79765   0.00000  Uiso   1.00
H349   H     0.76232   0.58451   0.00706   0.00000  Uiso   1.00
H350   H     0.92335   0.93696   0.03185   0.00000  Uiso   1.00
H351   H     0.50880   0.49800   0.66680   0.00000  Uiso   1.00
H352   H     0.76666   0.52456   0.10840   0.00000  Uiso   1.00
H353   H     0.60803   0.72494   0.03421   0.00000  Uiso   1.00
H354   H     0.69463   0.86163   0.08273   0.00000  Uiso   1.00
H355   H     0.49803   0.65346   0.90959   0.00000  Uiso   1.00
H356   H     0.62032   0.66605   0.11901   0.00000  Uiso   1.00
H357   H     0.80809   0.00315   0.12271   0.00000  Uiso   1.00
H358   H     0.39354   0.56418   0.75766   0.00000  Uiso   1.00
H359   H     0.65140   0.59074   0.19926   0.00000  Uiso   1.00
O360   O     0.92511   0.05858   0.10725   0.00000  Uiso   1.00
O361   O     0.38123   0.48267   0.62834   0.00000  Uiso   1.00
O362   O     0.71954   0.51752   0.20770   0.00000  Uiso   1.00
N363   N     0.88435   0.93378   0.04659   0.00000  Uiso   1.00
N364   N     0.49677   0.52339   0.70529   0.00000  Uiso   1.00
N365   N     0.73783   0.54820   0.11813   0.00000  Uiso   1.00
N366   N     0.82233   0.96939   0.09548   0.00000  Uiso   1.00
N367   N     0.43475   0.55900   0.75418   0.00000  Uiso   1.00
N368   N     0.67581   0.58381   0.16703   0.00000  Uiso   1.00
C369   C     0.01017   0.77357   0.59946   0.00000  Uiso   1.00
C370   C     0.04987   0.80485   0.68183   0.00000  Uiso   1.00
C371   C     0.05153   0.86166   0.73517   0.00000  Uiso   1.00
C372   C     0.09088   0.88227   0.80749   0.00000  Uiso   1.00
C373   C     0.14696   0.93614   0.93260   0.00000  Uiso   1.00
C374   C     0.96179   0.69227   0.56984   0.00000  Uiso   1.00
C375   C     0.88939   0.65443   0.52903   0.00000  Uiso   1.00
C376   C     0.85461   0.58027   0.50707   0.00000  Uiso   1.00
C377   C     0.77394   0.45935   0.45829   0.00000  Uiso   1.00
C378   C     0.06473   0.77942   0.56973   0.00000  Uiso   1.00
C379   C     0.07888   0.81484   0.52880   0.00000  Uiso   1.00
C380   C     0.13075   0.81404   0.50674   0.00000  Uiso   1.00
C381   C     0.20991   0.82844   0.45778   0.00000  Uiso   1.00
C382   C     0.07711   0.70914   0.63304   0.00000  Uiso   1.00
C383   C     0.08623   0.76985   0.70006   0.00000  Uiso   1.00
C384   C     0.12559   0.79038   0.77232   0.00000  Uiso   1.00
C385   C     0.12731   0.84721   0.82576   0.00000  Uiso   1.00
C386   C     0.99815   0.65728   0.58808   0.00000  Uiso   1.00
C387   C     0.96346   0.58315   0.56618   0.00000  Uiso   1.00
C388   C     0.89103   0.54521   0.52535   0.00000  Uiso   1.00
C389   C     0.10109   0.74443   0.58797   0.00000  Uiso   1.00
C390   C     0.15294   0.74356   0.56596   0.00000  Uiso   1.00
C391   C     0.16717   0.77898   0.52501   0.00000  Uiso   1.00
H392   H     0.98186   0.80081   0.58526   0.00000  Uiso   1.00
H393   H     0.02338   0.88872   0.72103   0.00000  Uiso   1.00
H394   H     0.86127   0.68153   0.51491   0.00000  Uiso   1.00
H395   H     0.05073   0.84192   0.51469   0.00000  Uiso   1.00
H396   H     0.08542   0.97075   0.87960   0.00000  Uiso   1.00
H397   H     0.74361   0.53385   0.44497   0.00000  Uiso   1.00
H398   H     0.14312   0.87207   0.44451   0.00000  Uiso   1.00
H399   H     0.10542   0.68189   0.64724   0.00000  Uiso   1.00
H400   H     0.15372   0.76329   0.78642   0.00000  Uiso   1.00
H401   H     0.99161   0.55609   0.58030   0.00000  Uiso   1.00
H402   H     0.18107   0.71648   0.58009   0.00000  Uiso   1.00
H403   H     0.19121   0.86893   0.93268   0.00000  Uiso   1.00
H404   H     0.84940   0.43204   0.49804   0.00000  Uiso   1.00
H405   H     0.24891   0.77026   0.49758   0.00000  Uiso   1.00
O406   O     0.16784   0.97551   0.99658   0.00000  Uiso   1.00
O407   O     0.71940   0.40233   0.42635   0.00000  Uiso   1.00
O408   O     0.24354   0.84606   0.42574   0.00000  Uiso   1.00
N409   N     0.10370   0.93562   0.87299   0.00000  Uiso   1.00
N410   N     0.78413   0.52716   0.46665   0.00000  Uiso   1.00
N411   N     0.15762   0.84334   0.46620   0.00000  Uiso   1.00
N412   N     0.16063   0.88084   0.90155   0.00000  Uiso   1.00
N413   N     0.84105   0.47237   0.49521   0.00000  Uiso   1.00
N414   N     0.21454   0.78856   0.49476   0.00000  Uiso   1.00
C415   C     0.12240   0.21296   0.41506   0.00000  Uiso   1.00
C416   C     0.20189   0.24865   0.45649   0.00000  Uiso   1.00
C417   C     0.25149   0.29653   0.44468   0.00000  Uiso   1.00
C418   C     0.32164   0.32322   0.48830   0.00000  Uiso   1.00
C419   C     0.44205   0.38173   0.54447   0.00000  Uiso   1.00
C420   C     0.09389   0.13097   0.38332   0.00000  Uiso   1.00
C421   C     0.05267   0.07992   0.30999   0.00000  Uiso   1.00
C422   C     0.03190   0.00755   0.29202   0.00000  Uiso   1.00
C423   C     0.98461   0.88336   0.23460   0.00000  Uiso   1.00
C424   C     0.09636   0.23337   0.47282   0.00000  Uiso   1.00
C425   C     0.05720   0.26839   0.47475   0.00000  Uiso   1.00
C426   C     0.03849   0.28221   0.53212   0.00000  Uiso   1.00
C427   C     0.99503   0.31700   0.61368   0.00000  Uiso   1.00
C428   C     0.15879   0.17520   0.51350   0.00000  Uiso   1.00
C429   C     0.22165   0.22814   0.50996   0.00000  Uiso   1.00
C430   C     0.29174   0.25476   0.55360   0.00000  Uiso   1.00
C431   C     0.34144   0.30268   0.54187   0.00000  Uiso   1.00
C432   C     0.11365   0.11047   0.43679   0.00000  Uiso   1.00
C433   C     0.09293   0.03815   0.41891   0.00000  Uiso   1.00
C434   C     0.05170   0.98700   0.34558   0.00000  Uiso   1.00
C435   C     0.11612   0.21286   0.52630   0.00000  Uiso   1.00
C436   C     0.09746   0.22662   0.58368   0.00000  Uiso   1.00
C437   C     0.05829   0.26166   0.58569   0.00000  Uiso   1.00
H438   H     0.10701   0.22892   0.37342   0.00000  Uiso   1.00
H439   H     0.23617   0.31238   0.40329   0.00000  Uiso   1.00
H440   H     0.03738   0.09581   0.26863   0.00000  Uiso   1.00
H441   H     0.04192   0.28425   0.43336   0.00000  Uiso   1.00
H442   H     0.38808   0.39586   0.45997   0.00000  Uiso   1.00
H443   H     0.96891   0.93919   0.17602   0.00000  Uiso   1.00
H444   H     0.97847   0.33656   0.52340   0.00000  Uiso   1.00
H445   H     0.17417   0.15923   0.55514   0.00000  Uiso   1.00
H446   H     0.30702   0.23888   0.59498   0.00000  Uiso   1.00
H447   H     0.10823   0.02230   0.46031   0.00000  Uiso   1.00
H448   H     0.11277   0.21074   0.62505   0.00000  Uiso   1.00
H449   H     0.44559   0.33620   0.61555   0.00000  Uiso   1.00
H450   H     0.02641   0.87953   0.33160   0.00000  Uiso   1.00
H451   H     0.03597   0.27690   0.67898   0.00000  Uiso   1.00
O452   O     0.50301   0.41966   0.56067   0.00000  Uiso   1.00
O453   O     0.95306   0.82053   0.18815   0.00000  Uiso   1.00
O454   O     0.96561   0.34187   0.64390   0.00000  Uiso   1.00
N455   N     0.38339   0.37090   0.49113   0.00000  Uiso   1.00
N456   N     0.99149   0.94394   0.22565   0.00000  Uiso   1.00
N457   N     0.00041   0.31543   0.55041   0.00000  Uiso   1.00
N458   N     0.41433   0.33880   0.57484   0.00000  Uiso   1.00
N459   N     0.02243   0.91184   0.30937   0.00000  Uiso   1.00
N460   N     0.03135   0.28333   0.63412   0.00000  Uiso   1.00
C461   C     0.16700   0.54169   0.07782   0.00000  Uiso   1.00
C462   C     0.21243   0.57382   0.15919   0.00000  Uiso   1.00
C463   C     0.26591   0.56140   0.18901   0.00000  Uiso   1.00
C464   C     0.30127   0.59582   0.26474   0.00000  Uiso   1.00
C465   C     0.37445   0.63879   0.38435   0.00000  Uiso   1.00
C466   C     0.09112   0.50182   0.06581   0.00000  Uiso   1.00
C467   C     0.04261   0.42887   0.01710   0.00000  Uiso   1.00
C468   C     0.97586   0.40270   0.01423   0.00000  Uiso   1.00
C469   C     0.86069   0.33391   0.98882   0.00000  Uiso   1.00
C470   C     0.17532   0.60646   0.06430   0.00000  Uiso   1.00
C471   C     0.19759   0.62149   0.01432   0.00000  Uiso   1.00
C472   C     0.20171   0.68341   0.01017   0.00000  Uiso   1.00
C473   C     0.21727   0.77709   0.98242   0.00000  Uiso   1.00
C474   C     0.13470   0.62491   0.15929   0.00000  Uiso   1.00
C475   C     0.19488   0.61901   0.20344   0.00000  Uiso   1.00
C476   C     0.23017   0.65347   0.27915   0.00000  Uiso   1.00
C477   C     0.28370   0.64110   0.30907   0.00000  Uiso   1.00
C478   C     0.07358   0.54702   0.11005   0.00000  Uiso   1.00
C479   C     0.00688   0.52094   0.10724   0.00000  Uiso   1.00
C480   C     0.95828   0.44798   0.05856   0.00000  Uiso   1.00
C481   C     0.15778   0.65166   0.10855   0.00000  Uiso   1.00
C482   C     0.16186   0.71356   0.10447   0.00000  Uiso   1.00
C483   C     0.18413   0.72869   0.05450   0.00000  Uiso   1.00
H484   H     0.18066   0.50650   0.04337   0.00000  Uiso   1.00
H485   H     0.27947   0.52641   0.15474   0.00000  Uiso   1.00
H486   H     0.05620   0.39391   0.98286   0.00000  Uiso   1.00
H487   H     0.21116   0.58650   0.98009   0.00000  Uiso   1.00
H488   H     0.38126   0.56840   0.29774   0.00000  Uiso   1.00
H489   H     0.91049   0.28902   0.93530   0.00000  Uiso   1.00
H490   H     0.23724   0.69513   0.92945   0.00000  Uiso   1.00
H491   H     0.12104   0.66010   0.19374   0.00000  Uiso   1.00
H492   H     0.21659   0.68844   0.31338   0.00000  Uiso   1.00
H493   H     0.99332   0.55594   0.14149   0.00000  Uiso   1.00
H494   H     0.14828   0.74853   0.13872   0.00000  Uiso   1.00
H495   H     0.33022   0.69990   0.42649   0.00000  Uiso   1.00
H496   H     0.85945   0.42053   0.06405   0.00000  Uiso   1.00
H497   H     0.18621   0.82664   0.05820   0.00000  Uiso   1.00
O498   O     0.41965   0.65000   0.43810   0.00000  Uiso   1.00
O499   O     0.80202   0.28348   0.96258   0.00000  Uiso   1.00
O500   O     0.23072   0.81629   0.95491   0.00000  Uiso   1.00
N501   N     0.35615   0.59547   0.31162   0.00000  Uiso   1.00
N502   N     0.91601   0.33427   0.97277   0.00000  Uiso   1.00
N503   N     0.22148   0.71394   0.96729   0.00000  Uiso   1.00
N504   N     0.32869   0.66623   0.38090   0.00000  Uiso   1.00
N505   N     0.88855   0.40503   0.04205   0.00000  Uiso   1.00
N506   N     0.19401   0.78470   0.03657   0.00000  Uiso   1.00
C507   C     0.40206   0.16373   0.10145   0.00000  Uiso   1.00
C508   C     0.42141   0.24364   0.13612   0.00000  Uiso   1.00
C509   C     0.39073   0.27289   0.17557   0.00000  Uiso   1.00
C510   C     0.41581   0.34728   0.20283   0.00000  Uiso   1.00
C511   C     0.43763   0.46473   0.25844   0.00000  Uiso   1.00
C512   C     0.38278   0.13967   0.02052   0.00000  Uiso   1.00
C513   C     0.31964   0.08150   0.96277   0.00000  Uiso   1.00
C514   C     0.31221   0.06836   0.89271   0.00000  Uiso   1.00
C515   C     0.27410   0.02438   0.76884   0.00000  Uiso   1.00
C516   C     0.46989   0.16276   0.13278   0.00000  Uiso   1.00
C517   C     0.47998   0.12398   0.16941   0.00000  Uiso   1.00
C518   C     0.54588   0.13026   0.19386   0.00000  Uiso   1.00
C519   C     0.64301   0.12212   0.24430   0.00000  Uiso   1.00
C520   C     0.50114   0.24382   0.07970   0.00000  Uiso   1.00
C521   C     0.47522   0.28714   0.12431   0.00000  Uiso   1.00
C522   C     0.50036   0.36150   0.15151   0.00000  Uiso   1.00
C523   C     0.46972   0.39086   0.19100   0.00000  Uiso   1.00
C524   C     0.43660   0.18317   0.00870   0.00000  Uiso   1.00
C525   C     0.42926   0.17011   0.93871   0.00000  Uiso   1.00
C526   C     0.36612   0.11194   0.88087   0.00000  Uiso   1.00
C527   C     0.52371   0.20626   0.12097   0.00000  Uiso   1.00
C528   C     0.58960   0.21260   0.14536   0.00000  Uiso   1.00
C529   C     0.59980   0.17384   0.18202   0.00000  Uiso   1.00
H530   H     0.36016   0.12986   0.11064   0.00000  Uiso   1.00
H531   H     0.34908   0.23921   0.18470   0.00000  Uiso   1.00
H532   H     0.27800   0.04784   0.97193   0.00000  Uiso   1.00
H533   H     0.43832   0.09032   0.17854   0.00000  Uiso   1.00
H534   H     0.36051   0.37962   0.26157   0.00000  Uiso   1.00
H535   H     0.21065   0.97611   0.81294   0.00000  Uiso   1.00
H536   H     0.54871   0.06567   0.24863   0.00000  Uiso   1.00
H537   H     0.54304   0.27769   0.07050   0.00000  Uiso   1.00
H538   H     0.54200   0.39515   0.14236   0.00000  Uiso   1.00
H539   H     0.47092   0.20379   0.92959   0.00000  Uiso   1.00
H540   H     0.63124   0.24627   0.13620   0.00000  Uiso   1.00
H541   H     0.51709   0.50619   0.22721   0.00000  Uiso   1.00
H542   H     0.36723   0.10267   0.77857   0.00000  Uiso   1.00
H543   H     0.70529   0.19225   0.21426   0.00000  Uiso   1.00
O544   O     0.43480   0.51750   0.29237   0.00000  Uiso   1.00
O545   O     0.23820   0.98810   0.70378   0.00000  Uiso   1.00
O546   O     0.68172   0.10562   0.27539   0.00000  Uiso   1.00
N547   N     0.39752   0.39329   0.24364   0.00000  Uiso   1.00
N548   N     0.25740   0.01604   0.82419   0.00000  Uiso   1.00
N549   N     0.57345   0.09976   0.23150   0.00000  Uiso   1.00
N550   N     0.48177   0.46140   0.22515   0.00000  Uiso   1.00
N551   N     0.34166   0.08414   0.80570   0.00000  Uiso   1.00
N552   N     0.65771   0.16787   0.21301   0.00000  Uiso   1.00
