data_job_01922
_audit_creation_date              2018-12-19
_audit_creation_method            'Materials Studio'
_symmetry_space_group_name_H-M    'P1'
_symmetry_Int_Tables_number       1
_symmetry_cell_setting            triclinic
loop_
_symmetry_equiv_pos_as_xyz
  x,y,z
_cell_length_a                    9.6065
_cell_length_b                    30.7870
_cell_length_c                    14.8831
_cell_angle_alpha                 90.0000
_cell_angle_beta                  139.6981
_cell_angle_gamma                 90.0000
loop_
_atom_site_label
_atom_site_type_symbol
_atom_site_fract_x
_atom_site_fract_y
_atom_site_fract_z
_atom_site_U_iso_or_equiv
_atom_site_adp_type
_atom_site_occupancy
C1     C     0.33956   0.37612   0.29968   0.00000  Uiso   1.00
C2     C     0.18379   0.33994   0.19720   0.00000  Uiso   1.00
C3     C     0.99472   0.32960   0.14891   0.00000  Uiso   1.00
C4     C     0.87449   0.29536   0.05555   0.00000  Uiso   1.00
C5     C     0.62253   0.24266   0.90308   0.00000  Uiso   1.00
C6     C     0.55816   0.35444   0.41979   0.00000  Uiso   1.00
C7     C     0.68386   0.35629   0.55865   0.00000  Uiso   1.00
C8     C     0.87879   0.33426   0.65267   0.00000  Uiso   1.00
C9     C     0.20812   0.30410   0.84579   0.00000  Uiso   1.00
C10    C     0.36084   0.40494   0.22730   0.00000  Uiso   1.00
C11    C     0.32068   0.44925   0.20434   0.00000  Uiso   1.00
C12    C     0.34953   0.46975   0.13631   0.00000  Uiso   1.00
C13    C     0.37248   0.51800   0.03055   0.00000  Uiso   1.00
C14    C     0.46226   0.33372   0.21975   0.00000  Uiso   1.00
C15    C     0.25045   0.31691   0.15379   0.00000  Uiso   1.00
C16    C     0.13047   0.28268   0.06047   0.00000  Uiso   1.00
C17    C     0.94124   0.27229   0.01205   0.00000  Uiso   1.00
C18    C     0.62481   0.33141   0.37638   0.00000  Uiso   1.00
C19    C     0.81961   0.30937   0.47022   0.00000  Uiso   1.00
C20    C     0.94556   0.31119   0.60918   0.00000  Uiso   1.00
C21    C     0.42748   0.38191   0.18387   0.00000  Uiso   1.00
C22    C     0.45642   0.40234   0.11589   0.00000  Uiso   1.00
C23    C     0.41630   0.44668   0.09282   0.00000  Uiso   1.00
H24    H     0.28769   0.39405   0.33349   0.00000  Uiso   1.00
H25    H     0.94321   0.34742   0.18254   0.00000  Uiso   1.00
H26    H     0.63225   0.37412   0.59222   0.00000  Uiso   1.00
H27    H     0.26911   0.46707   0.23795   0.00000  Uiso   1.00
H28    H     0.59071   0.28556   0.99608   0.00000  Uiso   1.00
H29    H     0.04363   0.34185   0.85991   0.00000  Uiso   1.00
H30    H     0.27789   0.53786   0.11287   0.00000  Uiso   1.00
H31    H     0.51416   0.31579   0.18595   0.00000  Uiso   1.00
H32    H     0.18208   0.26487   0.02689   0.00000  Uiso   1.00
H33    H     0.87113   0.29156   0.43658   0.00000  Uiso   1.00
H34    H     0.50799   0.38451   0.08231   0.00000  Uiso   1.00
H35    H     0.78460   0.21855   0.86975   0.00000  Uiso   1.00
H36    H     0.23753   0.27484   0.73360   0.00000  Uiso   1.00
H37    H     0.47178   0.47085   0.98654   0.00000  Uiso   1.00
O38    O     0.46516   0.21996   0.83098   0.00000  Uiso   1.00
O39    O     0.37135   0.29382   0.96430   0.00000  Uiso   1.00
O40    O     0.36670   0.55097   0.98419   0.00000  Uiso   1.00
N41    N     0.68189   0.27678   0.98815   0.00000  Uiso   1.00
N42    N     0.04027   0.32941   0.79579   0.00000  Uiso   1.00
N43    N     0.32442   0.51266   0.09739   0.00000  Uiso   1.00
N44    N     0.78622   0.24073   0.92018   0.00000  Uiso   1.00
N45    N     0.14460   0.29335   0.72781   0.00000  Uiso   1.00
N46    N     0.42875   0.47660   0.02942   0.00000  Uiso   1.00
C47    C     0.83956   0.87612   0.29968   0.00000  Uiso   1.00
C48    C     0.68379   0.83994   0.19720   0.00000  Uiso   1.00
C49    C     0.49472   0.82960   0.14891   0.00000  Uiso   1.00
C50    C     0.37449   0.79536   0.05555   0.00000  Uiso   1.00
C51    C     0.12253   0.74266   0.90308   0.00000  Uiso   1.00
C52    C     0.05816   0.85444   0.41979   0.00000  Uiso   1.00
C53    C     0.18386   0.85629   0.55865   0.00000  Uiso   1.00
C54    C     0.37879   0.83426   0.65267   0.00000  Uiso   1.00
C55    C     0.70812   0.80410   0.84579   0.00000  Uiso   1.00
C56    C     0.86084   0.90494   0.22730   0.00000  Uiso   1.00
C57    C     0.82068   0.94925   0.20434   0.00000  Uiso   1.00
C58    C     0.84953   0.96975   0.13631   0.00000  Uiso   1.00
C59    C     0.87248   0.01800   0.03055   0.00000  Uiso   1.00
C60    C     0.96226   0.83372   0.21975   0.00000  Uiso   1.00
C61    C     0.75045   0.81691   0.15379   0.00000  Uiso   1.00
C62    C     0.63047   0.78268   0.06047   0.00000  Uiso   1.00
C63    C     0.44124   0.77229   0.01205   0.00000  Uiso   1.00
C64    C     0.12481   0.83141   0.37638   0.00000  Uiso   1.00
C65    C     0.31961   0.80937   0.47022   0.00000  Uiso   1.00
C66    C     0.44556   0.81119   0.60918   0.00000  Uiso   1.00
C67    C     0.92748   0.88191   0.18387   0.00000  Uiso   1.00
C68    C     0.95642   0.90234   0.11589   0.00000  Uiso   1.00
C69    C     0.91630   0.94668   0.09282   0.00000  Uiso   1.00
H70    H     0.78769   0.89405   0.33349   0.00000  Uiso   1.00
H71    H     0.44321   0.84742   0.18254   0.00000  Uiso   1.00
H72    H     0.13225   0.87412   0.59222   0.00000  Uiso   1.00
H73    H     0.76911   0.96707   0.23795   0.00000  Uiso   1.00
H74    H     0.09071   0.78556   0.99608   0.00000  Uiso   1.00
H75    H     0.54363   0.84185   0.85991   0.00000  Uiso   1.00
H76    H     0.77789   0.03786   0.11287   0.00000  Uiso   1.00
H77    H     0.01416   0.81579   0.18595   0.00000  Uiso   1.00
H78    H     0.68208   0.76487   0.02689   0.00000  Uiso   1.00
H79    H     0.37113   0.79156   0.43658   0.00000  Uiso   1.00
H80    H     0.00799   0.88451   0.08231   0.00000  Uiso   1.00
H81    H     0.28460   0.71855   0.86975   0.00000  Uiso   1.00
H82    H     0.73753   0.77484   0.73360   0.00000  Uiso   1.00
H83    H     0.97178   0.97085   0.98654   0.00000  Uiso   1.00
O84    O     0.96516   0.71996   0.83098   0.00000  Uiso   1.00
O85    O     0.87135   0.79382   0.96430   0.00000  Uiso   1.00
O86    O     0.86670   0.05097   0.98419   0.00000  Uiso   1.00
N87    N     0.18189   0.77678   0.98815   0.00000  Uiso   1.00
N88    N     0.54027   0.82941   0.79579   0.00000  Uiso   1.00
N89    N     0.82442   0.01266   0.09739   0.00000  Uiso   1.00
N90    N     0.28622   0.74073   0.92018   0.00000  Uiso   1.00
N91    N     0.64460   0.79335   0.72781   0.00000  Uiso   1.00
N92    N     0.92875   0.97660   0.02942   0.00000  Uiso   1.00
C93    C     0.33956   0.62388   0.79968   0.00000  Uiso   1.00
C94    C     0.18379   0.66006   0.69720   0.00000  Uiso   1.00
C95    C     0.99472   0.67040   0.64891   0.00000  Uiso   1.00
C96    C     0.87449   0.70464   0.55555   0.00000  Uiso   1.00
C97    C     0.62253   0.75734   0.40308   0.00000  Uiso   1.00
C98    C     0.55816   0.64556   0.91979   0.00000  Uiso   1.00
C99    C     0.68386   0.64371   0.05865   0.00000  Uiso   1.00
C100   C     0.87879   0.66574   0.15267   0.00000  Uiso   1.00
C101   C     0.20812   0.69590   0.34579   0.00000  Uiso   1.00
C102   C     0.36084   0.59506   0.72730   0.00000  Uiso   1.00
C103   C     0.32068   0.55075   0.70434   0.00000  Uiso   1.00
C104   C     0.34953   0.53025   0.63631   0.00000  Uiso   1.00
C105   C     0.37248   0.48200   0.53055   0.00000  Uiso   1.00
C106   C     0.46226   0.66628   0.71975   0.00000  Uiso   1.00
C107   C     0.25045   0.68309   0.65379   0.00000  Uiso   1.00
C108   C     0.13047   0.71732   0.56047   0.00000  Uiso   1.00
C109   C     0.94124   0.72771   0.51205   0.00000  Uiso   1.00
C110   C     0.62481   0.66859   0.87638   0.00000  Uiso   1.00
C111   C     0.81961   0.69063   0.97022   0.00000  Uiso   1.00
C112   C     0.94556   0.68881   0.10918   0.00000  Uiso   1.00
C113   C     0.42748   0.61809   0.68387   0.00000  Uiso   1.00
C114   C     0.45642   0.59766   0.61589   0.00000  Uiso   1.00
C115   C     0.41630   0.55332   0.59282   0.00000  Uiso   1.00
H116   H     0.28769   0.60595   0.83349   0.00000  Uiso   1.00
H117   H     0.94321   0.65258   0.68254   0.00000  Uiso   1.00
H118   H     0.63225   0.62588   0.09222   0.00000  Uiso   1.00
H119   H     0.26911   0.53293   0.73795   0.00000  Uiso   1.00
H120   H     0.59071   0.71444   0.49608   0.00000  Uiso   1.00
H121   H     0.04363   0.65815   0.35991   0.00000  Uiso   1.00
H122   H     0.27789   0.46214   0.61287   0.00000  Uiso   1.00
H123   H     0.51416   0.68421   0.68595   0.00000  Uiso   1.00
H124   H     0.18208   0.73513   0.52689   0.00000  Uiso   1.00
H125   H     0.87113   0.70844   0.93658   0.00000  Uiso   1.00
H126   H     0.50799   0.61549   0.58231   0.00000  Uiso   1.00
H127   H     0.78460   0.78145   0.36975   0.00000  Uiso   1.00
H128   H     0.23753   0.72516   0.23360   0.00000  Uiso   1.00
H129   H     0.47178   0.52915   0.48654   0.00000  Uiso   1.00
O130   O     0.46516   0.78004   0.33098   0.00000  Uiso   1.00
O131   O     0.37135   0.70618   0.46430   0.00000  Uiso   1.00
O132   O     0.36670   0.44903   0.48419   0.00000  Uiso   1.00
N133   N     0.68189   0.72322   0.48815   0.00000  Uiso   1.00
N134   N     0.04027   0.67059   0.29579   0.00000  Uiso   1.00
N135   N     0.32442   0.48734   0.59739   0.00000  Uiso   1.00
N136   N     0.78622   0.75927   0.42018   0.00000  Uiso   1.00
N137   N     0.14460   0.70665   0.22781   0.00000  Uiso   1.00
N138   N     0.42875   0.52340   0.52942   0.00000  Uiso   1.00
C139   C     0.83956   0.12388   0.79968   0.00000  Uiso   1.00
C140   C     0.68379   0.16006   0.69720   0.00000  Uiso   1.00
C141   C     0.49472   0.17040   0.64891   0.00000  Uiso   1.00
C142   C     0.37449   0.20464   0.55555   0.00000  Uiso   1.00
C143   C     0.12253   0.25734   0.40308   0.00000  Uiso   1.00
C144   C     0.05816   0.14556   0.91979   0.00000  Uiso   1.00
C145   C     0.18386   0.14371   0.05865   0.00000  Uiso   1.00
C146   C     0.37879   0.16574   0.15267   0.00000  Uiso   1.00
C147   C     0.70812   0.19590   0.34579   0.00000  Uiso   1.00
C148   C     0.86084   0.09506   0.72730   0.00000  Uiso   1.00
C149   C     0.82068   0.05075   0.70434   0.00000  Uiso   1.00
C150   C     0.84953   0.03025   0.63631   0.00000  Uiso   1.00
C151   C     0.87248   0.98200   0.53055   0.00000  Uiso   1.00
C152   C     0.96226   0.16628   0.71975   0.00000  Uiso   1.00
C153   C     0.75045   0.18309   0.65379   0.00000  Uiso   1.00
C154   C     0.63047   0.21732   0.56047   0.00000  Uiso   1.00
C155   C     0.44124   0.22771   0.51205   0.00000  Uiso   1.00
C156   C     0.12481   0.16859   0.87638   0.00000  Uiso   1.00
C157   C     0.31961   0.19063   0.97022   0.00000  Uiso   1.00
C158   C     0.44556   0.18881   0.10918   0.00000  Uiso   1.00
C159   C     0.92748   0.11809   0.68387   0.00000  Uiso   1.00
C160   C     0.95642   0.09766   0.61589   0.00000  Uiso   1.00
C161   C     0.91630   0.05332   0.59282   0.00000  Uiso   1.00
H162   H     0.78769   0.10595   0.83349   0.00000  Uiso   1.00
H163   H     0.44321   0.15258   0.68254   0.00000  Uiso   1.00
H164   H     0.13225   0.12588   0.09222   0.00000  Uiso   1.00
H165   H     0.76911   0.03293   0.73795   0.00000  Uiso   1.00
H166   H     0.09071   0.21444   0.49608   0.00000  Uiso   1.00
H167   H     0.54363   0.15815   0.35991   0.00000  Uiso   1.00
H168   H     0.77789   0.96214   0.61287   0.00000  Uiso   1.00
H169   H     0.01416   0.18421   0.68595   0.00000  Uiso   1.00
H170   H     0.68208   0.23513   0.52689   0.00000  Uiso   1.00
H171   H     0.37113   0.20844   0.93658   0.00000  Uiso   1.00
H172   H     0.00799   0.11549   0.58231   0.00000  Uiso   1.00
H173   H     0.28460   0.28145   0.36975   0.00000  Uiso   1.00
H174   H     0.73753   0.22516   0.23360   0.00000  Uiso   1.00
H175   H     0.97178   0.02915   0.48654   0.00000  Uiso   1.00
O176   O     0.96516   0.28004   0.33098   0.00000  Uiso   1.00
O177   O     0.87135   0.20618   0.46430   0.00000  Uiso   1.00
O178   O     0.86670   0.94903   0.48419   0.00000  Uiso   1.00
N179   N     0.18189   0.22322   0.48815   0.00000  Uiso   1.00
N180   N     0.54027   0.17059   0.29579   0.00000  Uiso   1.00
N181   N     0.82442   0.98734   0.59739   0.00000  Uiso   1.00
N182   N     0.28622   0.25927   0.42018   0.00000  Uiso   1.00
N183   N     0.64460   0.20665   0.22781   0.00000  Uiso   1.00
N184   N     0.92875   0.02340   0.52942   0.00000  Uiso   1.00
