data_job_03066
_audit_creation_date              2018-12-19
_audit_creation_method            'Materials Studio'
_symmetry_space_group_name_H-M    'P1'
_symmetry_Int_Tables_number       1
_symmetry_cell_setting            triclinic
loop_
_symmetry_equiv_pos_as_xyz
  x,y,z
_cell_length_a                    21.3059
_cell_length_b                    12.3548
_cell_length_c                    20.2067
_cell_angle_alpha                 90.0000
_cell_angle_beta                  77.3188
_cell_angle_gamma                 90.0000
loop_
_atom_site_label
_atom_site_type_symbol
_atom_site_fract_x
_atom_site_fract_y
_atom_site_fract_z
_atom_site_U_iso_or_equiv
_atom_site_adp_type
_atom_site_occupancy
C1     C     0.07922   0.15746   0.17010   0.00000  Uiso   1.00
C2     C     0.06698   0.17335   0.09916   0.00000  Uiso   1.00
C3     C     0.00853   0.15869   0.08074   0.00000  Uiso   1.00
C4     C     0.00726   0.17730   0.01329   0.00000  Uiso   1.00
C5     C     0.97986   0.19704   0.91032   0.00000  Uiso   1.00
C6     C     0.13371   0.07524   0.16262   0.00000  Uiso   1.00
C7     C     0.13135   0.97810   0.19757   0.00000  Uiso   1.00
C8     C     0.18626   0.91412   0.18355   0.00000  Uiso   1.00
C9     C     0.26247   0.78157   0.17915   0.00000  Uiso   1.00
C10    C     0.10666   0.26430   0.18886   0.00000  Uiso   1.00
C11    C     0.08158   0.32611   0.24589   0.00000  Uiso   1.00
C12    C     0.11373   0.42131   0.25396   0.00000  Uiso   1.00
C13    C     0.14794   0.58230   0.29030   0.00000  Uiso   1.00
C14    C     0.18091   0.21658   0.08306   0.00000  Uiso   1.00
C15    C     0.12222   0.20546   0.05188   0.00000  Uiso   1.00
C16    C     0.12103   0.22410   0.98444   0.00000  Uiso   1.00
C17    C     0.06259   0.20948   0.96592   0.00000  Uiso   1.00
C18    C     0.18894   0.10735   0.11535   0.00000  Uiso   1.00
C19    C     0.24386   0.04351   0.10127   0.00000  Uiso   1.00
C20    C     0.24159   0.94629   0.13619   0.00000  Uiso   1.00
C21    C     0.16190   0.29642   0.14159   0.00000  Uiso   1.00
C22    C     0.19409   0.39153   0.14958   0.00000  Uiso   1.00
C23    C     0.16906   0.45347   0.20660   0.00000  Uiso   1.00
H24    H     0.03622   0.13246   0.20690   0.00000  Uiso   1.00
H25    H     0.96580   0.13383   0.11734   0.00000  Uiso   1.00
H26    H     0.08861   0.95327   0.23416   0.00000  Uiso   1.00
H27    H     0.03884   0.30124   0.28246   0.00000  Uiso   1.00
H28    H     0.91208   0.14948   0.99718   0.00000  Uiso   1.00
H29    H     0.17104   0.76878   0.24352   0.00000  Uiso   1.00
H30    H     0.06610   0.50253   0.34538   0.00000  Uiso   1.00
H31    H     0.22391   0.24158   0.04625   0.00000  Uiso   1.00
H32    H     0.16378   0.24895   0.94787   0.00000  Uiso   1.00
H33    H     0.28659   0.06838   0.06469   0.00000  Uiso   1.00
H34    H     0.23683   0.41635   0.11299   0.00000  Uiso   1.00
H35    H     0.07277   0.24291   0.85963   0.00000  Uiso   1.00
H36    H     0.33173   0.86220   0.10598   0.00000  Uiso   1.00
H37    H     0.22679   0.59596   0.20782   0.00000  Uiso   1.00
O38    O     0.94949   0.19904   0.86658   0.00000  Uiso   1.00
O39    O     0.28924   0.69958   0.18978   0.00000  Uiso   1.00
O40    O     0.15155   0.66224   0.32340   0.00000  Uiso   1.00
N41    N     0.95815   0.17048   0.97832   0.00000  Uiso   1.00
N42    N     0.20026   0.81453   0.20862   0.00000  Uiso   1.00
N43    N     0.10215   0.50052   0.30385   0.00000  Uiso   1.00
N44    N     0.04461   0.22075   0.90430   0.00000  Uiso   1.00
N45    N     0.28672   0.86481   0.13461   0.00000  Uiso   1.00
N46    N     0.18862   0.55079   0.22984   0.00000  Uiso   1.00
C47    C     0.57922   0.65746   0.17010   0.00000  Uiso   1.00
C48    C     0.56698   0.67335   0.09916   0.00000  Uiso   1.00
C49    C     0.50853   0.65869   0.08074   0.00000  Uiso   1.00
C50    C     0.50726   0.67730   0.01329   0.00000  Uiso   1.00
C51    C     0.47986   0.69704   0.91032   0.00000  Uiso   1.00
C52    C     0.63371   0.57524   0.16262   0.00000  Uiso   1.00
C53    C     0.63135   0.47810   0.19757   0.00000  Uiso   1.00
C54    C     0.68626   0.41412   0.18355   0.00000  Uiso   1.00
C55    C     0.76247   0.28157   0.17915   0.00000  Uiso   1.00
C56    C     0.60666   0.76430   0.18886   0.00000  Uiso   1.00
C57    C     0.58158   0.82611   0.24589   0.00000  Uiso   1.00
C58    C     0.61373   0.92131   0.25396   0.00000  Uiso   1.00
C59    C     0.64794   0.08230   0.29030   0.00000  Uiso   1.00
C60    C     0.68091   0.71658   0.08306   0.00000  Uiso   1.00
C61    C     0.62222   0.70546   0.05188   0.00000  Uiso   1.00
C62    C     0.62103   0.72410   0.98444   0.00000  Uiso   1.00
C63    C     0.56259   0.70948   0.96592   0.00000  Uiso   1.00
C64    C     0.68894   0.60735   0.11535   0.00000  Uiso   1.00
C65    C     0.74386   0.54351   0.10127   0.00000  Uiso   1.00
C66    C     0.74159   0.44629   0.13619   0.00000  Uiso   1.00
C67    C     0.66190   0.79642   0.14159   0.00000  Uiso   1.00
C68    C     0.69409   0.89153   0.14958   0.00000  Uiso   1.00
C69    C     0.66906   0.95347   0.20660   0.00000  Uiso   1.00
H70    H     0.53622   0.63246   0.20690   0.00000  Uiso   1.00
H71    H     0.46580   0.63383   0.11734   0.00000  Uiso   1.00
H72    H     0.58861   0.45327   0.23416   0.00000  Uiso   1.00
H73    H     0.53884   0.80124   0.28246   0.00000  Uiso   1.00
H74    H     0.41208   0.64948   0.99718   0.00000  Uiso   1.00
H75    H     0.67104   0.26878   0.24352   0.00000  Uiso   1.00
H76    H     0.56610   0.00253   0.34538   0.00000  Uiso   1.00
H77    H     0.72391   0.74158   0.04625   0.00000  Uiso   1.00
H78    H     0.66378   0.74895   0.94787   0.00000  Uiso   1.00
H79    H     0.78659   0.56838   0.06469   0.00000  Uiso   1.00
H80    H     0.73683   0.91635   0.11299   0.00000  Uiso   1.00
H81    H     0.57277   0.74291   0.85963   0.00000  Uiso   1.00
H82    H     0.83173   0.36220   0.10598   0.00000  Uiso   1.00
H83    H     0.72679   0.09596   0.20782   0.00000  Uiso   1.00
O84    O     0.44949   0.69904   0.86658   0.00000  Uiso   1.00
O85    O     0.78924   0.19958   0.18978   0.00000  Uiso   1.00
O86    O     0.65155   0.16224   0.32340   0.00000  Uiso   1.00
N87    N     0.45815   0.67048   0.97832   0.00000  Uiso   1.00
N88    N     0.70026   0.31453   0.20862   0.00000  Uiso   1.00
N89    N     0.60215   0.00052   0.30385   0.00000  Uiso   1.00
N90    N     0.54461   0.72075   0.90430   0.00000  Uiso   1.00
N91    N     0.78672   0.36481   0.13461   0.00000  Uiso   1.00
N92    N     0.68862   0.05079   0.22984   0.00000  Uiso   1.00
C93    C     0.92078   0.15746   0.32990   0.00000  Uiso   1.00
C94    C     0.93302   0.17335   0.40084   0.00000  Uiso   1.00
C95    C     0.99147   0.15869   0.41926   0.00000  Uiso   1.00
C96    C     0.99274   0.17730   0.48671   0.00000  Uiso   1.00
C97    C     0.02014   0.19704   0.58968   0.00000  Uiso   1.00
C98    C     0.86629   0.07524   0.33738   0.00000  Uiso   1.00
C99    C     0.86865   0.97810   0.30243   0.00000  Uiso   1.00
C100   C     0.81374   0.91412   0.31645   0.00000  Uiso   1.00
C101   C     0.73753   0.78157   0.32085   0.00000  Uiso   1.00
C102   C     0.89334   0.26430   0.31114   0.00000  Uiso   1.00
C103   C     0.91842   0.32611   0.25411   0.00000  Uiso   1.00
C104   C     0.88627   0.42131   0.24604   0.00000  Uiso   1.00
C105   C     0.85206   0.58230   0.20970   0.00000  Uiso   1.00
C106   C     0.81909   0.21658   0.41694   0.00000  Uiso   1.00
C107   C     0.87778   0.20546   0.44812   0.00000  Uiso   1.00
C108   C     0.87897   0.22410   0.51556   0.00000  Uiso   1.00
C109   C     0.93741   0.20948   0.53408   0.00000  Uiso   1.00
C110   C     0.81106   0.10735   0.38465   0.00000  Uiso   1.00
C111   C     0.75614   0.04351   0.39873   0.00000  Uiso   1.00
C112   C     0.75841   0.94629   0.36381   0.00000  Uiso   1.00
C113   C     0.83810   0.29642   0.35841   0.00000  Uiso   1.00
C114   C     0.80591   0.39153   0.35042   0.00000  Uiso   1.00
C115   C     0.83094   0.45347   0.29340   0.00000  Uiso   1.00
H116   H     0.96378   0.13246   0.29310   0.00000  Uiso   1.00
H117   H     0.03420   0.13383   0.38266   0.00000  Uiso   1.00
H118   H     0.91139   0.95327   0.26584   0.00000  Uiso   1.00
H119   H     0.96116   0.30124   0.21754   0.00000  Uiso   1.00
H120   H     0.08792   0.14948   0.50282   0.00000  Uiso   1.00
H121   H     0.82896   0.76878   0.25648   0.00000  Uiso   1.00
H122   H     0.93390   0.50253   0.15462   0.00000  Uiso   1.00
H123   H     0.77609   0.24158   0.45375   0.00000  Uiso   1.00
H124   H     0.83622   0.24895   0.55213   0.00000  Uiso   1.00
H125   H     0.71341   0.06838   0.43531   0.00000  Uiso   1.00
H126   H     0.76317   0.41635   0.38701   0.00000  Uiso   1.00
H127   H     0.92723   0.24291   0.64037   0.00000  Uiso   1.00
H128   H     0.66827   0.86220   0.39402   0.00000  Uiso   1.00
H129   H     0.77321   0.59596   0.29218   0.00000  Uiso   1.00
O130   O     0.05051   0.19904   0.63342   0.00000  Uiso   1.00
O131   O     0.71076   0.69958   0.31022   0.00000  Uiso   1.00
O132   O     0.84845   0.66224   0.17660   0.00000  Uiso   1.00
N133   N     0.04185   0.17048   0.52168   0.00000  Uiso   1.00
N134   N     0.79974   0.81453   0.29138   0.00000  Uiso   1.00
N135   N     0.89785   0.50052   0.19615   0.00000  Uiso   1.00
N136   N     0.95539   0.22075   0.59570   0.00000  Uiso   1.00
N137   N     0.71328   0.86481   0.36539   0.00000  Uiso   1.00
N138   N     0.81138   0.55079   0.27016   0.00000  Uiso   1.00
C139   C     0.42078   0.65746   0.32990   0.00000  Uiso   1.00
C140   C     0.43302   0.67335   0.40084   0.00000  Uiso   1.00
C141   C     0.49147   0.65869   0.41926   0.00000  Uiso   1.00
C142   C     0.49274   0.67730   0.48671   0.00000  Uiso   1.00
C143   C     0.52014   0.69704   0.58968   0.00000  Uiso   1.00
C144   C     0.36629   0.57524   0.33738   0.00000  Uiso   1.00
C145   C     0.36865   0.47810   0.30243   0.00000  Uiso   1.00
C146   C     0.31374   0.41412   0.31645   0.00000  Uiso   1.00
C147   C     0.23753   0.28157   0.32085   0.00000  Uiso   1.00
C148   C     0.39334   0.76430   0.31114   0.00000  Uiso   1.00
C149   C     0.41842   0.82611   0.25411   0.00000  Uiso   1.00
C150   C     0.38627   0.92131   0.24604   0.00000  Uiso   1.00
C151   C     0.35206   0.08230   0.20970   0.00000  Uiso   1.00
C152   C     0.31909   0.71658   0.41694   0.00000  Uiso   1.00
C153   C     0.37778   0.70546   0.44812   0.00000  Uiso   1.00
C154   C     0.37897   0.72410   0.51556   0.00000  Uiso   1.00
C155   C     0.43741   0.70948   0.53408   0.00000  Uiso   1.00
C156   C     0.31106   0.60735   0.38465   0.00000  Uiso   1.00
C157   C     0.25614   0.54351   0.39873   0.00000  Uiso   1.00
C158   C     0.25841   0.44629   0.36381   0.00000  Uiso   1.00
C159   C     0.33810   0.79642   0.35841   0.00000  Uiso   1.00
C160   C     0.30591   0.89153   0.35042   0.00000  Uiso   1.00
C161   C     0.33094   0.95347   0.29340   0.00000  Uiso   1.00
H162   H     0.46378   0.63246   0.29310   0.00000  Uiso   1.00
H163   H     0.53420   0.63383   0.38266   0.00000  Uiso   1.00
H164   H     0.41139   0.45327   0.26584   0.00000  Uiso   1.00
H165   H     0.46116   0.80124   0.21754   0.00000  Uiso   1.00
H166   H     0.58792   0.64948   0.50282   0.00000  Uiso   1.00
H167   H     0.32896   0.26878   0.25648   0.00000  Uiso   1.00
H168   H     0.43390   0.00253   0.15462   0.00000  Uiso   1.00
H169   H     0.27609   0.74158   0.45375   0.00000  Uiso   1.00
H170   H     0.33622   0.74895   0.55213   0.00000  Uiso   1.00
H171   H     0.21341   0.56838   0.43531   0.00000  Uiso   1.00
H172   H     0.26317   0.91635   0.38701   0.00000  Uiso   1.00
H173   H     0.42723   0.74291   0.64037   0.00000  Uiso   1.00
H174   H     0.16827   0.36220   0.39402   0.00000  Uiso   1.00
H175   H     0.27321   0.09596   0.29218   0.00000  Uiso   1.00
O176   O     0.55051   0.69904   0.63342   0.00000  Uiso   1.00
O177   O     0.21076   0.19958   0.31022   0.00000  Uiso   1.00
O178   O     0.34845   0.16224   0.17660   0.00000  Uiso   1.00
N179   N     0.54185   0.67048   0.52168   0.00000  Uiso   1.00
N180   N     0.29974   0.31453   0.29138   0.00000  Uiso   1.00
N181   N     0.39785   0.00052   0.19615   0.00000  Uiso   1.00
N182   N     0.45539   0.72075   0.59570   0.00000  Uiso   1.00
N183   N     0.21328   0.36481   0.36539   0.00000  Uiso   1.00
N184   N     0.31138   0.05079   0.27016   0.00000  Uiso   1.00
C185   C     0.92078   0.84254   0.82990   0.00000  Uiso   1.00
C186   C     0.93302   0.82665   0.90084   0.00000  Uiso   1.00
C187   C     0.99147   0.84131   0.91926   0.00000  Uiso   1.00
C188   C     0.99274   0.82270   0.98671   0.00000  Uiso   1.00
C189   C     0.02014   0.80296   0.08968   0.00000  Uiso   1.00
C190   C     0.86629   0.92476   0.83738   0.00000  Uiso   1.00
C191   C     0.86865   0.02190   0.80243   0.00000  Uiso   1.00
C192   C     0.81374   0.08588   0.81645   0.00000  Uiso   1.00
C193   C     0.73753   0.21843   0.82085   0.00000  Uiso   1.00
C194   C     0.89334   0.73570   0.81114   0.00000  Uiso   1.00
C195   C     0.91842   0.67389   0.75411   0.00000  Uiso   1.00
C196   C     0.88627   0.57869   0.74604   0.00000  Uiso   1.00
C197   C     0.85206   0.41770   0.70970   0.00000  Uiso   1.00
C198   C     0.81909   0.78342   0.91694   0.00000  Uiso   1.00
C199   C     0.87778   0.79454   0.94812   0.00000  Uiso   1.00
C200   C     0.87897   0.77590   0.01556   0.00000  Uiso   1.00
C201   C     0.93741   0.79052   0.03408   0.00000  Uiso   1.00
C202   C     0.81106   0.89265   0.88465   0.00000  Uiso   1.00
C203   C     0.75614   0.95649   0.89873   0.00000  Uiso   1.00
C204   C     0.75841   0.05371   0.86381   0.00000  Uiso   1.00
C205   C     0.83810   0.70358   0.85841   0.00000  Uiso   1.00
C206   C     0.80591   0.60847   0.85042   0.00000  Uiso   1.00
C207   C     0.83094   0.54653   0.79340   0.00000  Uiso   1.00
H208   H     0.96378   0.86754   0.79310   0.00000  Uiso   1.00
H209   H     0.03420   0.86617   0.88266   0.00000  Uiso   1.00
H210   H     0.91139   0.04673   0.76584   0.00000  Uiso   1.00
H211   H     0.96116   0.69876   0.71754   0.00000  Uiso   1.00
H212   H     0.08792   0.85052   0.00282   0.00000  Uiso   1.00
H213   H     0.82896   0.23122   0.75648   0.00000  Uiso   1.00
H214   H     0.93390   0.49747   0.65462   0.00000  Uiso   1.00
H215   H     0.77609   0.75842   0.95375   0.00000  Uiso   1.00
H216   H     0.83622   0.75105   0.05213   0.00000  Uiso   1.00
H217   H     0.71341   0.93162   0.93531   0.00000  Uiso   1.00
H218   H     0.76317   0.58365   0.88701   0.00000  Uiso   1.00
H219   H     0.92723   0.75709   0.14037   0.00000  Uiso   1.00
H220   H     0.66827   0.13780   0.89402   0.00000  Uiso   1.00
H221   H     0.77321   0.40404   0.79218   0.00000  Uiso   1.00
O222   O     0.05051   0.80096   0.13342   0.00000  Uiso   1.00
O223   O     0.71076   0.30042   0.81022   0.00000  Uiso   1.00
O224   O     0.84845   0.33776   0.67660   0.00000  Uiso   1.00
N225   N     0.04185   0.82952   0.02168   0.00000  Uiso   1.00
N226   N     0.79974   0.18547   0.79138   0.00000  Uiso   1.00
N227   N     0.89785   0.49948   0.69615   0.00000  Uiso   1.00
N228   N     0.95539   0.77925   0.09570   0.00000  Uiso   1.00
N229   N     0.71328   0.13519   0.86539   0.00000  Uiso   1.00
N230   N     0.81138   0.44921   0.77016   0.00000  Uiso   1.00
C231   C     0.42078   0.34254   0.82990   0.00000  Uiso   1.00
C232   C     0.43302   0.32665   0.90084   0.00000  Uiso   1.00
C233   C     0.49147   0.34131   0.91926   0.00000  Uiso   1.00
C234   C     0.49274   0.32270   0.98671   0.00000  Uiso   1.00
C235   C     0.52014   0.30296   0.08968   0.00000  Uiso   1.00
C236   C     0.36629   0.42476   0.83738   0.00000  Uiso   1.00
C237   C     0.36865   0.52190   0.80243   0.00000  Uiso   1.00
C238   C     0.31374   0.58588   0.81645   0.00000  Uiso   1.00
C239   C     0.23753   0.71843   0.82085   0.00000  Uiso   1.00
C240   C     0.39334   0.23570   0.81114   0.00000  Uiso   1.00
C241   C     0.41842   0.17389   0.75411   0.00000  Uiso   1.00
C242   C     0.38627   0.07869   0.74604   0.00000  Uiso   1.00
C243   C     0.35206   0.91770   0.70970   0.00000  Uiso   1.00
C244   C     0.31909   0.28342   0.91694   0.00000  Uiso   1.00
C245   C     0.37778   0.29454   0.94812   0.00000  Uiso   1.00
C246   C     0.37897   0.27590   0.01556   0.00000  Uiso   1.00
C247   C     0.43741   0.29052   0.03408   0.00000  Uiso   1.00
C248   C     0.31106   0.39265   0.88465   0.00000  Uiso   1.00
C249   C     0.25614   0.45649   0.89873   0.00000  Uiso   1.00
C250   C     0.25841   0.55371   0.86381   0.00000  Uiso   1.00
C251   C     0.33810   0.20358   0.85841   0.00000  Uiso   1.00
C252   C     0.30591   0.10847   0.85042   0.00000  Uiso   1.00
C253   C     0.33094   0.04653   0.79340   0.00000  Uiso   1.00
H254   H     0.46378   0.36754   0.79310   0.00000  Uiso   1.00
H255   H     0.53420   0.36617   0.88266   0.00000  Uiso   1.00
H256   H     0.41139   0.54673   0.76584   0.00000  Uiso   1.00
H257   H     0.46116   0.19876   0.71754   0.00000  Uiso   1.00
H258   H     0.58792   0.35052   0.00282   0.00000  Uiso   1.00
H259   H     0.32896   0.73122   0.75648   0.00000  Uiso   1.00
H260   H     0.43390   0.99747   0.65462   0.00000  Uiso   1.00
H261   H     0.27609   0.25842   0.95375   0.00000  Uiso   1.00
H262   H     0.33622   0.25105   0.05213   0.00000  Uiso   1.00
H263   H     0.21341   0.43162   0.93531   0.00000  Uiso   1.00
H264   H     0.26317   0.08365   0.88701   0.00000  Uiso   1.00
H265   H     0.42723   0.25709   0.14037   0.00000  Uiso   1.00
H266   H     0.16827   0.63780   0.89402   0.00000  Uiso   1.00
H267   H     0.27321   0.90404   0.79218   0.00000  Uiso   1.00
O268   O     0.55051   0.30096   0.13342   0.00000  Uiso   1.00
O269   O     0.21076   0.80042   0.81022   0.00000  Uiso   1.00
O270   O     0.34845   0.83776   0.67660   0.00000  Uiso   1.00
N271   N     0.54185   0.32952   0.02168   0.00000  Uiso   1.00
N272   N     0.29974   0.68547   0.79138   0.00000  Uiso   1.00
N273   N     0.39785   0.99948   0.69615   0.00000  Uiso   1.00
N274   N     0.45539   0.27925   0.09570   0.00000  Uiso   1.00
N275   N     0.21328   0.63519   0.86539   0.00000  Uiso   1.00
N276   N     0.31138   0.94921   0.77016   0.00000  Uiso   1.00
C277   C     0.07922   0.84254   0.67010   0.00000  Uiso   1.00
C278   C     0.06698   0.82665   0.59916   0.00000  Uiso   1.00
C279   C     0.00853   0.84131   0.58074   0.00000  Uiso   1.00
C280   C     0.00726   0.82270   0.51329   0.00000  Uiso   1.00
C281   C     0.97986   0.80296   0.41032   0.00000  Uiso   1.00
C282   C     0.13371   0.92476   0.66262   0.00000  Uiso   1.00
C283   C     0.13135   0.02190   0.69757   0.00000  Uiso   1.00
C284   C     0.18626   0.08588   0.68355   0.00000  Uiso   1.00
C285   C     0.26247   0.21843   0.67915   0.00000  Uiso   1.00
C286   C     0.10666   0.73570   0.68886   0.00000  Uiso   1.00
C287   C     0.08158   0.67389   0.74589   0.00000  Uiso   1.00
C288   C     0.11373   0.57869   0.75396   0.00000  Uiso   1.00
C289   C     0.14794   0.41770   0.79030   0.00000  Uiso   1.00
C290   C     0.18091   0.78342   0.58306   0.00000  Uiso   1.00
C291   C     0.12222   0.79454   0.55188   0.00000  Uiso   1.00
C292   C     0.12103   0.77590   0.48444   0.00000  Uiso   1.00
C293   C     0.06259   0.79052   0.46592   0.00000  Uiso   1.00
C294   C     0.18894   0.89265   0.61535   0.00000  Uiso   1.00
C295   C     0.24386   0.95649   0.60127   0.00000  Uiso   1.00
C296   C     0.24159   0.05371   0.63619   0.00000  Uiso   1.00
C297   C     0.16190   0.70358   0.64159   0.00000  Uiso   1.00
C298   C     0.19409   0.60847   0.64958   0.00000  Uiso   1.00
C299   C     0.16906   0.54653   0.70660   0.00000  Uiso   1.00
H300   H     0.03622   0.86754   0.70690   0.00000  Uiso   1.00
H301   H     0.96580   0.86617   0.61734   0.00000  Uiso   1.00
H302   H     0.08861   0.04673   0.73416   0.00000  Uiso   1.00
H303   H     0.03884   0.69876   0.78246   0.00000  Uiso   1.00
H304   H     0.91208   0.85052   0.49718   0.00000  Uiso   1.00
H305   H     0.17104   0.23122   0.74352   0.00000  Uiso   1.00
H306   H     0.06610   0.49747   0.84538   0.00000  Uiso   1.00
H307   H     0.22391   0.75842   0.54625   0.00000  Uiso   1.00
H308   H     0.16378   0.75105   0.44787   0.00000  Uiso   1.00
H309   H     0.28659   0.93162   0.56469   0.00000  Uiso   1.00
H310   H     0.23683   0.58365   0.61299   0.00000  Uiso   1.00
H311   H     0.07277   0.75709   0.35963   0.00000  Uiso   1.00
H312   H     0.33173   0.13780   0.60598   0.00000  Uiso   1.00
H313   H     0.22679   0.40404   0.70782   0.00000  Uiso   1.00
O314   O     0.94949   0.80096   0.36658   0.00000  Uiso   1.00
O315   O     0.28924   0.30042   0.68978   0.00000  Uiso   1.00
O316   O     0.15155   0.33776   0.82340   0.00000  Uiso   1.00
N317   N     0.95815   0.82952   0.47832   0.00000  Uiso   1.00
N318   N     0.20026   0.18547   0.70862   0.00000  Uiso   1.00
N319   N     0.10215   0.49948   0.80385   0.00000  Uiso   1.00
N320   N     0.04461   0.77925   0.40430   0.00000  Uiso   1.00
N321   N     0.28672   0.13519   0.63461   0.00000  Uiso   1.00
N322   N     0.18862   0.44921   0.72984   0.00000  Uiso   1.00
C323   C     0.57922   0.34254   0.67010   0.00000  Uiso   1.00
C324   C     0.56698   0.32665   0.59916   0.00000  Uiso   1.00
C325   C     0.50853   0.34131   0.58074   0.00000  Uiso   1.00
C326   C     0.50726   0.32270   0.51329   0.00000  Uiso   1.00
C327   C     0.47986   0.30296   0.41032   0.00000  Uiso   1.00
C328   C     0.63371   0.42476   0.66262   0.00000  Uiso   1.00
C329   C     0.63135   0.52190   0.69757   0.00000  Uiso   1.00
C330   C     0.68626   0.58588   0.68355   0.00000  Uiso   1.00
C331   C     0.76247   0.71843   0.67915   0.00000  Uiso   1.00
C332   C     0.60666   0.23570   0.68886   0.00000  Uiso   1.00
C333   C     0.58158   0.17389   0.74589   0.00000  Uiso   1.00
C334   C     0.61373   0.07869   0.75396   0.00000  Uiso   1.00
C335   C     0.64794   0.91770   0.79030   0.00000  Uiso   1.00
C336   C     0.68091   0.28342   0.58306   0.00000  Uiso   1.00
C337   C     0.62222   0.29454   0.55188   0.00000  Uiso   1.00
C338   C     0.62103   0.27590   0.48444   0.00000  Uiso   1.00
C339   C     0.56259   0.29052   0.46592   0.00000  Uiso   1.00
C340   C     0.68894   0.39265   0.61535   0.00000  Uiso   1.00
C341   C     0.74386   0.45649   0.60127   0.00000  Uiso   1.00
C342   C     0.74159   0.55371   0.63619   0.00000  Uiso   1.00
C343   C     0.66190   0.20358   0.64159   0.00000  Uiso   1.00
C344   C     0.69409   0.10847   0.64958   0.00000  Uiso   1.00
C345   C     0.66906   0.04653   0.70660   0.00000  Uiso   1.00
H346   H     0.53622   0.36754   0.70690   0.00000  Uiso   1.00
H347   H     0.46580   0.36617   0.61734   0.00000  Uiso   1.00
H348   H     0.58861   0.54673   0.73416   0.00000  Uiso   1.00
H349   H     0.53884   0.19876   0.78246   0.00000  Uiso   1.00
H350   H     0.41208   0.35052   0.49718   0.00000  Uiso   1.00
H351   H     0.67104   0.73122   0.74352   0.00000  Uiso   1.00
H352   H     0.56610   0.99747   0.84538   0.00000  Uiso   1.00
H353   H     0.72391   0.25842   0.54625   0.00000  Uiso   1.00
H354   H     0.66378   0.25105   0.44787   0.00000  Uiso   1.00
H355   H     0.78659   0.43162   0.56469   0.00000  Uiso   1.00
H356   H     0.73683   0.08365   0.61299   0.00000  Uiso   1.00
H357   H     0.57277   0.25709   0.35963   0.00000  Uiso   1.00
H358   H     0.83173   0.63780   0.60598   0.00000  Uiso   1.00
H359   H     0.72679   0.90404   0.70782   0.00000  Uiso   1.00
O360   O     0.44949   0.30096   0.36658   0.00000  Uiso   1.00
O361   O     0.78924   0.80042   0.68978   0.00000  Uiso   1.00
O362   O     0.65155   0.83776   0.82340   0.00000  Uiso   1.00
N363   N     0.45815   0.32952   0.47832   0.00000  Uiso   1.00
N364   N     0.70026   0.68547   0.70862   0.00000  Uiso   1.00
N365   N     0.60215   0.99948   0.80385   0.00000  Uiso   1.00
N366   N     0.54461   0.27925   0.40430   0.00000  Uiso   1.00
N367   N     0.78672   0.63519   0.63461   0.00000  Uiso   1.00
N368   N     0.68862   0.94921   0.72984   0.00000  Uiso   1.00
