data_job_00011
_audit_creation_date              2018-12-19
_audit_creation_method            'Materials Studio'
_symmetry_space_group_name_H-M    'P1'
_symmetry_Int_Tables_number       1
_symmetry_cell_setting            triclinic
loop_
_symmetry_equiv_pos_as_xyz
  x,y,z
_cell_length_a                    12.9831
_cell_length_b                    16.4442
_cell_length_c                    10.2726
_cell_angle_alpha                 90.0000
_cell_angle_beta                  72.3101
_cell_angle_gamma                 90.0000
loop_
_atom_site_label
_atom_site_type_symbol
_atom_site_fract_x
_atom_site_fract_y
_atom_site_fract_z
_atom_site_U_iso_or_equiv
_atom_site_adp_type
_atom_site_occupancy
C1     C     0.76263   0.10305   0.72723   0.00000  Uiso   1.00
C2     C     0.76361   0.05729   0.59774   0.00000  Uiso   1.00
C3     C     0.80864   0.98112   0.55941   0.00000  Uiso   1.00
C4     C     0.80121   0.94967   0.43715   0.00000  Uiso   1.00
C5     C     0.81049   0.87207   0.24836   0.00000  Uiso   1.00
C6     C     0.81610   0.18493   0.68007   0.00000  Uiso   1.00
C7     C     0.90524   0.21608   0.71097   0.00000  Uiso   1.00
C8     C     0.94198   0.29209   0.65804   0.00000  Uiso   1.00
C9     C     0.03270   0.41268   0.59714   0.00000  Uiso   1.00
C10    C     0.64425   0.12147   0.80182   0.00000  Uiso   1.00
C11    C     0.58891   0.09929   0.93510   0.00000  Uiso   1.00
C12    C     0.48096   0.12188   0.98468   0.00000  Uiso   1.00
C13    C     0.30487   0.14394   0.11281   0.00000  Uiso   1.00
C14    C     0.66933   0.18265   0.57830   0.00000  Uiso   1.00
C15    C     0.71294   0.10053   0.51685   0.00000  Uiso   1.00
C16    C     0.70543   0.06919   0.39462   0.00000  Uiso   1.00
C17    C     0.75044   0.99299   0.35611   0.00000  Uiso   1.00
C18    C     0.76543   0.22817   0.59918   0.00000  Uiso   1.00
C19    C     0.80203   0.30416   0.54619   0.00000  Uiso   1.00
C20    C     0.89121   0.33541   0.57699   0.00000  Uiso   1.00
C21    C     0.59357   0.16471   0.72092   0.00000  Uiso   1.00
C22    C     0.48569   0.18735   0.77031   0.00000  Uiso   1.00
C23    C     0.43020   0.16520   0.90364   0.00000  Uiso   1.00
H24    H     0.80208   0.06939   0.79022   0.00000  Uiso   1.00
H25    H     0.84786   0.94768   0.62203   0.00000  Uiso   1.00
H26    H     0.94443   0.18261   0.77359   0.00000  Uiso   1.00
H27    H     0.62815   0.06583   0.99767   0.00000  Uiso   1.00
H28    H     0.87630   0.83183   0.39987   0.00000  Uiso   1.00
H29    H     0.07992   0.32720   0.71947   0.00000  Uiso   1.00
H30    H     0.41297   0.08094   0.19200   0.00000  Uiso   1.00
H31    H     0.62988   0.21632   0.51531   0.00000  Uiso   1.00
H32    H     0.66621   0.10267   0.33204   0.00000  Uiso   1.00
H33    H     0.76279   0.33760   0.48360   0.00000  Uiso   1.00
H34    H     0.44651   0.22081   0.70768   0.00000  Uiso   1.00
H35    H     0.72888   0.95762   0.16450   0.00000  Uiso   1.00
H36    H     0.93249   0.45300   0.48411   0.00000  Uiso   1.00
H37    H     0.26554   0.20673   0.95663   0.00000  Uiso   1.00
O38    O     0.82963   0.81732   0.16656   0.00000  Uiso   1.00
O39    O     0.09675   0.46724   0.58589   0.00000  Uiso   1.00
O40    O     0.22173   0.14415   0.20583   0.00000  Uiso   1.00
N41    N     0.83660   0.87702   0.36964   0.00000  Uiso   1.00
N42    N     0.02698   0.34016   0.66843   0.00000  Uiso   1.00
N43    N     0.40345   0.10995   0.11022   0.00000  Uiso   1.00
N44    N     0.75727   0.94471   0.24299   0.00000  Uiso   1.00
N45    N     0.94765   0.40785   0.54178   0.00000  Uiso   1.00
N46    N     0.32412   0.17764   0.98357   0.00000  Uiso   1.00
C47    C     0.23737   0.60305   0.77277   0.00000  Uiso   1.00
C48    C     0.23639   0.55729   0.90226   0.00000  Uiso   1.00
C49    C     0.19136   0.48112   0.94059   0.00000  Uiso   1.00
C50    C     0.19879   0.44967   0.06285   0.00000  Uiso   1.00
C51    C     0.18951   0.37207   0.25164   0.00000  Uiso   1.00
C52    C     0.18390   0.68493   0.81993   0.00000  Uiso   1.00
C53    C     0.09476   0.71608   0.78903   0.00000  Uiso   1.00
C54    C     0.05802   0.79209   0.84196   0.00000  Uiso   1.00
C55    C     0.96730   0.91268   0.90286   0.00000  Uiso   1.00
C56    C     0.35575   0.62147   0.69818   0.00000  Uiso   1.00
C57    C     0.41109   0.59929   0.56490   0.00000  Uiso   1.00
C58    C     0.51904   0.62188   0.51532   0.00000  Uiso   1.00
C59    C     0.69513   0.64394   0.38719   0.00000  Uiso   1.00
C60    C     0.33067   0.68265   0.92170   0.00000  Uiso   1.00
C61    C     0.28706   0.60053   0.98315   0.00000  Uiso   1.00
C62    C     0.29457   0.56919   0.10538   0.00000  Uiso   1.00
C63    C     0.24956   0.49299   0.14389   0.00000  Uiso   1.00
C64    C     0.23457   0.72817   0.90082   0.00000  Uiso   1.00
C65    C     0.19797   0.80416   0.95381   0.00000  Uiso   1.00
C66    C     0.10879   0.83541   0.92301   0.00000  Uiso   1.00
C67    C     0.40643   0.66471   0.77908   0.00000  Uiso   1.00
C68    C     0.51431   0.68735   0.72969   0.00000  Uiso   1.00
C69    C     0.56980   0.66520   0.59636   0.00000  Uiso   1.00
H70    H     0.19792   0.56939   0.70978   0.00000  Uiso   1.00
H71    H     0.15214   0.44768   0.87797   0.00000  Uiso   1.00
H72    H     0.05557   0.68261   0.72641   0.00000  Uiso   1.00
H73    H     0.37185   0.56583   0.50233   0.00000  Uiso   1.00
H74    H     0.12370   0.33183   0.10013   0.00000  Uiso   1.00
H75    H     0.92008   0.82720   0.78053   0.00000  Uiso   1.00
H76    H     0.58703   0.58094   0.30800   0.00000  Uiso   1.00
H77    H     0.37012   0.71632   0.98469   0.00000  Uiso   1.00
H78    H     0.33379   0.60267   0.16796   0.00000  Uiso   1.00
H79    H     0.23721   0.83760   0.01640   0.00000  Uiso   1.00
H80    H     0.55349   0.72081   0.79232   0.00000  Uiso   1.00
H81    H     0.27112   0.45762   0.33550   0.00000  Uiso   1.00
H82    H     0.06751   0.95300   0.01589   0.00000  Uiso   1.00
H83    H     0.73446   0.70673   0.54337   0.00000  Uiso   1.00
O84    O     0.17037   0.31732   0.33344   0.00000  Uiso   1.00
O85    O     0.90325   0.96724   0.91411   0.00000  Uiso   1.00
O86    O     0.77827   0.64415   0.29417   0.00000  Uiso   1.00
N87    N     0.16340   0.37702   0.13036   0.00000  Uiso   1.00
N88    N     0.97302   0.84016   0.83157   0.00000  Uiso   1.00
N89    N     0.59655   0.60995   0.38978   0.00000  Uiso   1.00
N90    N     0.24273   0.44471   0.25701   0.00000  Uiso   1.00
N91    N     0.05235   0.90785   0.95822   0.00000  Uiso   1.00
N92    N     0.67588   0.67764   0.51643   0.00000  Uiso   1.00
C93    C     0.23737   0.89695   0.27277   0.00000  Uiso   1.00
C94    C     0.23639   0.94271   0.40226   0.00000  Uiso   1.00
C95    C     0.19136   0.01888   0.44059   0.00000  Uiso   1.00
C96    C     0.19879   0.05033   0.56285   0.00000  Uiso   1.00
C97    C     0.18951   0.12793   0.75164   0.00000  Uiso   1.00
C98    C     0.18390   0.81507   0.31993   0.00000  Uiso   1.00
C99    C     0.09476   0.78392   0.28903   0.00000  Uiso   1.00
C100   C     0.05802   0.70791   0.34196   0.00000  Uiso   1.00
C101   C     0.96730   0.58732   0.40286   0.00000  Uiso   1.00
C102   C     0.35575   0.87853   0.19818   0.00000  Uiso   1.00
C103   C     0.41109   0.90071   0.06490   0.00000  Uiso   1.00
C104   C     0.51904   0.87812   0.01532   0.00000  Uiso   1.00
C105   C     0.69513   0.85606   0.88719   0.00000  Uiso   1.00
C106   C     0.33067   0.81735   0.42170   0.00000  Uiso   1.00
C107   C     0.28706   0.89947   0.48315   0.00000  Uiso   1.00
C108   C     0.29457   0.93081   0.60538   0.00000  Uiso   1.00
C109   C     0.24956   0.00701   0.64389   0.00000  Uiso   1.00
C110   C     0.23457   0.77183   0.40082   0.00000  Uiso   1.00
C111   C     0.19797   0.69584   0.45381   0.00000  Uiso   1.00
C112   C     0.10879   0.66459   0.42301   0.00000  Uiso   1.00
C113   C     0.40643   0.83529   0.27908   0.00000  Uiso   1.00
C114   C     0.51431   0.81265   0.22969   0.00000  Uiso   1.00
C115   C     0.56980   0.83480   0.09636   0.00000  Uiso   1.00
H116   H     0.19792   0.93061   0.20978   0.00000  Uiso   1.00
H117   H     0.15214   0.05232   0.37797   0.00000  Uiso   1.00
H118   H     0.05557   0.81739   0.22641   0.00000  Uiso   1.00
H119   H     0.37185   0.93417   0.00233   0.00000  Uiso   1.00
H120   H     0.12370   0.16817   0.60013   0.00000  Uiso   1.00
H121   H     0.92008   0.67280   0.28053   0.00000  Uiso   1.00
H122   H     0.58703   0.91906   0.80800   0.00000  Uiso   1.00
H123   H     0.37012   0.78368   0.48469   0.00000  Uiso   1.00
H124   H     0.33379   0.89733   0.66796   0.00000  Uiso   1.00
H125   H     0.23721   0.66240   0.51640   0.00000  Uiso   1.00
H126   H     0.55349   0.77919   0.29232   0.00000  Uiso   1.00
H127   H     0.27112   0.04238   0.83550   0.00000  Uiso   1.00
H128   H     0.06751   0.54700   0.51589   0.00000  Uiso   1.00
H129   H     0.73446   0.79327   0.04337   0.00000  Uiso   1.00
O130   O     0.17037   0.18268   0.83344   0.00000  Uiso   1.00
O131   O     0.90325   0.53276   0.41411   0.00000  Uiso   1.00
O132   O     0.77827   0.85585   0.79417   0.00000  Uiso   1.00
N133   N     0.16340   0.12298   0.63036   0.00000  Uiso   1.00
N134   N     0.97302   0.65984   0.33157   0.00000  Uiso   1.00
N135   N     0.59655   0.89005   0.88978   0.00000  Uiso   1.00
N136   N     0.24273   0.05529   0.75701   0.00000  Uiso   1.00
N137   N     0.05235   0.59215   0.45822   0.00000  Uiso   1.00
N138   N     0.67588   0.82236   0.01643   0.00000  Uiso   1.00
C139   C     0.76263   0.39695   0.22723   0.00000  Uiso   1.00
C140   C     0.76361   0.44271   0.09774   0.00000  Uiso   1.00
C141   C     0.80864   0.51888   0.05941   0.00000  Uiso   1.00
C142   C     0.80121   0.55033   0.93715   0.00000  Uiso   1.00
C143   C     0.81049   0.62793   0.74836   0.00000  Uiso   1.00
C144   C     0.81610   0.31507   0.18007   0.00000  Uiso   1.00
C145   C     0.90524   0.28392   0.21097   0.00000  Uiso   1.00
C146   C     0.94198   0.20791   0.15804   0.00000  Uiso   1.00
C147   C     0.03270   0.08732   0.09714   0.00000  Uiso   1.00
C148   C     0.64425   0.37853   0.30182   0.00000  Uiso   1.00
C149   C     0.58891   0.40071   0.43510   0.00000  Uiso   1.00
C150   C     0.48096   0.37812   0.48468   0.00000  Uiso   1.00
C151   C     0.30487   0.35606   0.61281   0.00000  Uiso   1.00
C152   C     0.66933   0.31735   0.07830   0.00000  Uiso   1.00
C153   C     0.71294   0.39947   0.01685   0.00000  Uiso   1.00
C154   C     0.70543   0.43081   0.89462   0.00000  Uiso   1.00
C155   C     0.75044   0.50701   0.85611   0.00000  Uiso   1.00
C156   C     0.76543   0.27183   0.09918   0.00000  Uiso   1.00
C157   C     0.80203   0.19584   0.04619   0.00000  Uiso   1.00
C158   C     0.89121   0.16459   0.07699   0.00000  Uiso   1.00
C159   C     0.59357   0.33529   0.22092   0.00000  Uiso   1.00
C160   C     0.48569   0.31265   0.27031   0.00000  Uiso   1.00
C161   C     0.43020   0.33480   0.40364   0.00000  Uiso   1.00
H162   H     0.80208   0.43061   0.29022   0.00000  Uiso   1.00
H163   H     0.84786   0.55232   0.12203   0.00000  Uiso   1.00
H164   H     0.94443   0.31739   0.27359   0.00000  Uiso   1.00
H165   H     0.62815   0.43417   0.49767   0.00000  Uiso   1.00
H166   H     0.87630   0.66817   0.89987   0.00000  Uiso   1.00
H167   H     0.07992   0.17280   0.21947   0.00000  Uiso   1.00
H168   H     0.41297   0.41906   0.69200   0.00000  Uiso   1.00
H169   H     0.62988   0.28368   0.01531   0.00000  Uiso   1.00
H170   H     0.66621   0.39733   0.83204   0.00000  Uiso   1.00
H171   H     0.76279   0.16240   0.98360   0.00000  Uiso   1.00
H172   H     0.44651   0.27919   0.20768   0.00000  Uiso   1.00
H173   H     0.72888   0.54238   0.66450   0.00000  Uiso   1.00
H174   H     0.93249   0.04700   0.98411   0.00000  Uiso   1.00
H175   H     0.26554   0.29327   0.45663   0.00000  Uiso   1.00
O176   O     0.82963   0.68268   0.66656   0.00000  Uiso   1.00
O177   O     0.09675   0.03276   0.08589   0.00000  Uiso   1.00
O178   O     0.22173   0.35585   0.70583   0.00000  Uiso   1.00
N179   N     0.83660   0.62298   0.86964   0.00000  Uiso   1.00
N180   N     0.02698   0.15984   0.16843   0.00000  Uiso   1.00
N181   N     0.40345   0.39005   0.61022   0.00000  Uiso   1.00
N182   N     0.75727   0.55529   0.74299   0.00000  Uiso   1.00
N183   N     0.94765   0.09215   0.04178   0.00000  Uiso   1.00
N184   N     0.32412   0.32236   0.48357   0.00000  Uiso   1.00
