data_job_05616
_audit_creation_date              2018-12-19
_audit_creation_method            'Materials Studio'
_symmetry_space_group_name_H-M    'P1'
_symmetry_Int_Tables_number       1
_symmetry_cell_setting            triclinic
loop_
_symmetry_equiv_pos_as_xyz
  x,y,z
_cell_length_a                    12.6132
_cell_length_b                    26.9264
_cell_length_c                    24.7380
_cell_angle_alpha                 90.0000
_cell_angle_beta                  138.0438
_cell_angle_gamma                 90.0000
loop_
_atom_site_label
_atom_site_type_symbol
_atom_site_fract_x
_atom_site_fract_y
_atom_site_fract_z
_atom_site_U_iso_or_equiv
_atom_site_adp_type
_atom_site_occupancy
C1     C     0.04855   0.82157   0.03471   0.00000  Uiso   1.00
C2     C     0.91044   0.84319   0.01444   0.00000  Uiso   1.00
C3     C     0.88277   0.83610   0.05870   0.00000  Uiso   1.00
C4     C     0.74991   0.85903   0.03013   0.00000  Uiso   1.00
C5     C     0.55085   0.88817   0.00932   0.00000  Uiso   1.00
C6     C     0.97455   0.79237   0.96025   0.00000  Uiso   1.00
C7     C     0.00080   0.74254   0.95897   0.00000  Uiso   1.00
C8     C     0.92191   0.72269   0.88478   0.00000  Uiso   1.00
C9     C     0.82248   0.67294   0.77986   0.00000  Uiso   1.00
C10    C     0.13267   0.86571   0.04072   0.00000  Uiso   1.00
C11    C     0.29187   0.87754   0.10709   0.00000  Uiso   1.00
C12    C     0.34612   0.91943   0.10065   0.00000  Uiso   1.00
C13    C     0.49218   0.98355   0.12068   0.00000  Uiso   1.00
C14    C     0.86180   0.87491   0.90525   0.00000  Uiso   1.00
C15    C     0.80901   0.87216   0.94412   0.00000  Uiso   1.00
C16    C     0.67615   0.89511   0.91548   0.00000  Uiso   1.00
C17    C     0.64829   0.88805   0.95969   0.00000  Uiso   1.00
C18    C     0.87312   0.82134   0.88994   0.00000  Uiso   1.00
C19    C     0.79418   0.80156   0.81574   0.00000  Uiso   1.00
C20    C     0.82029   0.75172   0.81434   0.00000  Uiso   1.00
C21    C     0.03123   0.89468   0.97041   0.00000  Uiso   1.00
C22    C     0.08524   0.93656   0.96386   0.00000  Uiso   1.00
C23    C     0.24450   0.94845   0.03021   0.00000  Uiso   1.00
H24    H     0.12752   0.79901   0.08945   0.00000  Uiso   1.00
H25    H     0.96129   0.81367   0.11311   0.00000  Uiso   1.00
H26    H     0.07932   0.72013   0.01339   0.00000  Uiso   1.00
H27    H     0.37033   0.85511   0.16149   0.00000  Uiso   1.00
H28    H     0.73223   0.84268   0.10832   0.00000  Uiso   1.00
H29    H     0.98113   0.64546   0.89806   0.00000  Uiso   1.00
H30    H     0.59481   0.93008   0.21036   0.00000  Uiso   1.00
H31    H     0.78282   0.89747   0.85051   0.00000  Uiso   1.00
H32    H     0.59767   0.91753   0.86106   0.00000  Uiso   1.00
H33    H     0.71570   0.82399   0.76134   0.00000  Uiso   1.00
H34    H     0.00671   0.95897   0.90944   0.00000  Uiso   1.00
H35    H     0.43710   0.92697   0.90374   0.00000  Uiso   1.00
H36    H     0.68601   0.72975   0.69348   0.00000  Uiso   1.00
H37    H     0.29967   0.01438   0.00579   0.00000  Uiso   1.00
O38    O     0.46906   0.89623   0.01727   0.00000  Uiso   1.00
O39    O     0.79564   0.63749   0.74142   0.00000  Uiso   1.00
O40    O     0.60076   0.01091   0.15115   0.00000  Uiso   1.00
N41    N     0.68820   0.85977   0.05873   0.00000  Uiso   1.00
N42    N     0.92089   0.67538   0.86215   0.00000  Uiso   1.00
N43    N     0.49463   0.94147   0.15412   0.00000  Uiso   1.00
N44    N     0.52939   0.90513   0.94865   0.00000  Uiso   1.00
N45    N     0.76208   0.72074   0.75207   0.00000  Uiso   1.00
N46    N     0.33582   0.98683   0.04404   0.00000  Uiso   1.00
C47    C     0.54855   0.32157   0.03471   0.00000  Uiso   1.00
C48    C     0.41044   0.34319   0.01444   0.00000  Uiso   1.00
C49    C     0.38277   0.33610   0.05870   0.00000  Uiso   1.00
C50    C     0.24991   0.35903   0.03013   0.00000  Uiso   1.00
C51    C     0.05085   0.38817   0.00932   0.00000  Uiso   1.00
C52    C     0.47455   0.29237   0.96025   0.00000  Uiso   1.00
C53    C     0.50080   0.24254   0.95897   0.00000  Uiso   1.00
C54    C     0.42191   0.22269   0.88478   0.00000  Uiso   1.00
C55    C     0.32248   0.17294   0.77986   0.00000  Uiso   1.00
C56    C     0.63267   0.36571   0.04072   0.00000  Uiso   1.00
C57    C     0.79187   0.37754   0.10709   0.00000  Uiso   1.00
C58    C     0.84612   0.41943   0.10065   0.00000  Uiso   1.00
C59    C     0.99218   0.48355   0.12068   0.00000  Uiso   1.00
C60    C     0.36180   0.37491   0.90525   0.00000  Uiso   1.00
C61    C     0.30901   0.37216   0.94412   0.00000  Uiso   1.00
C62    C     0.17615   0.39511   0.91548   0.00000  Uiso   1.00
C63    C     0.14829   0.38805   0.95969   0.00000  Uiso   1.00
C64    C     0.37312   0.32134   0.88994   0.00000  Uiso   1.00
C65    C     0.29418   0.30156   0.81574   0.00000  Uiso   1.00
C66    C     0.32029   0.25172   0.81434   0.00000  Uiso   1.00
C67    C     0.53123   0.39468   0.97041   0.00000  Uiso   1.00
C68    C     0.58524   0.43656   0.96386   0.00000  Uiso   1.00
C69    C     0.74450   0.44845   0.03021   0.00000  Uiso   1.00
H70    H     0.62752   0.29901   0.08945   0.00000  Uiso   1.00
H71    H     0.46129   0.31367   0.11311   0.00000  Uiso   1.00
H72    H     0.57932   0.22013   0.01339   0.00000  Uiso   1.00
H73    H     0.87033   0.35511   0.16149   0.00000  Uiso   1.00
H74    H     0.23223   0.34268   0.10832   0.00000  Uiso   1.00
H75    H     0.48113   0.14546   0.89806   0.00000  Uiso   1.00
H76    H     0.09481   0.43008   0.21036   0.00000  Uiso   1.00
H77    H     0.28282   0.39747   0.85051   0.00000  Uiso   1.00
H78    H     0.09767   0.41753   0.86106   0.00000  Uiso   1.00
H79    H     0.21570   0.32399   0.76134   0.00000  Uiso   1.00
H80    H     0.50671   0.45897   0.90944   0.00000  Uiso   1.00
H81    H     0.93710   0.42697   0.90374   0.00000  Uiso   1.00
H82    H     0.18601   0.22975   0.69348   0.00000  Uiso   1.00
H83    H     0.79967   0.51438   0.00579   0.00000  Uiso   1.00
O84    O     0.96906   0.39623   0.01727   0.00000  Uiso   1.00
O85    O     0.29564   0.13749   0.74142   0.00000  Uiso   1.00
O86    O     0.10076   0.51091   0.15115   0.00000  Uiso   1.00
N87    N     0.18820   0.35977   0.05873   0.00000  Uiso   1.00
N88    N     0.42089   0.17538   0.86215   0.00000  Uiso   1.00
N89    N     0.99463   0.44147   0.15412   0.00000  Uiso   1.00
N90    N     0.02939   0.40513   0.94865   0.00000  Uiso   1.00
N91    N     0.26208   0.22074   0.75207   0.00000  Uiso   1.00
N92    N     0.83582   0.48683   0.04404   0.00000  Uiso   1.00
C93    C     0.95145   0.82157   0.46529   0.00000  Uiso   1.00
C94    C     0.08956   0.84319   0.48556   0.00000  Uiso   1.00
C95    C     0.11723   0.83610   0.44130   0.00000  Uiso   1.00
C96    C     0.25009   0.85903   0.46987   0.00000  Uiso   1.00
C97    C     0.44915   0.88817   0.49068   0.00000  Uiso   1.00
C98    C     0.02545   0.79237   0.53975   0.00000  Uiso   1.00
C99    C     0.99920   0.74254   0.54103   0.00000  Uiso   1.00
C100   C     0.07809   0.72269   0.61522   0.00000  Uiso   1.00
C101   C     0.17752   0.67294   0.72014   0.00000  Uiso   1.00
C102   C     0.86733   0.86571   0.45928   0.00000  Uiso   1.00
C103   C     0.70813   0.87754   0.39291   0.00000  Uiso   1.00
C104   C     0.65388   0.91943   0.39935   0.00000  Uiso   1.00
C105   C     0.50782   0.98355   0.37932   0.00000  Uiso   1.00
C106   C     0.13820   0.87491   0.59475   0.00000  Uiso   1.00
C107   C     0.19099   0.87216   0.55588   0.00000  Uiso   1.00
C108   C     0.32385   0.89511   0.58452   0.00000  Uiso   1.00
C109   C     0.35171   0.88805   0.54031   0.00000  Uiso   1.00
C110   C     0.12688   0.82134   0.61006   0.00000  Uiso   1.00
C111   C     0.20582   0.80156   0.68426   0.00000  Uiso   1.00
C112   C     0.17971   0.75172   0.68566   0.00000  Uiso   1.00
C113   C     0.96877   0.89468   0.52959   0.00000  Uiso   1.00
C114   C     0.91476   0.93656   0.53614   0.00000  Uiso   1.00
C115   C     0.75550   0.94845   0.46979   0.00000  Uiso   1.00
H116   H     0.87248   0.79901   0.41055   0.00000  Uiso   1.00
H117   H     0.03871   0.81367   0.38689   0.00000  Uiso   1.00
H118   H     0.92068   0.72013   0.48661   0.00000  Uiso   1.00
H119   H     0.62967   0.85511   0.33851   0.00000  Uiso   1.00
H120   H     0.26777   0.84268   0.39168   0.00000  Uiso   1.00
H121   H     0.01887   0.64546   0.60194   0.00000  Uiso   1.00
H122   H     0.40519   0.93008   0.28964   0.00000  Uiso   1.00
H123   H     0.21718   0.89747   0.64949   0.00000  Uiso   1.00
H124   H     0.40233   0.91753   0.63894   0.00000  Uiso   1.00
H125   H     0.28430   0.82399   0.73866   0.00000  Uiso   1.00
H126   H     0.99329   0.95897   0.59056   0.00000  Uiso   1.00
H127   H     0.56290   0.92697   0.59626   0.00000  Uiso   1.00
H128   H     0.31399   0.72975   0.80652   0.00000  Uiso   1.00
H129   H     0.70033   0.01438   0.49421   0.00000  Uiso   1.00
O130   O     0.53094   0.89623   0.48273   0.00000  Uiso   1.00
O131   O     0.20436   0.63749   0.75858   0.00000  Uiso   1.00
O132   O     0.39924   0.01091   0.34885   0.00000  Uiso   1.00
N133   N     0.31180   0.85977   0.44127   0.00000  Uiso   1.00
N134   N     0.07911   0.67538   0.63785   0.00000  Uiso   1.00
N135   N     0.50537   0.94147   0.34588   0.00000  Uiso   1.00
N136   N     0.47061   0.90513   0.55135   0.00000  Uiso   1.00
N137   N     0.23792   0.72074   0.74793   0.00000  Uiso   1.00
N138   N     0.66418   0.98683   0.45596   0.00000  Uiso   1.00
C139   C     0.45145   0.32157   0.46529   0.00000  Uiso   1.00
C140   C     0.58956   0.34319   0.48556   0.00000  Uiso   1.00
C141   C     0.61723   0.33610   0.44130   0.00000  Uiso   1.00
C142   C     0.75009   0.35903   0.46987   0.00000  Uiso   1.00
C143   C     0.94915   0.38817   0.49068   0.00000  Uiso   1.00
C144   C     0.52545   0.29237   0.53975   0.00000  Uiso   1.00
C145   C     0.49920   0.24254   0.54103   0.00000  Uiso   1.00
C146   C     0.57809   0.22269   0.61522   0.00000  Uiso   1.00
C147   C     0.67752   0.17294   0.72014   0.00000  Uiso   1.00
C148   C     0.36733   0.36571   0.45928   0.00000  Uiso   1.00
C149   C     0.20813   0.37754   0.39291   0.00000  Uiso   1.00
C150   C     0.15388   0.41943   0.39935   0.00000  Uiso   1.00
C151   C     0.00782   0.48355   0.37932   0.00000  Uiso   1.00
C152   C     0.63820   0.37491   0.59475   0.00000  Uiso   1.00
C153   C     0.69099   0.37216   0.55588   0.00000  Uiso   1.00
C154   C     0.82385   0.39511   0.58452   0.00000  Uiso   1.00
C155   C     0.85171   0.38805   0.54031   0.00000  Uiso   1.00
C156   C     0.62688   0.32134   0.61006   0.00000  Uiso   1.00
C157   C     0.70582   0.30156   0.68426   0.00000  Uiso   1.00
C158   C     0.67971   0.25172   0.68566   0.00000  Uiso   1.00
C159   C     0.46877   0.39468   0.52959   0.00000  Uiso   1.00
C160   C     0.41476   0.43656   0.53614   0.00000  Uiso   1.00
C161   C     0.25550   0.44845   0.46979   0.00000  Uiso   1.00
H162   H     0.37248   0.29901   0.41055   0.00000  Uiso   1.00
H163   H     0.53871   0.31367   0.38689   0.00000  Uiso   1.00
H164   H     0.42068   0.22013   0.48661   0.00000  Uiso   1.00
H165   H     0.12967   0.35511   0.33851   0.00000  Uiso   1.00
H166   H     0.76777   0.34268   0.39168   0.00000  Uiso   1.00
H167   H     0.51887   0.14546   0.60194   0.00000  Uiso   1.00
H168   H     0.90519   0.43008   0.28964   0.00000  Uiso   1.00
H169   H     0.71718   0.39747   0.64949   0.00000  Uiso   1.00
H170   H     0.90233   0.41753   0.63894   0.00000  Uiso   1.00
H171   H     0.78430   0.32399   0.73866   0.00000  Uiso   1.00
H172   H     0.49329   0.45897   0.59056   0.00000  Uiso   1.00
H173   H     0.06290   0.42697   0.59626   0.00000  Uiso   1.00
H174   H     0.81399   0.22975   0.80652   0.00000  Uiso   1.00
H175   H     0.20033   0.51438   0.49421   0.00000  Uiso   1.00
O176   O     0.03094   0.39623   0.48273   0.00000  Uiso   1.00
O177   O     0.70436   0.13749   0.75858   0.00000  Uiso   1.00
O178   O     0.89924   0.51091   0.34885   0.00000  Uiso   1.00
N179   N     0.81180   0.35977   0.44127   0.00000  Uiso   1.00
N180   N     0.57911   0.17538   0.63785   0.00000  Uiso   1.00
N181   N     0.00537   0.44147   0.34588   0.00000  Uiso   1.00
N182   N     0.97061   0.40513   0.55135   0.00000  Uiso   1.00
N183   N     0.73792   0.22074   0.74793   0.00000  Uiso   1.00
N184   N     0.16418   0.48683   0.45596   0.00000  Uiso   1.00
C185   C     0.95145   0.17843   0.96529   0.00000  Uiso   1.00
C186   C     0.08956   0.15681   0.98556   0.00000  Uiso   1.00
C187   C     0.11723   0.16390   0.94130   0.00000  Uiso   1.00
C188   C     0.25009   0.14097   0.96987   0.00000  Uiso   1.00
C189   C     0.44915   0.11183   0.99068   0.00000  Uiso   1.00
C190   C     0.02545   0.20763   0.03975   0.00000  Uiso   1.00
C191   C     0.99920   0.25746   0.04103   0.00000  Uiso   1.00
C192   C     0.07809   0.27731   0.11522   0.00000  Uiso   1.00
C193   C     0.17752   0.32706   0.22014   0.00000  Uiso   1.00
C194   C     0.86733   0.13429   0.95928   0.00000  Uiso   1.00
C195   C     0.70813   0.12246   0.89291   0.00000  Uiso   1.00
C196   C     0.65388   0.08057   0.89935   0.00000  Uiso   1.00
C197   C     0.50782   0.01645   0.87932   0.00000  Uiso   1.00
C198   C     0.13820   0.12509   0.09475   0.00000  Uiso   1.00
C199   C     0.19099   0.12784   0.05588   0.00000  Uiso   1.00
C200   C     0.32385   0.10489   0.08452   0.00000  Uiso   1.00
C201   C     0.35171   0.11195   0.04031   0.00000  Uiso   1.00
C202   C     0.12688   0.17866   0.11006   0.00000  Uiso   1.00
C203   C     0.20582   0.19844   0.18426   0.00000  Uiso   1.00
C204   C     0.17971   0.24828   0.18566   0.00000  Uiso   1.00
C205   C     0.96877   0.10532   0.02959   0.00000  Uiso   1.00
C206   C     0.91476   0.06344   0.03614   0.00000  Uiso   1.00
C207   C     0.75550   0.05155   0.96979   0.00000  Uiso   1.00
H208   H     0.87248   0.20099   0.91055   0.00000  Uiso   1.00
H209   H     0.03871   0.18633   0.88689   0.00000  Uiso   1.00
H210   H     0.92068   0.27987   0.98661   0.00000  Uiso   1.00
H211   H     0.62967   0.14489   0.83851   0.00000  Uiso   1.00
H212   H     0.26777   0.15732   0.89168   0.00000  Uiso   1.00
H213   H     0.01887   0.35454   0.10194   0.00000  Uiso   1.00
H214   H     0.40519   0.06992   0.78964   0.00000  Uiso   1.00
H215   H     0.21718   0.10253   0.14949   0.00000  Uiso   1.00
H216   H     0.40233   0.08247   0.13894   0.00000  Uiso   1.00
H217   H     0.28430   0.17601   0.23866   0.00000  Uiso   1.00
H218   H     0.99329   0.04103   0.09056   0.00000  Uiso   1.00
H219   H     0.56290   0.07303   0.09626   0.00000  Uiso   1.00
H220   H     0.31399   0.27025   0.30652   0.00000  Uiso   1.00
H221   H     0.70033   0.98562   0.99421   0.00000  Uiso   1.00
O222   O     0.53094   0.10377   0.98273   0.00000  Uiso   1.00
O223   O     0.20436   0.36251   0.25858   0.00000  Uiso   1.00
O224   O     0.39924   0.98909   0.84885   0.00000  Uiso   1.00
N225   N     0.31180   0.14023   0.94127   0.00000  Uiso   1.00
N226   N     0.07911   0.32462   0.13785   0.00000  Uiso   1.00
N227   N     0.50537   0.05853   0.84588   0.00000  Uiso   1.00
N228   N     0.47061   0.09487   0.05135   0.00000  Uiso   1.00
N229   N     0.23792   0.27926   0.24793   0.00000  Uiso   1.00
N230   N     0.66418   0.01317   0.95596   0.00000  Uiso   1.00
C231   C     0.45145   0.67843   0.96529   0.00000  Uiso   1.00
C232   C     0.58956   0.65681   0.98556   0.00000  Uiso   1.00
C233   C     0.61723   0.66390   0.94130   0.00000  Uiso   1.00
C234   C     0.75009   0.64097   0.96987   0.00000  Uiso   1.00
C235   C     0.94915   0.61183   0.99068   0.00000  Uiso   1.00
C236   C     0.52545   0.70763   0.03975   0.00000  Uiso   1.00
C237   C     0.49920   0.75746   0.04103   0.00000  Uiso   1.00
C238   C     0.57809   0.77731   0.11522   0.00000  Uiso   1.00
C239   C     0.67752   0.82706   0.22014   0.00000  Uiso   1.00
C240   C     0.36733   0.63429   0.95928   0.00000  Uiso   1.00
C241   C     0.20813   0.62246   0.89291   0.00000  Uiso   1.00
C242   C     0.15388   0.58057   0.89935   0.00000  Uiso   1.00
C243   C     0.00782   0.51645   0.87932   0.00000  Uiso   1.00
C244   C     0.63820   0.62509   0.09475   0.00000  Uiso   1.00
C245   C     0.69099   0.62784   0.05588   0.00000  Uiso   1.00
C246   C     0.82385   0.60489   0.08452   0.00000  Uiso   1.00
C247   C     0.85171   0.61195   0.04031   0.00000  Uiso   1.00
C248   C     0.62688   0.67866   0.11006   0.00000  Uiso   1.00
C249   C     0.70582   0.69844   0.18426   0.00000  Uiso   1.00
C250   C     0.67971   0.74828   0.18566   0.00000  Uiso   1.00
C251   C     0.46877   0.60532   0.02959   0.00000  Uiso   1.00
C252   C     0.41476   0.56344   0.03614   0.00000  Uiso   1.00
C253   C     0.25550   0.55155   0.96979   0.00000  Uiso   1.00
H254   H     0.37248   0.70099   0.91055   0.00000  Uiso   1.00
H255   H     0.53871   0.68633   0.88689   0.00000  Uiso   1.00
H256   H     0.42068   0.77987   0.98661   0.00000  Uiso   1.00
H257   H     0.12967   0.64489   0.83851   0.00000  Uiso   1.00
H258   H     0.76777   0.65732   0.89168   0.00000  Uiso   1.00
H259   H     0.51887   0.85454   0.10194   0.00000  Uiso   1.00
H260   H     0.90519   0.56992   0.78964   0.00000  Uiso   1.00
H261   H     0.71718   0.60253   0.14949   0.00000  Uiso   1.00
H262   H     0.90233   0.58247   0.13894   0.00000  Uiso   1.00
H263   H     0.78430   0.67601   0.23866   0.00000  Uiso   1.00
H264   H     0.49329   0.54103   0.09056   0.00000  Uiso   1.00
H265   H     0.06290   0.57303   0.09626   0.00000  Uiso   1.00
H266   H     0.81399   0.77025   0.30652   0.00000  Uiso   1.00
H267   H     0.20033   0.48562   0.99421   0.00000  Uiso   1.00
O268   O     0.03094   0.60377   0.98273   0.00000  Uiso   1.00
O269   O     0.70436   0.86251   0.25858   0.00000  Uiso   1.00
O270   O     0.89924   0.48909   0.84885   0.00000  Uiso   1.00
N271   N     0.81180   0.64023   0.94127   0.00000  Uiso   1.00
N272   N     0.57911   0.82462   0.13785   0.00000  Uiso   1.00
N273   N     0.00537   0.55853   0.84588   0.00000  Uiso   1.00
N274   N     0.97061   0.59487   0.05135   0.00000  Uiso   1.00
N275   N     0.73792   0.77926   0.24793   0.00000  Uiso   1.00
N276   N     0.16418   0.51317   0.95596   0.00000  Uiso   1.00
C277   C     0.04855   0.17843   0.53471   0.00000  Uiso   1.00
C278   C     0.91044   0.15681   0.51444   0.00000  Uiso   1.00
C279   C     0.88277   0.16390   0.55870   0.00000  Uiso   1.00
C280   C     0.74991   0.14097   0.53013   0.00000  Uiso   1.00
C281   C     0.55085   0.11183   0.50932   0.00000  Uiso   1.00
C282   C     0.97455   0.20763   0.46025   0.00000  Uiso   1.00
C283   C     0.00080   0.25746   0.45897   0.00000  Uiso   1.00
C284   C     0.92191   0.27731   0.38478   0.00000  Uiso   1.00
C285   C     0.82248   0.32706   0.27986   0.00000  Uiso   1.00
C286   C     0.13267   0.13429   0.54072   0.00000  Uiso   1.00
C287   C     0.29187   0.12246   0.60709   0.00000  Uiso   1.00
C288   C     0.34612   0.08057   0.60065   0.00000  Uiso   1.00
C289   C     0.49218   0.01645   0.62068   0.00000  Uiso   1.00
C290   C     0.86180   0.12509   0.40525   0.00000  Uiso   1.00
C291   C     0.80901   0.12784   0.44412   0.00000  Uiso   1.00
C292   C     0.67615   0.10489   0.41548   0.00000  Uiso   1.00
C293   C     0.64829   0.11195   0.45969   0.00000  Uiso   1.00
C294   C     0.87312   0.17866   0.38994   0.00000  Uiso   1.00
C295   C     0.79418   0.19844   0.31574   0.00000  Uiso   1.00
C296   C     0.82029   0.24828   0.31434   0.00000  Uiso   1.00
C297   C     0.03123   0.10532   0.47041   0.00000  Uiso   1.00
C298   C     0.08524   0.06344   0.46386   0.00000  Uiso   1.00
C299   C     0.24450   0.05155   0.53021   0.00000  Uiso   1.00
H300   H     0.12752   0.20099   0.58945   0.00000  Uiso   1.00
H301   H     0.96129   0.18633   0.61311   0.00000  Uiso   1.00
H302   H     0.07932   0.27987   0.51339   0.00000  Uiso   1.00
H303   H     0.37033   0.14489   0.66149   0.00000  Uiso   1.00
H304   H     0.73223   0.15732   0.60832   0.00000  Uiso   1.00
H305   H     0.98113   0.35454   0.39806   0.00000  Uiso   1.00
H306   H     0.59481   0.06992   0.71036   0.00000  Uiso   1.00
H307   H     0.78282   0.10253   0.35051   0.00000  Uiso   1.00
H308   H     0.59767   0.08247   0.36106   0.00000  Uiso   1.00
H309   H     0.71570   0.17601   0.26134   0.00000  Uiso   1.00
H310   H     0.00671   0.04103   0.40944   0.00000  Uiso   1.00
H311   H     0.43710   0.07303   0.40374   0.00000  Uiso   1.00
H312   H     0.68601   0.27025   0.19348   0.00000  Uiso   1.00
H313   H     0.29967   0.98562   0.50579   0.00000  Uiso   1.00
O314   O     0.46906   0.10377   0.51727   0.00000  Uiso   1.00
O315   O     0.79564   0.36251   0.24142   0.00000  Uiso   1.00
O316   O     0.60076   0.98909   0.65115   0.00000  Uiso   1.00
N317   N     0.68820   0.14023   0.55873   0.00000  Uiso   1.00
N318   N     0.92089   0.32462   0.36215   0.00000  Uiso   1.00
N319   N     0.49463   0.05853   0.65412   0.00000  Uiso   1.00
N320   N     0.52939   0.09487   0.44865   0.00000  Uiso   1.00
N321   N     0.76208   0.27926   0.25207   0.00000  Uiso   1.00
N322   N     0.33582   0.01317   0.54404   0.00000  Uiso   1.00
C323   C     0.54855   0.67843   0.53471   0.00000  Uiso   1.00
C324   C     0.41044   0.65681   0.51444   0.00000  Uiso   1.00
C325   C     0.38277   0.66390   0.55870   0.00000  Uiso   1.00
C326   C     0.24991   0.64097   0.53013   0.00000  Uiso   1.00
C327   C     0.05085   0.61183   0.50932   0.00000  Uiso   1.00
C328   C     0.47455   0.70763   0.46025   0.00000  Uiso   1.00
C329   C     0.50080   0.75746   0.45897   0.00000  Uiso   1.00
C330   C     0.42191   0.77731   0.38478   0.00000  Uiso   1.00
C331   C     0.32248   0.82706   0.27986   0.00000  Uiso   1.00
C332   C     0.63267   0.63429   0.54072   0.00000  Uiso   1.00
C333   C     0.79187   0.62246   0.60709   0.00000  Uiso   1.00
C334   C     0.84612   0.58057   0.60065   0.00000  Uiso   1.00
C335   C     0.99218   0.51645   0.62068   0.00000  Uiso   1.00
C336   C     0.36180   0.62509   0.40525   0.00000  Uiso   1.00
C337   C     0.30901   0.62784   0.44412   0.00000  Uiso   1.00
C338   C     0.17615   0.60489   0.41548   0.00000  Uiso   1.00
C339   C     0.14829   0.61195   0.45969   0.00000  Uiso   1.00
C340   C     0.37312   0.67866   0.38994   0.00000  Uiso   1.00
C341   C     0.29418   0.69844   0.31574   0.00000  Uiso   1.00
C342   C     0.32029   0.74828   0.31434   0.00000  Uiso   1.00
C343   C     0.53123   0.60532   0.47041   0.00000  Uiso   1.00
C344   C     0.58524   0.56344   0.46386   0.00000  Uiso   1.00
C345   C     0.74450   0.55155   0.53021   0.00000  Uiso   1.00
H346   H     0.62752   0.70099   0.58945   0.00000  Uiso   1.00
H347   H     0.46129   0.68633   0.61311   0.00000  Uiso   1.00
H348   H     0.57932   0.77987   0.51339   0.00000  Uiso   1.00
H349   H     0.87033   0.64489   0.66149   0.00000  Uiso   1.00
H350   H     0.23223   0.65732   0.60832   0.00000  Uiso   1.00
H351   H     0.48113   0.85454   0.39806   0.00000  Uiso   1.00
H352   H     0.09481   0.56992   0.71036   0.00000  Uiso   1.00
H353   H     0.28282   0.60253   0.35051   0.00000  Uiso   1.00
H354   H     0.09767   0.58247   0.36106   0.00000  Uiso   1.00
H355   H     0.21570   0.67601   0.26134   0.00000  Uiso   1.00
H356   H     0.50671   0.54103   0.40944   0.00000  Uiso   1.00
H357   H     0.93710   0.57303   0.40374   0.00000  Uiso   1.00
H358   H     0.18601   0.77025   0.19348   0.00000  Uiso   1.00
H359   H     0.79967   0.48562   0.50579   0.00000  Uiso   1.00
O360   O     0.96906   0.60377   0.51727   0.00000  Uiso   1.00
O361   O     0.29564   0.86251   0.24142   0.00000  Uiso   1.00
O362   O     0.10076   0.48909   0.65115   0.00000  Uiso   1.00
N363   N     0.18820   0.64023   0.55873   0.00000  Uiso   1.00
N364   N     0.42089   0.82462   0.36215   0.00000  Uiso   1.00
N365   N     0.99463   0.55853   0.65412   0.00000  Uiso   1.00
N366   N     0.02939   0.59487   0.44865   0.00000  Uiso   1.00
N367   N     0.26208   0.77926   0.25207   0.00000  Uiso   1.00
N368   N     0.83582   0.51317   0.54404   0.00000  Uiso   1.00
