data_job_00817
_audit_creation_date              2018-12-19
_audit_creation_method            'Materials Studio'
_symmetry_space_group_name_H-M    'P1'
_symmetry_Int_Tables_number       1
_symmetry_cell_setting            triclinic
loop_
_symmetry_equiv_pos_as_xyz
  x,y,z
_cell_length_a                    22.0144
_cell_length_b                    19.5024
_cell_length_c                    14.5199
_cell_angle_alpha                 90.0000
_cell_angle_beta                  147.8606
_cell_angle_gamma                 90.0000
loop_
_atom_site_label
_atom_site_type_symbol
_atom_site_fract_x
_atom_site_fract_y
_atom_site_fract_z
_atom_site_U_iso_or_equiv
_atom_site_adp_type
_atom_site_occupancy
C1     C     0.50556   0.68770   0.79959   0.00000  Uiso   1.00
C2     C     0.60653   0.64483   0.89630   0.00000  Uiso   1.00
C3     C     0.69525   0.62108   0.06495   0.00000  Uiso   1.00
C4     C     0.77954   0.58270   0.13001   0.00000  Uiso   1.00
C5     C     0.93702   0.51831   0.29545   0.00000  Uiso   1.00
C6     C     0.50597   0.75247   0.74128   0.00000  Uiso   1.00
C7     C     0.51012   0.81923   0.77957   0.00000  Uiso   1.00
C8     C     0.50975   0.87145   0.71411   0.00000  Uiso   1.00
C9     C     0.51102   0.97418   0.63877   0.00000  Uiso   1.00
C10    C     0.39867   0.64803   0.63485   0.00000  Uiso   1.00
C11    C     0.31258   0.62697   0.58362   0.00000  Uiso   1.00
C12    C     0.22185   0.59128   0.42853   0.00000  Uiso   1.00
C13    C     0.05652   0.53184   0.18794   0.00000  Uiso   1.00
C14    C     0.49750   0.66176   0.61524   0.00000  Uiso   1.00
C15    C     0.60215   0.63075   0.79617   0.00000  Uiso   1.00
C16    C     0.68633   0.59239   0.86099   0.00000  Uiso   1.00
C17    C     0.77516   0.56858   0.02970   0.00000  Uiso   1.00
C18    C     0.50159   0.73839   0.64116   0.00000  Uiso   1.00
C19    C     0.50120   0.79053   0.57562   0.00000  Uiso   1.00
C20    C     0.50536   0.85734   0.61380   0.00000  Uiso   1.00
C21    C     0.39429   0.63394   0.53472   0.00000  Uiso   1.00
C22    C     0.30367   0.59828   0.37967   0.00000  Uiso   1.00
C23    C     0.21747   0.57717   0.32822   0.00000  Uiso   1.00
H24    H     0.50897   0.69867   0.87754   0.00000  Uiso   1.00
H25    H     0.69861   0.63200   0.14240   0.00000  Uiso   1.00
H26    H     0.51350   0.83011   0.85705   0.00000  Uiso   1.00
H27    H     0.31600   0.63788   0.66114   0.00000  Uiso   1.00
H28    H     0.90695   0.55189   0.39191   0.00000  Uiso   1.00
H29    H     0.51660   0.96962   0.79018   0.00000  Uiso   1.00
H30    H     0.10012   0.56428   0.37706   0.00000  Uiso   1.00
H31    H     0.49409   0.65080   0.53728   0.00000  Uiso   1.00
H32    H     0.68292   0.58149   0.78348   0.00000  Uiso   1.00
H33    H     0.49781   0.77961   0.49813   0.00000  Uiso   1.00
H34    H     0.30031   0.58738   0.30222   0.00000  Uiso   1.00
H35    H     0.89422   0.51090   0.10060   0.00000  Uiso   1.00
H36    H     0.50386   0.92863   0.49887   0.00000  Uiso   1.00
H37    H     0.08739   0.52329   0.08575   0.00000  Uiso   1.00
O38    O     0.02509   0.48669   0.41437   0.00000  Uiso   1.00
O39    O     0.51294   0.03473   0.62490   0.00000  Uiso   1.00
O40    O     0.96654   0.50293   0.08291   0.00000  Uiso   1.00
N41    N     0.87803   0.55175   0.28955   0.00000  Uiso   1.00
N42    N     0.51309   0.94230   0.72700   0.00000  Uiso   1.00
N43    N     0.12371   0.56335   0.34074   0.00000  Uiso   1.00
N44    N     0.87118   0.52969   0.13280   0.00000  Uiso   1.00
N45    N     0.50624   0.92024   0.57024   0.00000  Uiso   1.00
N46    N     0.11686   0.54129   0.18399   0.00000  Uiso   1.00
C47    C     0.49444   0.18770   0.70041   0.00000  Uiso   1.00
C48    C     0.39347   0.14483   0.60370   0.00000  Uiso   1.00
C49    C     0.30475   0.12108   0.43505   0.00000  Uiso   1.00
C50    C     0.22046   0.08270   0.36999   0.00000  Uiso   1.00
C51    C     0.06298   0.01831   0.20455   0.00000  Uiso   1.00
C52    C     0.49403   0.25247   0.75872   0.00000  Uiso   1.00
C53    C     0.48988   0.31923   0.72043   0.00000  Uiso   1.00
C54    C     0.49025   0.37145   0.78589   0.00000  Uiso   1.00
C55    C     0.48898   0.47418   0.86123   0.00000  Uiso   1.00
C56    C     0.60133   0.14803   0.86515   0.00000  Uiso   1.00
C57    C     0.68742   0.12697   0.91638   0.00000  Uiso   1.00
C58    C     0.77815   0.09128   0.07147   0.00000  Uiso   1.00
C59    C     0.94348   0.03184   0.31206   0.00000  Uiso   1.00
C60    C     0.50250   0.16176   0.88476   0.00000  Uiso   1.00
C61    C     0.39785   0.13075   0.70383   0.00000  Uiso   1.00
C62    C     0.31367   0.09239   0.63901   0.00000  Uiso   1.00
C63    C     0.22484   0.06858   0.47030   0.00000  Uiso   1.00
C64    C     0.49841   0.23839   0.85884   0.00000  Uiso   1.00
C65    C     0.49880   0.29053   0.92438   0.00000  Uiso   1.00
C66    C     0.49464   0.35734   0.88620   0.00000  Uiso   1.00
C67    C     0.60571   0.13394   0.96528   0.00000  Uiso   1.00
C68    C     0.69633   0.09828   0.12033   0.00000  Uiso   1.00
C69    C     0.78253   0.07717   0.17178   0.00000  Uiso   1.00
H70    H     0.49103   0.19867   0.62246   0.00000  Uiso   1.00
H71    H     0.30139   0.13200   0.35760   0.00000  Uiso   1.00
H72    H     0.48650   0.33011   0.64295   0.00000  Uiso   1.00
H73    H     0.68400   0.13788   0.83886   0.00000  Uiso   1.00
H74    H     0.09305   0.05189   0.10809   0.00000  Uiso   1.00
H75    H     0.48340   0.46962   0.70982   0.00000  Uiso   1.00
H76    H     0.89988   0.06428   0.12294   0.00000  Uiso   1.00
H77    H     0.50591   0.15080   0.96272   0.00000  Uiso   1.00
H78    H     0.31708   0.08149   0.71652   0.00000  Uiso   1.00
H79    H     0.50219   0.27961   0.00187   0.00000  Uiso   1.00
H80    H     0.69969   0.08738   0.19778   0.00000  Uiso   1.00
H81    H     0.10578   0.01090   0.39940   0.00000  Uiso   1.00
H82    H     0.49614   0.42863   0.00113   0.00000  Uiso   1.00
H83    H     0.91261   0.02329   0.41425   0.00000  Uiso   1.00
O84    O     0.97491   0.98669   0.08563   0.00000  Uiso   1.00
O85    O     0.48706   0.53473   0.87510   0.00000  Uiso   1.00
O86    O     0.03346   0.00293   0.41709   0.00000  Uiso   1.00
N87    N     0.12197   0.05175   0.21045   0.00000  Uiso   1.00
N88    N     0.48691   0.44230   0.77300   0.00000  Uiso   1.00
N89    N     0.87629   0.06335   0.15926   0.00000  Uiso   1.00
N90    N     0.12882   0.02969   0.36720   0.00000  Uiso   1.00
N91    N     0.49376   0.42024   0.92976   0.00000  Uiso   1.00
N92    N     0.88314   0.04129   0.31601   0.00000  Uiso   1.00
C93    C     0.49444   0.31230   0.20041   0.00000  Uiso   1.00
C94    C     0.39347   0.35517   0.10370   0.00000  Uiso   1.00
C95    C     0.30475   0.37892   0.93505   0.00000  Uiso   1.00
C96    C     0.22046   0.41730   0.86999   0.00000  Uiso   1.00
C97    C     0.06298   0.48169   0.70455   0.00000  Uiso   1.00
C98    C     0.49403   0.24753   0.25872   0.00000  Uiso   1.00
C99    C     0.48988   0.18077   0.22043   0.00000  Uiso   1.00
C100   C     0.49025   0.12855   0.28589   0.00000  Uiso   1.00
C101   C     0.48898   0.02582   0.36123   0.00000  Uiso   1.00
C102   C     0.60133   0.35197   0.36515   0.00000  Uiso   1.00
C103   C     0.68742   0.37303   0.41638   0.00000  Uiso   1.00
C104   C     0.77815   0.40872   0.57147   0.00000  Uiso   1.00
C105   C     0.94348   0.46816   0.81206   0.00000  Uiso   1.00
C106   C     0.50250   0.33824   0.38476   0.00000  Uiso   1.00
C107   C     0.39785   0.36925   0.20383   0.00000  Uiso   1.00
C108   C     0.31367   0.40761   0.13901   0.00000  Uiso   1.00
C109   C     0.22484   0.43142   0.97030   0.00000  Uiso   1.00
C110   C     0.49841   0.26161   0.35884   0.00000  Uiso   1.00
C111   C     0.49880   0.20947   0.42438   0.00000  Uiso   1.00
C112   C     0.49464   0.14266   0.38620   0.00000  Uiso   1.00
C113   C     0.60571   0.36606   0.46528   0.00000  Uiso   1.00
C114   C     0.69633   0.40172   0.62033   0.00000  Uiso   1.00
C115   C     0.78253   0.42283   0.67178   0.00000  Uiso   1.00
H116   H     0.49103   0.30133   0.12246   0.00000  Uiso   1.00
H117   H     0.30139   0.36800   0.85760   0.00000  Uiso   1.00
H118   H     0.48650   0.16989   0.14295   0.00000  Uiso   1.00
H119   H     0.68400   0.36212   0.33886   0.00000  Uiso   1.00
H120   H     0.09305   0.44811   0.60809   0.00000  Uiso   1.00
H121   H     0.48340   0.03038   0.20982   0.00000  Uiso   1.00
H122   H     0.89988   0.43572   0.62294   0.00000  Uiso   1.00
H123   H     0.50591   0.34920   0.46272   0.00000  Uiso   1.00
H124   H     0.31708   0.41851   0.21652   0.00000  Uiso   1.00
H125   H     0.50219   0.22039   0.50187   0.00000  Uiso   1.00
H126   H     0.69969   0.41262   0.69778   0.00000  Uiso   1.00
H127   H     0.10578   0.48910   0.89940   0.00000  Uiso   1.00
H128   H     0.49614   0.07137   0.50113   0.00000  Uiso   1.00
H129   H     0.91261   0.47671   0.91425   0.00000  Uiso   1.00
O130   O     0.97491   0.51331   0.58563   0.00000  Uiso   1.00
O131   O     0.48706   0.96527   0.37510   0.00000  Uiso   1.00
O132   O     0.03346   0.49707   0.91709   0.00000  Uiso   1.00
N133   N     0.12197   0.44825   0.71045   0.00000  Uiso   1.00
N134   N     0.48691   0.05770   0.27300   0.00000  Uiso   1.00
N135   N     0.87629   0.43665   0.65926   0.00000  Uiso   1.00
N136   N     0.12882   0.47031   0.86720   0.00000  Uiso   1.00
N137   N     0.49376   0.07976   0.42976   0.00000  Uiso   1.00
N138   N     0.88314   0.45871   0.81601   0.00000  Uiso   1.00
C139   C     0.50556   0.81230   0.29959   0.00000  Uiso   1.00
C140   C     0.60653   0.85517   0.39630   0.00000  Uiso   1.00
C141   C     0.69525   0.87892   0.56495   0.00000  Uiso   1.00
C142   C     0.77954   0.91730   0.63001   0.00000  Uiso   1.00
C143   C     0.93702   0.98169   0.79545   0.00000  Uiso   1.00
C144   C     0.50597   0.74753   0.24128   0.00000  Uiso   1.00
C145   C     0.51012   0.68077   0.27957   0.00000  Uiso   1.00
C146   C     0.50975   0.62855   0.21411   0.00000  Uiso   1.00
C147   C     0.51102   0.52582   0.13877   0.00000  Uiso   1.00
C148   C     0.39867   0.85197   0.13485   0.00000  Uiso   1.00
C149   C     0.31258   0.87303   0.08362   0.00000  Uiso   1.00
C150   C     0.22185   0.90872   0.92853   0.00000  Uiso   1.00
C151   C     0.05652   0.96816   0.68794   0.00000  Uiso   1.00
C152   C     0.49750   0.83824   0.11524   0.00000  Uiso   1.00
C153   C     0.60215   0.86925   0.29617   0.00000  Uiso   1.00
C154   C     0.68633   0.90761   0.36099   0.00000  Uiso   1.00
C155   C     0.77516   0.93142   0.52970   0.00000  Uiso   1.00
C156   C     0.50159   0.76161   0.14116   0.00000  Uiso   1.00
C157   C     0.50120   0.70947   0.07562   0.00000  Uiso   1.00
C158   C     0.50536   0.64266   0.11380   0.00000  Uiso   1.00
C159   C     0.39429   0.86606   0.03472   0.00000  Uiso   1.00
C160   C     0.30367   0.90172   0.87967   0.00000  Uiso   1.00
C161   C     0.21747   0.92283   0.82822   0.00000  Uiso   1.00
H162   H     0.50897   0.80133   0.37754   0.00000  Uiso   1.00
H163   H     0.69861   0.86800   0.64240   0.00000  Uiso   1.00
H164   H     0.51350   0.66989   0.35705   0.00000  Uiso   1.00
H165   H     0.31600   0.86212   0.16114   0.00000  Uiso   1.00
H166   H     0.90695   0.94811   0.89191   0.00000  Uiso   1.00
H167   H     0.51660   0.53038   0.29018   0.00000  Uiso   1.00
H168   H     0.10012   0.93572   0.87706   0.00000  Uiso   1.00
H169   H     0.49409   0.84920   0.03728   0.00000  Uiso   1.00
H170   H     0.68292   0.91851   0.28348   0.00000  Uiso   1.00
H171   H     0.49781   0.72039   0.99813   0.00000  Uiso   1.00
H172   H     0.30031   0.91262   0.80222   0.00000  Uiso   1.00
H173   H     0.89422   0.98910   0.60060   0.00000  Uiso   1.00
H174   H     0.50386   0.57137   0.99887   0.00000  Uiso   1.00
H175   H     0.08739   0.97671   0.58575   0.00000  Uiso   1.00
O176   O     0.02509   0.01331   0.91437   0.00000  Uiso   1.00
O177   O     0.51294   0.46527   0.12490   0.00000  Uiso   1.00
O178   O     0.96654   0.99707   0.58291   0.00000  Uiso   1.00
N179   N     0.87803   0.94825   0.78955   0.00000  Uiso   1.00
N180   N     0.51309   0.55770   0.22700   0.00000  Uiso   1.00
N181   N     0.12371   0.93665   0.84074   0.00000  Uiso   1.00
N182   N     0.87118   0.97031   0.63280   0.00000  Uiso   1.00
N183   N     0.50624   0.57976   0.07024   0.00000  Uiso   1.00
N184   N     0.11686   0.95871   0.68399   0.00000  Uiso   1.00
