data_job_06332
_audit_creation_date              2018-12-19
_audit_creation_method            'Materials Studio'
_symmetry_space_group_name_H-M    'P1'
_symmetry_Int_Tables_number       1
_symmetry_cell_setting            triclinic
loop_
_symmetry_equiv_pos_as_xyz
  x,y,z
_cell_length_a                    12.5049
_cell_length_b                    21.1114
_cell_length_c                    21.2399
_cell_angle_alpha                 116.1700
_cell_angle_beta                  78.6625
_cell_angle_gamma                 79.4253
loop_
_atom_site_label
_atom_site_type_symbol
_atom_site_fract_x
_atom_site_fract_y
_atom_site_fract_z
_atom_site_U_iso_or_equiv
_atom_site_adp_type
_atom_site_occupancy
C1     C     0.41570   0.46034   0.68150   0.00000  Uiso   1.00
C2     C     0.32679   0.53375   0.74120   0.00000  Uiso   1.00
C3     C     0.21059   0.55360   0.74972   0.00000  Uiso   1.00
C4     C     0.14351   0.62326   0.80778   0.00000  Uiso   1.00
C5     C     0.99824   0.72995   0.89318   0.00000  Uiso   1.00
C6     C     0.50734   0.48031   0.64143   0.00000  Uiso   1.00
C7     C     0.54294   0.45522   0.56607   0.00000  Uiso   1.00
C8     C     0.62786   0.47989   0.54015   0.00000  Uiso   1.00
C9     C     0.76294   0.50357   0.47065   0.00000  Uiso   1.00
C10    C     0.47295   0.42755   0.72215   0.00000  Uiso   1.00
C11    C     0.47967   0.35809   0.71464   0.00000  Uiso   1.00
C12    C     0.53567   0.33832   0.75666   0.00000  Uiso   1.00
C13    C     0.61736   0.28008   0.81248   0.00000  Uiso   1.00
C14    C     0.50322   0.54874   0.76945   0.00000  Uiso   1.00
C15    C     0.37433   0.58176   0.78896   0.00000  Uiso   1.00
C16    C     0.30741   0.65140   0.84703   0.00000  Uiso   1.00
C17    C     0.19113   0.67135   0.85564   0.00000  Uiso   1.00
C18    C     0.55487   0.52832   0.68920   0.00000  Uiso   1.00
C19    C     0.63976   0.55302   0.66338   0.00000  Uiso   1.00
C20    C     0.67548   0.52798   0.58800   0.00000  Uiso   1.00
C21    C     0.52048   0.47556   0.76992   0.00000  Uiso   1.00
C22    C     0.57649   0.45589   0.81195   0.00000  Uiso   1.00
C23    C     0.58329   0.38642   0.80451   0.00000  Uiso   1.00
H24    H     0.37870   0.42296   0.64431   0.00000  Uiso   1.00
H25    H     0.17384   0.51643   0.71274   0.00000  Uiso   1.00
H26    H     0.50615   0.41806   0.52912   0.00000  Uiso   1.00
H27    H     0.44288   0.32095   0.67767   0.00000  Uiso   1.00
H28    H     0.96768   0.64125   0.80966   0.00000  Uiso   1.00
H29    H     0.66840   0.43381   0.42248   0.00000  Uiso   1.00
H30    H     0.53499   0.22902   0.73572   0.00000  Uiso   1.00
H31    H     0.54023   0.58612   0.80664   0.00000  Uiso   1.00
H32    H     0.34422   0.68854   0.88398   0.00000  Uiso   1.00
H33    H     0.67653   0.59017   0.70036   0.00000  Uiso   1.00
H34    H     0.61326   0.49306   0.84891   0.00000  Uiso   1.00
H35    H     0.10597   0.78094   0.94864   0.00000  Uiso   1.00
H36    H     0.80670   0.57350   0.56146   0.00000  Uiso   1.00
H37    H     0.67328   0.36871   0.87471   0.00000  Uiso   1.00
O38    O     0.90498   0.77554   0.92708   0.00000  Uiso   1.00
O39    O     0.82431   0.50338   0.41912   0.00000  Uiso   1.00
O40    O     0.64927   0.23470   0.83009   0.00000  Uiso   1.00
N41    N     0.02712   0.66006   0.83176   0.00000  Uiso   1.00
N42    N     0.68224   0.46613   0.46978   0.00000  Uiso   1.00
N43    N     0.55754   0.27466   0.76261   0.00000  Uiso   1.00
N44    N     0.10153   0.73523   0.90655   0.00000  Uiso   1.00
N45    N     0.75665   0.54130   0.54456   0.00000  Uiso   1.00
N46    N     0.63195   0.34982   0.83740   0.00000  Uiso   1.00
C47    C     0.09767   0.31679   0.77913   0.00000  Uiso   1.00
C48    C     0.06812   0.25602   0.79277   0.00000  Uiso   1.00
C49    C     0.96080   0.24600   0.80406   0.00000  Uiso   1.00
C50    C     0.95139   0.18715   0.81558   0.00000  Uiso   1.00
C51    C     0.89112   0.09999   0.83676   0.00000  Uiso   1.00
C52    C     0.14915   0.35782   0.83874   0.00000  Uiso   1.00
C53    C     0.10996   0.43338   0.88868   0.00000  Uiso   1.00
C54    C     0.16877   0.46022   0.93889   0.00000  Uiso   1.00
C55    C     0.23435   0.53110   0.03141   0.00000  Uiso   1.00
C56    C     0.19505   0.27713   0.70616   0.00000  Uiso   1.00
C57    C     0.19448   0.28486   0.64463   0.00000  Uiso   1.00
C58    C     0.29195   0.24378   0.58323   0.00000  Uiso   1.00
C59    C     0.42879   0.18937   0.46990   0.00000  Uiso   1.00
C60    C     0.27181   0.23011   0.77951   0.00000  Uiso   1.00
C61    C     0.16271   0.20895   0.79297   0.00000  Uiso   1.00
C62    C     0.15346   0.15010   0.80448   0.00000  Uiso   1.00
C63    C     0.04614   0.13998   0.81579   0.00000  Uiso   1.00
C64    C     0.24373   0.31074   0.83895   0.00000  Uiso   1.00
C65    C     0.30262   0.33748   0.88910   0.00000  Uiso   1.00
C66    C     0.26353   0.41306   0.93910   0.00000  Uiso   1.00
C67    C     0.28964   0.23004   0.70637   0.00000  Uiso   1.00
C68    C     0.38714   0.18895   0.64505   0.00000  Uiso   1.00
C69    C     0.38670   0.19661   0.58344   0.00000  Uiso   1.00
H70    H     0.02403   0.35344   0.77898   0.00000  Uiso   1.00
H71    H     0.88762   0.28245   0.80390   0.00000  Uiso   1.00
H72    H     0.03677   0.46980   0.88850   0.00000  Uiso   1.00
H73    H     0.12127   0.32129   0.64449   0.00000  Uiso   1.00
H74    H     0.77809   0.18299   0.83166   0.00000  Uiso   1.00
H75    H     0.09260   0.57803   0.01002   0.00000  Uiso   1.00
H76    H     0.27078   0.26489   0.49548   0.00000  Uiso   1.00
H77    H     0.34545   0.19345   0.77967   0.00000  Uiso   1.00
H78    H     0.22667   0.11367   0.80464   0.00000  Uiso   1.00
H79    H     0.37582   0.30103   0.88924   0.00000  Uiso   1.00
H80    H     0.46032   0.15252   0.64523   0.00000  Uiso   1.00
H81    H     0.05327   0.04601   0.83226   0.00000  Uiso   1.00
H82    H     0.36779   0.44105   0.01062   0.00000  Uiso   1.00
H83    H     0.54597   0.12791   0.49608   0.00000  Uiso   1.00
O84    O     0.83174   0.06492   0.84839   0.00000  Uiso   1.00
O85    O     0.24438   0.58320   0.08238   0.00000  Uiso   1.00
O86    O     0.47814   0.17236   0.40733   0.00000  Uiso   1.00
N87    N     0.85916   0.16169   0.82836   0.00000  Uiso   1.00
N88    N     0.15320   0.53103   0.99512   0.00000  Uiso   1.00
N89    N     0.31979   0.23828   0.51408   0.00000  Uiso   1.00
N90    N     0.00723   0.08798   0.82868   0.00000  Uiso   1.00
N91    N     0.30127   0.45732   0.99544   0.00000  Uiso   1.00
N92    N     0.46787   0.16457   0.51440   0.00000  Uiso   1.00
C93    C     0.87765   0.21922   0.53763   0.00000  Uiso   1.00
C94    C     0.86189   0.20542   0.46375   0.00000  Uiso   1.00
C95    C     0.76622   0.19282   0.44262   0.00000  Uiso   1.00
C96    C     0.76841   0.18137   0.37273   0.00000  Uiso   1.00
C97    C     0.72959   0.15973   0.26515   0.00000  Uiso   1.00
C98    C     0.98792   0.16042   0.51914   0.00000  Uiso   1.00
C99    C     0.99822   0.11001   0.54459   0.00000  Uiso   1.00
C100   C     0.10651   0.06069   0.52134   0.00000  Uiso   1.00
C101   C     0.26337   0.96922   0.49979   0.00000  Uiso   1.00
C102   C     0.90239   0.29324   0.57070   0.00000  Uiso   1.00
C103   C     0.84079   0.35448   0.63950   0.00000  Uiso   1.00
C104   C     0.87709   0.41698   0.65967   0.00000  Uiso   1.00
C105   C     0.90115   0.53172   0.71818   0.00000  Uiso   1.00
C106   C     0.05166   0.22129   0.45110   0.00000  Uiso   1.00
C107   C     0.95641   0.20654   0.41675   0.00000  Uiso   1.00
C108   C     0.95875   0.19511   0.34688   0.00000  Uiso   1.00
C109   C     0.86310   0.18250   0.32564   0.00000  Uiso   1.00
C110   C     0.08244   0.16154   0.47214   0.00000  Uiso   1.00
C111   C     0.19074   0.11229   0.44885   0.00000  Uiso   1.00
C112   C     0.20120   0.06181   0.47425   0.00000  Uiso   1.00
C113   C     0.99691   0.29436   0.52370   0.00000  Uiso   1.00
C114   C     0.03332   0.35677   0.54376   0.00000  Uiso   1.00
C115   C     0.97178   0.41810   0.61258   0.00000  Uiso   1.00
H116   H     0.80407   0.21835   0.57422   0.00000  Uiso   1.00
H117   H     0.69309   0.19195   0.47900   0.00000  Uiso   1.00
H118   H     0.92506   0.10916   0.58096   0.00000  Uiso   1.00
H119   H     0.76766   0.35360   0.67586   0.00000  Uiso   1.00
H120   H     0.61176   0.16316   0.35270   0.00000  Uiso   1.00
H121   H     0.10088   0.98859   0.56771   0.00000  Uiso   1.00
H122   H     0.76896   0.50404   0.76782   0.00000  Uiso   1.00
H123   H     0.12525   0.22216   0.41451   0.00000  Uiso   1.00
H124   H     0.03190   0.19598   0.31052   0.00000  Uiso   1.00
H125   H     0.26387   0.11318   0.41248   0.00000  Uiso   1.00
H126   H     0.10646   0.35761   0.50738   0.00000  Uiso   1.00
H127   H     0.88675   0.16642   0.21595   0.00000  Uiso   1.00
H128   H     0.37587   0.99185   0.43096   0.00000  Uiso   1.00
H129   H     0.04395   0.50730   0.63107   0.00000  Uiso   1.00
O130   O     0.68207   0.14747   0.21879   0.00000  Uiso   1.00
O131   O     0.32377   0.91846   0.50089   0.00000  Uiso   1.00
O132   O     0.88830   0.59471   0.76343   0.00000  Uiso   1.00
N133   N     0.68928   0.16753   0.33479   0.00000  Uiso   1.00
N134   N     0.14657   0.00432   0.53580   0.00000  Uiso   1.00
N135   N     0.83628   0.48621   0.72290   0.00000  Uiso   1.00
N136   N     0.83725   0.16929   0.26120   0.00000  Uiso   1.00
N137   N     0.29454   0.00607   0.46222   0.00000  Uiso   1.00
N138   N     0.98425   0.48796   0.64932   0.00000  Uiso   1.00
C139   C     0.58430   0.53966   0.31850   0.00000  Uiso   1.00
C140   C     0.67321   0.46625   0.25880   0.00000  Uiso   1.00
C141   C     0.78941   0.44640   0.25028   0.00000  Uiso   1.00
C142   C     0.85649   0.37674   0.19222   0.00000  Uiso   1.00
C143   C     0.00176   0.27005   0.10682   0.00000  Uiso   1.00
C144   C     0.49266   0.51969   0.35857   0.00000  Uiso   1.00
C145   C     0.45706   0.54478   0.43393   0.00000  Uiso   1.00
C146   C     0.37214   0.52011   0.45985   0.00000  Uiso   1.00
C147   C     0.23706   0.49643   0.52935   0.00000  Uiso   1.00
C148   C     0.52705   0.57245   0.27785   0.00000  Uiso   1.00
C149   C     0.52033   0.64191   0.28536   0.00000  Uiso   1.00
C150   C     0.46433   0.66168   0.24334   0.00000  Uiso   1.00
C151   C     0.38264   0.71992   0.18752   0.00000  Uiso   1.00
C152   C     0.49678   0.45126   0.23055   0.00000  Uiso   1.00
C153   C     0.62567   0.41824   0.21104   0.00000  Uiso   1.00
C154   C     0.69259   0.34860   0.15297   0.00000  Uiso   1.00
C155   C     0.80887   0.32865   0.14436   0.00000  Uiso   1.00
C156   C     0.44513   0.47168   0.31080   0.00000  Uiso   1.00
C157   C     0.36024   0.44698   0.33662   0.00000  Uiso   1.00
C158   C     0.32452   0.47202   0.41200   0.00000  Uiso   1.00
C159   C     0.47952   0.52444   0.23008   0.00000  Uiso   1.00
C160   C     0.42351   0.54411   0.18805   0.00000  Uiso   1.00
C161   C     0.41671   0.61358   0.19549   0.00000  Uiso   1.00
H162   H     0.62130   0.57704   0.35569   0.00000  Uiso   1.00
H163   H     0.82616   0.48357   0.28726   0.00000  Uiso   1.00
H164   H     0.49385   0.58194   0.47088   0.00000  Uiso   1.00
H165   H     0.55712   0.67905   0.32233   0.00000  Uiso   1.00
H166   H     0.03232   0.35875   0.19034   0.00000  Uiso   1.00
H167   H     0.33160   0.56619   0.57752   0.00000  Uiso   1.00
H168   H     0.46501   0.77098   0.26428   0.00000  Uiso   1.00
H169   H     0.45977   0.41388   0.19336   0.00000  Uiso   1.00
H170   H     0.65578   0.31146   0.11602   0.00000  Uiso   1.00
H171   H     0.32347   0.40983   0.29964   0.00000  Uiso   1.00
H172   H     0.38674   0.50694   0.15109   0.00000  Uiso   1.00
H173   H     0.89403   0.21906   0.05136   0.00000  Uiso   1.00
H174   H     0.19330   0.42650   0.43854   0.00000  Uiso   1.00
H175   H     0.32672   0.63129   0.12529   0.00000  Uiso   1.00
O176   O     0.09502   0.22446   0.07292   0.00000  Uiso   1.00
O177   O     0.17569   0.49662   0.58088   0.00000  Uiso   1.00
O178   O     0.35073   0.76530   0.16991   0.00000  Uiso   1.00
N179   N     0.97288   0.33994   0.16824   0.00000  Uiso   1.00
N180   N     0.31776   0.53387   0.53022   0.00000  Uiso   1.00
N181   N     0.44246   0.72534   0.23739   0.00000  Uiso   1.00
N182   N     0.89847   0.26477   0.09345   0.00000  Uiso   1.00
N183   N     0.24335   0.45870   0.45544   0.00000  Uiso   1.00
N184   N     0.36805   0.65018   0.16260   0.00000  Uiso   1.00
C185   C     0.90233   0.68321   0.22087   0.00000  Uiso   1.00
C186   C     0.93188   0.74398   0.20723   0.00000  Uiso   1.00
C187   C     0.03920   0.75400   0.19594   0.00000  Uiso   1.00
C188   C     0.04861   0.81285   0.18442   0.00000  Uiso   1.00
C189   C     0.10888   0.90001   0.16324   0.00000  Uiso   1.00
C190   C     0.85085   0.64218   0.16126   0.00000  Uiso   1.00
C191   C     0.89004   0.56662   0.11132   0.00000  Uiso   1.00
C192   C     0.83123   0.53978   0.06111   0.00000  Uiso   1.00
C193   C     0.76565   0.46890   0.96859   0.00000  Uiso   1.00
C194   C     0.80495   0.72287   0.29384   0.00000  Uiso   1.00
C195   C     0.80552   0.71514   0.35537   0.00000  Uiso   1.00
C196   C     0.70805   0.75622   0.41677   0.00000  Uiso   1.00
C197   C     0.57121   0.81063   0.53010   0.00000  Uiso   1.00
C198   C     0.72819   0.76989   0.22049   0.00000  Uiso   1.00
C199   C     0.83729   0.79106   0.20703   0.00000  Uiso   1.00
C200   C     0.84654   0.84990   0.19552   0.00000  Uiso   1.00
C201   C     0.95386   0.86002   0.18421   0.00000  Uiso   1.00
C202   C     0.75626   0.68926   0.16105   0.00000  Uiso   1.00
C203   C     0.69738   0.66252   0.11090   0.00000  Uiso   1.00
C204   C     0.73647   0.58694   0.06090   0.00000  Uiso   1.00
C205   C     0.71036   0.76996   0.29363   0.00000  Uiso   1.00
C206   C     0.61286   0.81105   0.35495   0.00000  Uiso   1.00
C207   C     0.61330   0.80339   0.41656   0.00000  Uiso   1.00
H208   H     0.97597   0.64656   0.22102   0.00000  Uiso   1.00
H209   H     0.11238   0.71755   0.19610   0.00000  Uiso   1.00
H210   H     0.96323   0.53020   0.11150   0.00000  Uiso   1.00
H211   H     0.87873   0.67871   0.35551   0.00000  Uiso   1.00
H212   H     0.22191   0.81701   0.16834   0.00000  Uiso   1.00
H213   H     0.90740   0.42197   0.98998   0.00000  Uiso   1.00
H214   H     0.72922   0.73511   0.50452   0.00000  Uiso   1.00
H215   H     0.65455   0.80655   0.22033   0.00000  Uiso   1.00
H216   H     0.77333   0.88633   0.19536   0.00000  Uiso   1.00
H217   H     0.62418   0.69897   0.11076   0.00000  Uiso   1.00
H218   H     0.53968   0.84748   0.35477   0.00000  Uiso   1.00
H219   H     0.94673   0.95399   0.16774   0.00000  Uiso   1.00
H220   H     0.63221   0.55895   0.98938   0.00000  Uiso   1.00
H221   H     0.45403   0.87209   0.50392   0.00000  Uiso   1.00
O222   O     0.16826   0.93508   0.15161   0.00000  Uiso   1.00
O223   O     0.75562   0.41680   0.91762   0.00000  Uiso   1.00
O224   O     0.52186   0.82764   0.59267   0.00000  Uiso   1.00
N225   N     0.14084   0.83831   0.17164   0.00000  Uiso   1.00
N226   N     0.84680   0.46897   0.00488   0.00000  Uiso   1.00
N227   N     0.68021   0.76172   0.48592   0.00000  Uiso   1.00
N228   N     0.99277   0.91202   0.17132   0.00000  Uiso   1.00
N229   N     0.69873   0.54268   0.00456   0.00000  Uiso   1.00
N230   N     0.53213   0.83543   0.48560   0.00000  Uiso   1.00
C231   C     0.12235   0.78078   0.46237   0.00000  Uiso   1.00
C232   C     0.13811   0.79458   0.53625   0.00000  Uiso   1.00
C233   C     0.23378   0.80718   0.55738   0.00000  Uiso   1.00
C234   C     0.23159   0.81863   0.62727   0.00000  Uiso   1.00
C235   C     0.27041   0.84027   0.73485   0.00000  Uiso   1.00
C236   C     0.01208   0.83958   0.48086   0.00000  Uiso   1.00
C237   C     0.00178   0.88999   0.45541   0.00000  Uiso   1.00
C238   C     0.89349   0.93931   0.47866   0.00000  Uiso   1.00
C239   C     0.73663   0.03078   0.50021   0.00000  Uiso   1.00
C240   C     0.09761   0.70676   0.42930   0.00000  Uiso   1.00
C241   C     0.15921   0.64552   0.36050   0.00000  Uiso   1.00
C242   C     0.12291   0.58302   0.34033   0.00000  Uiso   1.00
C243   C     0.09885   0.46828   0.28182   0.00000  Uiso   1.00
C244   C     0.94834   0.77871   0.54890   0.00000  Uiso   1.00
C245   C     0.04359   0.79346   0.58325   0.00000  Uiso   1.00
C246   C     0.04125   0.80489   0.65312   0.00000  Uiso   1.00
C247   C     0.13690   0.81750   0.67436   0.00000  Uiso   1.00
C248   C     0.91756   0.83846   0.52786   0.00000  Uiso   1.00
C249   C     0.80926   0.88771   0.55115   0.00000  Uiso   1.00
C250   C     0.79880   0.93819   0.52575   0.00000  Uiso   1.00
C251   C     0.00309   0.70564   0.47630   0.00000  Uiso   1.00
C252   C     0.96668   0.64323   0.45624   0.00000  Uiso   1.00
C253   C     0.02822   0.58190   0.38742   0.00000  Uiso   1.00
H254   H     0.19593   0.78165   0.42578   0.00000  Uiso   1.00
H255   H     0.30691   0.80805   0.52100   0.00000  Uiso   1.00
H256   H     0.07494   0.89084   0.41904   0.00000  Uiso   1.00
H257   H     0.23234   0.64640   0.32414   0.00000  Uiso   1.00
H258   H     0.38824   0.83684   0.64730   0.00000  Uiso   1.00
H259   H     0.89912   0.01141   0.43229   0.00000  Uiso   1.00
H260   H     0.23104   0.49596   0.23218   0.00000  Uiso   1.00
H261   H     0.87475   0.77784   0.58549   0.00000  Uiso   1.00
H262   H     0.96810   0.80402   0.68948   0.00000  Uiso   1.00
H263   H     0.73613   0.88683   0.58752   0.00000  Uiso   1.00
H264   H     0.89354   0.64239   0.49262   0.00000  Uiso   1.00
H265   H     0.11325   0.83358   0.78405   0.00000  Uiso   1.00
H266   H     0.62413   0.00815   0.56903   0.00000  Uiso   1.00
H267   H     0.95605   0.49270   0.36893   0.00000  Uiso   1.00
O268   O     0.31793   0.85253   0.78121   0.00000  Uiso   1.00
O269   O     0.67623   0.08154   0.49911   0.00000  Uiso   1.00
O270   O     0.11170   0.40529   0.23657   0.00000  Uiso   1.00
N271   N     0.31072   0.83247   0.66521   0.00000  Uiso   1.00
N272   N     0.85343   0.99568   0.46420   0.00000  Uiso   1.00
N273   N     0.16372   0.51379   0.27710   0.00000  Uiso   1.00
N274   N     0.16275   0.83071   0.73880   0.00000  Uiso   1.00
N275   N     0.70546   0.99393   0.53778   0.00000  Uiso   1.00
N276   N     0.01575   0.51204   0.35068   0.00000  Uiso   1.00
