data_job_03601
_audit_creation_date              2018-12-19
_audit_creation_method            'Materials Studio'
_symmetry_space_group_name_H-M    'P1'
_symmetry_Int_Tables_number       1
_symmetry_cell_setting            triclinic
loop_
_symmetry_equiv_pos_as_xyz
  x,y,z
_cell_length_a                    9.6966
_cell_length_b                    12.5012
_cell_length_c                    16.0205
_cell_angle_alpha                 111.5747
_cell_angle_beta                  78.8593
_cell_angle_gamma                 84.2506
loop_
_atom_site_label
_atom_site_type_symbol
_atom_site_fract_x
_atom_site_fract_y
_atom_site_fract_z
_atom_site_U_iso_or_equiv
_atom_site_adp_type
_atom_site_occupancy
C1     C     0.21186   0.95970   0.18706   0.00000  Uiso   1.00
C2     C     0.30154   0.88741   0.22307   0.00000  Uiso   1.00
C3     C     0.35268   0.76756   0.17979   0.00000  Uiso   1.00
C4     C     0.43270   0.71777   0.22391   0.00000  Uiso   1.00
C5     C     0.56765   0.59521   0.26701   0.00000  Uiso   1.00
C6     C     0.07572   0.02148   0.26400   0.00000  Uiso   1.00
C7     C     0.93700   0.01436   0.25512   0.00000  Uiso   1.00
C8     C     0.82692   0.07745   0.33369   0.00000  Uiso   1.00
C9     C     0.61129   0.16310   0.44032   0.00000  Uiso   1.00
C10    C     0.29338   0.05567   0.18056   0.00000  Uiso   1.00
C11    C     0.33764   0.07732   0.10152   0.00000  Uiso   1.00
C12    C     0.41080   0.16922   0.10984   0.00000  Uiso   1.00
C13    C     0.53312   0.30796   0.08691   0.00000  Uiso   1.00
C14    C     0.26303   0.08442   0.34238   0.00000  Uiso   1.00
C15    C     0.32932   0.95516   0.30744   0.00000  Uiso   1.00
C16    C     0.40929   0.90554   0.35163   0.00000  Uiso   1.00
C17    C     0.46055   0.78563   0.30842   0.00000  Uiso   1.00
C18    C     0.10350   0.08922   0.34836   0.00000  Uiso   1.00
C19    C     0.99361   0.15234   0.42696   0.00000  Uiso   1.00
C20    C     0.85476   0.14531   0.41821   0.00000  Uiso   1.00
C21    C     0.32118   0.12341   0.26492   0.00000  Uiso   1.00
C22    C     0.39426   0.21530   0.27337   0.00000  Uiso   1.00
C23    C     0.43864   0.23708   0.19436   0.00000  Uiso   1.00
H24    H     0.19022   0.90696   0.12138   0.00000  Uiso   1.00
H25    H     0.33114   0.71516   0.11450   0.00000  Uiso   1.00
H26    H     0.91553   0.96194   0.18982   0.00000  Uiso   1.00
H27    H     0.31612   0.02488   0.03625   0.00000  Uiso   1.00
H28    H     0.49959   0.53238   0.14410   0.00000  Uiso   1.00
H29    H     0.62324   0.05275   0.30290   0.00000  Uiso   1.00
H30    H     0.46797   0.18549   0.97906   0.00000  Uiso   1.00
H31    H     0.28466   0.13716   0.40807   0.00000  Uiso   1.00
H32    H     0.43078   0.95799   0.41692   0.00000  Uiso   1.00
H33    H     0.01515   0.20476   0.49224   0.00000  Uiso   1.00
H34    H     0.41575   0.26770   0.33866   0.00000  Uiso   1.00
H35    H     0.58045   0.72946   0.38955   0.00000  Uiso   1.00
H36    H     0.70410   0.24984   0.54835   0.00000  Uiso   1.00
H37    H     0.54883   0.38257   0.22451   0.00000  Uiso   1.00
O38    O     0.63440   0.50890   0.26749   0.00000  Uiso   1.00
O39    O     0.48466   0.19162   0.47583   0.00000  Uiso   1.00
O40    O     0.59292   0.36576   0.05095   0.00000  Uiso   1.00
N41    N     0.49859   0.60336   0.20064   0.00000  Uiso   1.00
N42    N     0.67926   0.08986   0.34912   0.00000  Uiso   1.00
N43    N     0.46897   0.21397   0.04636   0.00000  Uiso   1.00
N44    N     0.54211   0.70941   0.33272   0.00000  Uiso   1.00
N45    N     0.72277   0.19591   0.48119   0.00000  Uiso   1.00
N46    N     0.51249   0.32002   0.17843   0.00000  Uiso   1.00
C47    C     0.78814   0.04030   0.81294   0.00000  Uiso   1.00
C48    C     0.69846   0.11259   0.77693   0.00000  Uiso   1.00
C49    C     0.64732   0.23244   0.82021   0.00000  Uiso   1.00
C50    C     0.56730   0.28223   0.77609   0.00000  Uiso   1.00
C51    C     0.43235   0.40479   0.73299   0.00000  Uiso   1.00
C52    C     0.92428   0.97852   0.73600   0.00000  Uiso   1.00
C53    C     0.06300   0.98564   0.74488   0.00000  Uiso   1.00
C54    C     0.17308   0.92255   0.66631   0.00000  Uiso   1.00
C55    C     0.38871   0.83690   0.55968   0.00000  Uiso   1.00
C56    C     0.70662   0.94433   0.81944   0.00000  Uiso   1.00
C57    C     0.66236   0.92268   0.89848   0.00000  Uiso   1.00
C58    C     0.58920   0.83078   0.89016   0.00000  Uiso   1.00
C59    C     0.46688   0.69204   0.91309   0.00000  Uiso   1.00
C60    C     0.73697   0.91558   0.65762   0.00000  Uiso   1.00
C61    C     0.67068   0.04484   0.69256   0.00000  Uiso   1.00
C62    C     0.59071   0.09446   0.64837   0.00000  Uiso   1.00
C63    C     0.53945   0.21437   0.69158   0.00000  Uiso   1.00
C64    C     0.89650   0.91078   0.65164   0.00000  Uiso   1.00
C65    C     0.00639   0.84766   0.57304   0.00000  Uiso   1.00
C66    C     0.14524   0.85469   0.58179   0.00000  Uiso   1.00
C67    C     0.67882   0.87659   0.73508   0.00000  Uiso   1.00
C68    C     0.60574   0.78470   0.72663   0.00000  Uiso   1.00
C69    C     0.56136   0.76292   0.80564   0.00000  Uiso   1.00
H70    H     0.80978   0.09304   0.87862   0.00000  Uiso   1.00
H71    H     0.66886   0.28484   0.88550   0.00000  Uiso   1.00
H72    H     0.08447   0.03806   0.81018   0.00000  Uiso   1.00
H73    H     0.68388   0.97512   0.96375   0.00000  Uiso   1.00
H74    H     0.50041   0.46762   0.85590   0.00000  Uiso   1.00
H75    H     0.37676   0.94725   0.69710   0.00000  Uiso   1.00
H76    H     0.53203   0.81451   0.02094   0.00000  Uiso   1.00
H77    H     0.71534   0.86284   0.59193   0.00000  Uiso   1.00
H78    H     0.56922   0.04201   0.58308   0.00000  Uiso   1.00
H79    H     0.98485   0.79524   0.50776   0.00000  Uiso   1.00
H80    H     0.58425   0.73230   0.66134   0.00000  Uiso   1.00
H81    H     0.41955   0.27054   0.61045   0.00000  Uiso   1.00
H82    H     0.29590   0.75016   0.45165   0.00000  Uiso   1.00
H83    H     0.45117   0.61743   0.77549   0.00000  Uiso   1.00
O84    O     0.36560   0.49110   0.73251   0.00000  Uiso   1.00
O85    O     0.51534   0.80838   0.52417   0.00000  Uiso   1.00
O86    O     0.40708   0.63424   0.94905   0.00000  Uiso   1.00
N87    N     0.50141   0.39664   0.79936   0.00000  Uiso   1.00
N88    N     0.32074   0.91014   0.65088   0.00000  Uiso   1.00
N89    N     0.53103   0.78603   0.95364   0.00000  Uiso   1.00
N90    N     0.45789   0.29059   0.66728   0.00000  Uiso   1.00
N91    N     0.27723   0.80409   0.51881   0.00000  Uiso   1.00
N92    N     0.48751   0.67998   0.82157   0.00000  Uiso   1.00
