data_job_01998
_audit_creation_date              2018-12-19
_audit_creation_method            'Materials Studio'
_symmetry_space_group_name_H-M    'P1'
_symmetry_Int_Tables_number       1
_symmetry_cell_setting            triclinic
loop_
_symmetry_equiv_pos_as_xyz
  x,y,z
_cell_length_a                    31.5217
_cell_length_b                    10.9971
_cell_length_c                    22.6266
_cell_angle_alpha                 90.0000
_cell_angle_beta                  90.0000
_cell_angle_gamma                 90.0000
loop_
_atom_site_label
_atom_site_type_symbol
_atom_site_fract_x
_atom_site_fract_y
_atom_site_fract_z
_atom_site_U_iso_or_equiv
_atom_site_adp_type
_atom_site_occupancy
C1     C     0.89061   0.94288   0.59133   0.00000  Uiso   1.00
C2     C     0.85468   0.92856   0.54674   0.00000  Uiso   1.00
C3     C     0.84704   0.82648   0.51229   0.00000  Uiso   1.00
C4     C     0.81257   0.83131   0.47416   0.00000  Uiso   1.00
C5     C     0.76073   0.79339   0.40543   0.00000  Uiso   1.00
C6     C     0.91497   0.05642   0.57276   0.00000  Uiso   1.00
C7     C     0.95802   0.06184   0.56019   0.00000  Uiso   1.00
C8     C     0.97430   0.17432   0.54398   0.00000  Uiso   1.00
C9     C     0.01607   0.33492   0.51569   0.00000  Uiso   1.00
C10    C     0.86953   0.97395   0.65008   0.00000  Uiso   1.00
C11    C     0.87439   0.91004   0.70253   0.00000  Uiso   1.00
C12    C     0.85241   0.95310   0.75143   0.00000  Uiso   1.00
C13    C     0.82363   0.98565   0.84319   0.00000  Uiso   1.00
C14    C     0.84297   0.13300   0.58489   0.00000  Uiso   1.00
C15    C     0.82881   0.03183   0.54324   0.00000  Uiso   1.00
C16    C     0.79433   0.03682   0.50516   0.00000  Uiso   1.00
C17    C     0.78665   0.93476   0.47066   0.00000  Uiso   1.00
C18    C     0.88910   0.15969   0.56926   0.00000  Uiso   1.00
C19    C     0.90532   0.27218   0.55307   0.00000  Uiso   1.00
C20    C     0.94838   0.27777   0.54048   0.00000  Uiso   1.00
C21    C     0.84365   0.07721   0.64658   0.00000  Uiso   1.00
C22    C     0.82167   0.12038   0.69541   0.00000  Uiso   1.00
C23    C     0.82649   0.05655   0.74793   0.00000  Uiso   1.00
H24    H     0.91076   0.86249   0.59405   0.00000  Uiso   1.00
H25    H     0.86708   0.74658   0.51500   0.00000  Uiso   1.00
H26    H     0.97804   0.98192   0.56291   0.00000  Uiso   1.00
H27    H     0.89441   0.83014   0.70522   0.00000  Uiso   1.00
H28    H     0.80725   0.66364   0.42580   0.00000  Uiso   1.00
H29    H     0.04123   0.15985   0.52683   0.00000  Uiso   1.00
H30    H     0.86488   0.83980   0.82694   0.00000  Uiso   1.00
H31    H     0.82282   0.21340   0.58217   0.00000  Uiso   1.00
H32    H     0.77431   0.11674   0.50247   0.00000  Uiso   1.00
H33    H     0.88528   0.35208   0.55037   0.00000  Uiso   1.00
H34    H     0.80165   0.20030   0.69269   0.00000  Uiso   1.00
H35    H     0.73196   0.96407   0.41563   0.00000  Uiso   1.00
H36    H     0.96594   0.46029   0.51666   0.00000  Uiso   1.00
H37    H     0.78959   0.14024   0.81676   0.00000  Uiso   1.00
O38    O     0.73929   0.74396   0.36848   0.00000  Uiso   1.00
O39    O     0.04626   0.39497   0.50105   0.00000  Uiso   1.00
O40    O     0.81490   0.97507   0.89477   0.00000  Uiso   1.00
N41    N     0.79618   0.74760   0.43435   0.00000  Uiso   1.00
N42    N     0.01493   0.21153   0.52880   0.00000  Uiso   1.00
N43    N     0.85007   0.91232   0.80938   0.00000  Uiso   1.00
N44    N     0.75567   0.90926   0.42888   0.00000  Uiso   1.00
N45    N     0.97442   0.37319   0.52333   0.00000  Uiso   1.00
N46    N     0.80956   0.07399   0.80390   0.00000  Uiso   1.00
C47    C     0.60939   0.05712   0.09133   0.00000  Uiso   1.00
C48    C     0.64532   0.07144   0.04674   0.00000  Uiso   1.00
C49    C     0.65296   0.17352   0.01229   0.00000  Uiso   1.00
C50    C     0.68743   0.16869   0.97416   0.00000  Uiso   1.00
C51    C     0.73927   0.20661   0.90543   0.00000  Uiso   1.00
C52    C     0.58503   0.94358   0.07276   0.00000  Uiso   1.00
C53    C     0.54198   0.93816   0.06019   0.00000  Uiso   1.00
C54    C     0.52570   0.82568   0.04398   0.00000  Uiso   1.00
C55    C     0.48393   0.66508   0.01569   0.00000  Uiso   1.00
C56    C     0.63047   0.02605   0.15008   0.00000  Uiso   1.00
C57    C     0.62561   0.08996   0.20253   0.00000  Uiso   1.00
C58    C     0.64759   0.04690   0.25143   0.00000  Uiso   1.00
C59    C     0.67637   0.01435   0.34319   0.00000  Uiso   1.00
C60    C     0.65703   0.86700   0.08489   0.00000  Uiso   1.00
C61    C     0.67119   0.96817   0.04324   0.00000  Uiso   1.00
C62    C     0.70567   0.96318   0.00516   0.00000  Uiso   1.00
C63    C     0.71335   0.06524   0.97066   0.00000  Uiso   1.00
C64    C     0.61090   0.84031   0.06926   0.00000  Uiso   1.00
C65    C     0.59468   0.72782   0.05307   0.00000  Uiso   1.00
C66    C     0.55162   0.72223   0.04048   0.00000  Uiso   1.00
C67    C     0.65635   0.92279   0.14658   0.00000  Uiso   1.00
C68    C     0.67833   0.87962   0.19541   0.00000  Uiso   1.00
C69    C     0.67351   0.94345   0.24793   0.00000  Uiso   1.00
H70    H     0.58924   0.13751   0.09405   0.00000  Uiso   1.00
H71    H     0.63292   0.25342   0.01500   0.00000  Uiso   1.00
H72    H     0.52196   0.01808   0.06291   0.00000  Uiso   1.00
H73    H     0.60559   0.16986   0.20522   0.00000  Uiso   1.00
H74    H     0.69275   0.33636   0.92580   0.00000  Uiso   1.00
H75    H     0.45877   0.84015   0.02683   0.00000  Uiso   1.00
H76    H     0.63512   0.16020   0.32694   0.00000  Uiso   1.00
H77    H     0.67718   0.78660   0.08217   0.00000  Uiso   1.00
H78    H     0.72569   0.88326   0.00247   0.00000  Uiso   1.00
H79    H     0.61472   0.64792   0.05037   0.00000  Uiso   1.00
H80    H     0.69835   0.79970   0.19269   0.00000  Uiso   1.00
H81    H     0.76804   0.03593   0.91563   0.00000  Uiso   1.00
H82    H     0.53406   0.53971   0.01666   0.00000  Uiso   1.00
H83    H     0.71041   0.85976   0.31676   0.00000  Uiso   1.00
O84    O     0.76071   0.25604   0.86848   0.00000  Uiso   1.00
O85    O     0.45374   0.60503   0.00105   0.00000  Uiso   1.00
O86    O     0.68510   0.02493   0.39477   0.00000  Uiso   1.00
N87    N     0.70382   0.25240   0.93435   0.00000  Uiso   1.00
N88    N     0.48507   0.78847   0.02880   0.00000  Uiso   1.00
N89    N     0.64993   0.08768   0.30938   0.00000  Uiso   1.00
N90    N     0.74433   0.09074   0.92888   0.00000  Uiso   1.00
N91    N     0.52558   0.62681   0.02333   0.00000  Uiso   1.00
N92    N     0.69044   0.92601   0.30390   0.00000  Uiso   1.00
C93    C     0.10939   0.44288   0.90867   0.00000  Uiso   1.00
C94    C     0.14532   0.42856   0.95326   0.00000  Uiso   1.00
C95    C     0.15296   0.32648   0.98771   0.00000  Uiso   1.00
C96    C     0.18743   0.33131   0.02584   0.00000  Uiso   1.00
C97    C     0.23927   0.29339   0.09457   0.00000  Uiso   1.00
C98    C     0.08503   0.55642   0.92724   0.00000  Uiso   1.00
C99    C     0.04198   0.56184   0.93981   0.00000  Uiso   1.00
C100   C     0.02570   0.67432   0.95602   0.00000  Uiso   1.00
C101   C     0.98393   0.83492   0.98431   0.00000  Uiso   1.00
C102   C     0.13047   0.47395   0.84992   0.00000  Uiso   1.00
C103   C     0.12561   0.41004   0.79747   0.00000  Uiso   1.00
C104   C     0.14759   0.45310   0.74857   0.00000  Uiso   1.00
C105   C     0.17637   0.48565   0.65681   0.00000  Uiso   1.00
C106   C     0.15703   0.63300   0.91511   0.00000  Uiso   1.00
C107   C     0.17119   0.53183   0.95676   0.00000  Uiso   1.00
C108   C     0.20567   0.53682   0.99484   0.00000  Uiso   1.00
C109   C     0.21335   0.43476   0.02934   0.00000  Uiso   1.00
C110   C     0.11090   0.65969   0.93074   0.00000  Uiso   1.00
C111   C     0.09468   0.77218   0.94693   0.00000  Uiso   1.00
C112   C     0.05162   0.77777   0.95952   0.00000  Uiso   1.00
C113   C     0.15635   0.57721   0.85342   0.00000  Uiso   1.00
C114   C     0.17833   0.62038   0.80459   0.00000  Uiso   1.00
C115   C     0.17351   0.55655   0.75207   0.00000  Uiso   1.00
H116   H     0.08924   0.36249   0.90595   0.00000  Uiso   1.00
H117   H     0.13292   0.24658   0.98500   0.00000  Uiso   1.00
H118   H     0.02196   0.48192   0.93709   0.00000  Uiso   1.00
H119   H     0.10559   0.33014   0.79478   0.00000  Uiso   1.00
H120   H     0.19275   0.16364   0.07420   0.00000  Uiso   1.00
H121   H     0.95877   0.65985   0.97317   0.00000  Uiso   1.00
H122   H     0.13512   0.33980   0.67306   0.00000  Uiso   1.00
H123   H     0.17718   0.71340   0.91783   0.00000  Uiso   1.00
H124   H     0.22569   0.61674   0.99753   0.00000  Uiso   1.00
H125   H     0.11472   0.85208   0.94963   0.00000  Uiso   1.00
H126   H     0.19835   0.70030   0.80731   0.00000  Uiso   1.00
H127   H     0.26804   0.46407   0.08437   0.00000  Uiso   1.00
H128   H     0.03406   0.96029   0.98334   0.00000  Uiso   1.00
H129   H     0.21041   0.64024   0.68324   0.00000  Uiso   1.00
O130   O     0.26071   0.24396   0.13152   0.00000  Uiso   1.00
O131   O     0.95374   0.89497   0.99895   0.00000  Uiso   1.00
O132   O     0.18510   0.47507   0.60523   0.00000  Uiso   1.00
N133   N     0.20382   0.24760   0.06565   0.00000  Uiso   1.00
N134   N     0.98507   0.71153   0.97120   0.00000  Uiso   1.00
N135   N     0.14993   0.41232   0.69062   0.00000  Uiso   1.00
N136   N     0.24433   0.40926   0.07112   0.00000  Uiso   1.00
N137   N     0.02558   0.87319   0.97667   0.00000  Uiso   1.00
N138   N     0.19044   0.57399   0.69610   0.00000  Uiso   1.00
C139   C     0.39061   0.55712   0.40867   0.00000  Uiso   1.00
C140   C     0.35468   0.57144   0.45326   0.00000  Uiso   1.00
C141   C     0.34704   0.67352   0.48771   0.00000  Uiso   1.00
C142   C     0.31257   0.66869   0.52584   0.00000  Uiso   1.00
C143   C     0.26073   0.70661   0.59457   0.00000  Uiso   1.00
C144   C     0.41497   0.44358   0.42724   0.00000  Uiso   1.00
C145   C     0.45802   0.43816   0.43981   0.00000  Uiso   1.00
C146   C     0.47430   0.32568   0.45602   0.00000  Uiso   1.00
C147   C     0.51607   0.16508   0.48431   0.00000  Uiso   1.00
C148   C     0.36953   0.52605   0.34992   0.00000  Uiso   1.00
C149   C     0.37439   0.58996   0.29747   0.00000  Uiso   1.00
C150   C     0.35241   0.54690   0.24857   0.00000  Uiso   1.00
C151   C     0.32363   0.51435   0.15681   0.00000  Uiso   1.00
C152   C     0.34297   0.36700   0.41511   0.00000  Uiso   1.00
C153   C     0.32881   0.46817   0.45676   0.00000  Uiso   1.00
C154   C     0.29433   0.46318   0.49484   0.00000  Uiso   1.00
C155   C     0.28665   0.56524   0.52934   0.00000  Uiso   1.00
C156   C     0.38910   0.34031   0.43074   0.00000  Uiso   1.00
C157   C     0.40532   0.22782   0.44693   0.00000  Uiso   1.00
C158   C     0.44838   0.22223   0.45952   0.00000  Uiso   1.00
C159   C     0.34365   0.42279   0.35342   0.00000  Uiso   1.00
C160   C     0.32167   0.37962   0.30459   0.00000  Uiso   1.00
C161   C     0.32649   0.44345   0.25207   0.00000  Uiso   1.00
H162   H     0.41076   0.63751   0.40595   0.00000  Uiso   1.00
H163   H     0.36708   0.75342   0.48500   0.00000  Uiso   1.00
H164   H     0.47804   0.51808   0.43709   0.00000  Uiso   1.00
H165   H     0.39441   0.66986   0.29478   0.00000  Uiso   1.00
H166   H     0.30725   0.83636   0.57420   0.00000  Uiso   1.00
H167   H     0.54123   0.34015   0.47317   0.00000  Uiso   1.00
H168   H     0.36488   0.66020   0.17306   0.00000  Uiso   1.00
H169   H     0.32282   0.28660   0.41783   0.00000  Uiso   1.00
H170   H     0.27431   0.38326   0.49753   0.00000  Uiso   1.00
H171   H     0.38528   0.14792   0.44963   0.00000  Uiso   1.00
H172   H     0.30165   0.29970   0.30731   0.00000  Uiso   1.00
H173   H     0.23196   0.53593   0.58437   0.00000  Uiso   1.00
H174   H     0.46594   0.03971   0.48334   0.00000  Uiso   1.00
H175   H     0.28959   0.35976   0.18324   0.00000  Uiso   1.00
O176   O     0.23929   0.75604   0.63152   0.00000  Uiso   1.00
O177   O     0.54626   0.10503   0.49895   0.00000  Uiso   1.00
O178   O     0.31490   0.52493   0.10523   0.00000  Uiso   1.00
N179   N     0.29618   0.75240   0.56565   0.00000  Uiso   1.00
N180   N     0.51493   0.28847   0.47120   0.00000  Uiso   1.00
N181   N     0.35007   0.58768   0.19062   0.00000  Uiso   1.00
N182   N     0.25567   0.59074   0.57112   0.00000  Uiso   1.00
N183   N     0.47442   0.12681   0.47667   0.00000  Uiso   1.00
N184   N     0.30956   0.42601   0.19610   0.00000  Uiso   1.00
C185   C     0.10939   0.05712   0.40867   0.00000  Uiso   1.00
C186   C     0.14532   0.07144   0.45326   0.00000  Uiso   1.00
C187   C     0.15296   0.17352   0.48771   0.00000  Uiso   1.00
C188   C     0.18743   0.16869   0.52584   0.00000  Uiso   1.00
C189   C     0.23927   0.20661   0.59457   0.00000  Uiso   1.00
C190   C     0.08503   0.94358   0.42724   0.00000  Uiso   1.00
C191   C     0.04198   0.93816   0.43981   0.00000  Uiso   1.00
C192   C     0.02570   0.82568   0.45602   0.00000  Uiso   1.00
C193   C     0.98393   0.66508   0.48431   0.00000  Uiso   1.00
C194   C     0.13047   0.02605   0.34992   0.00000  Uiso   1.00
C195   C     0.12561   0.08996   0.29747   0.00000  Uiso   1.00
C196   C     0.14759   0.04690   0.24857   0.00000  Uiso   1.00
C197   C     0.17637   0.01435   0.15681   0.00000  Uiso   1.00
C198   C     0.15703   0.86700   0.41511   0.00000  Uiso   1.00
C199   C     0.17119   0.96817   0.45676   0.00000  Uiso   1.00
C200   C     0.20567   0.96318   0.49484   0.00000  Uiso   1.00
C201   C     0.21335   0.06524   0.52934   0.00000  Uiso   1.00
C202   C     0.11090   0.84031   0.43074   0.00000  Uiso   1.00
C203   C     0.09468   0.72782   0.44693   0.00000  Uiso   1.00
C204   C     0.05162   0.72223   0.45952   0.00000  Uiso   1.00
C205   C     0.15635   0.92279   0.35342   0.00000  Uiso   1.00
C206   C     0.17833   0.87962   0.30459   0.00000  Uiso   1.00
C207   C     0.17351   0.94345   0.25207   0.00000  Uiso   1.00
H208   H     0.08924   0.13751   0.40595   0.00000  Uiso   1.00
H209   H     0.13292   0.25342   0.48500   0.00000  Uiso   1.00
H210   H     0.02196   0.01808   0.43709   0.00000  Uiso   1.00
H211   H     0.10559   0.16986   0.29478   0.00000  Uiso   1.00
H212   H     0.19275   0.33636   0.57420   0.00000  Uiso   1.00
H213   H     0.95877   0.84015   0.47317   0.00000  Uiso   1.00
H214   H     0.13512   0.16020   0.17306   0.00000  Uiso   1.00
H215   H     0.17718   0.78660   0.41783   0.00000  Uiso   1.00
H216   H     0.22569   0.88326   0.49753   0.00000  Uiso   1.00
H217   H     0.11472   0.64792   0.44963   0.00000  Uiso   1.00
H218   H     0.19835   0.79970   0.30731   0.00000  Uiso   1.00
H219   H     0.26804   0.03593   0.58437   0.00000  Uiso   1.00
H220   H     0.03406   0.53971   0.48334   0.00000  Uiso   1.00
H221   H     0.21041   0.85976   0.18324   0.00000  Uiso   1.00
O222   O     0.26071   0.25604   0.63152   0.00000  Uiso   1.00
O223   O     0.95374   0.60503   0.49895   0.00000  Uiso   1.00
O224   O     0.18510   0.02493   0.10523   0.00000  Uiso   1.00
N225   N     0.20382   0.25240   0.56565   0.00000  Uiso   1.00
N226   N     0.98507   0.78847   0.47120   0.00000  Uiso   1.00
N227   N     0.14993   0.08768   0.19062   0.00000  Uiso   1.00
N228   N     0.24433   0.09074   0.57112   0.00000  Uiso   1.00
N229   N     0.02558   0.62681   0.47667   0.00000  Uiso   1.00
N230   N     0.19044   0.92601   0.19610   0.00000  Uiso   1.00
C231   C     0.39061   0.94288   0.90867   0.00000  Uiso   1.00
C232   C     0.35468   0.92856   0.95326   0.00000  Uiso   1.00
C233   C     0.34704   0.82648   0.98771   0.00000  Uiso   1.00
C234   C     0.31257   0.83131   0.02584   0.00000  Uiso   1.00
C235   C     0.26073   0.79339   0.09457   0.00000  Uiso   1.00
C236   C     0.41497   0.05642   0.92724   0.00000  Uiso   1.00
C237   C     0.45802   0.06184   0.93981   0.00000  Uiso   1.00
C238   C     0.47430   0.17432   0.95602   0.00000  Uiso   1.00
C239   C     0.51607   0.33492   0.98431   0.00000  Uiso   1.00
C240   C     0.36953   0.97395   0.84992   0.00000  Uiso   1.00
C241   C     0.37439   0.91004   0.79747   0.00000  Uiso   1.00
C242   C     0.35241   0.95310   0.74857   0.00000  Uiso   1.00
C243   C     0.32363   0.98565   0.65681   0.00000  Uiso   1.00
C244   C     0.34297   0.13300   0.91511   0.00000  Uiso   1.00
C245   C     0.32881   0.03183   0.95676   0.00000  Uiso   1.00
C246   C     0.29433   0.03682   0.99484   0.00000  Uiso   1.00
C247   C     0.28665   0.93476   0.02934   0.00000  Uiso   1.00
C248   C     0.38910   0.15969   0.93074   0.00000  Uiso   1.00
C249   C     0.40532   0.27218   0.94693   0.00000  Uiso   1.00
C250   C     0.44838   0.27777   0.95952   0.00000  Uiso   1.00
C251   C     0.34365   0.07721   0.85342   0.00000  Uiso   1.00
C252   C     0.32167   0.12038   0.80459   0.00000  Uiso   1.00
C253   C     0.32649   0.05655   0.75207   0.00000  Uiso   1.00
H254   H     0.41076   0.86249   0.90595   0.00000  Uiso   1.00
H255   H     0.36708   0.74658   0.98500   0.00000  Uiso   1.00
H256   H     0.47804   0.98192   0.93709   0.00000  Uiso   1.00
H257   H     0.39441   0.83014   0.79478   0.00000  Uiso   1.00
H258   H     0.30725   0.66364   0.07420   0.00000  Uiso   1.00
H259   H     0.54123   0.15985   0.97317   0.00000  Uiso   1.00
H260   H     0.36488   0.83980   0.67306   0.00000  Uiso   1.00
H261   H     0.32282   0.21340   0.91783   0.00000  Uiso   1.00
H262   H     0.27431   0.11674   0.99753   0.00000  Uiso   1.00
H263   H     0.38528   0.35208   0.94963   0.00000  Uiso   1.00
H264   H     0.30165   0.20030   0.80731   0.00000  Uiso   1.00
H265   H     0.23196   0.96407   0.08437   0.00000  Uiso   1.00
H266   H     0.46594   0.46029   0.98334   0.00000  Uiso   1.00
H267   H     0.28959   0.14024   0.68324   0.00000  Uiso   1.00
O268   O     0.23929   0.74396   0.13152   0.00000  Uiso   1.00
O269   O     0.54626   0.39497   0.99895   0.00000  Uiso   1.00
O270   O     0.31490   0.97507   0.60523   0.00000  Uiso   1.00
N271   N     0.29618   0.74760   0.06565   0.00000  Uiso   1.00
N272   N     0.51493   0.21153   0.97120   0.00000  Uiso   1.00
N273   N     0.35007   0.91232   0.69062   0.00000  Uiso   1.00
N274   N     0.25567   0.90926   0.07112   0.00000  Uiso   1.00
N275   N     0.47442   0.37319   0.97667   0.00000  Uiso   1.00
N276   N     0.30956   0.07399   0.69610   0.00000  Uiso   1.00
C277   C     0.89061   0.55712   0.09133   0.00000  Uiso   1.00
C278   C     0.85468   0.57144   0.04674   0.00000  Uiso   1.00
C279   C     0.84704   0.67352   0.01229   0.00000  Uiso   1.00
C280   C     0.81257   0.66869   0.97416   0.00000  Uiso   1.00
C281   C     0.76073   0.70661   0.90543   0.00000  Uiso   1.00
C282   C     0.91497   0.44358   0.07276   0.00000  Uiso   1.00
C283   C     0.95802   0.43816   0.06019   0.00000  Uiso   1.00
C284   C     0.97430   0.32568   0.04398   0.00000  Uiso   1.00
C285   C     0.01607   0.16508   0.01569   0.00000  Uiso   1.00
C286   C     0.86953   0.52605   0.15008   0.00000  Uiso   1.00
C287   C     0.87439   0.58996   0.20253   0.00000  Uiso   1.00
C288   C     0.85241   0.54690   0.25143   0.00000  Uiso   1.00
C289   C     0.82363   0.51435   0.34319   0.00000  Uiso   1.00
C290   C     0.84297   0.36700   0.08489   0.00000  Uiso   1.00
C291   C     0.82881   0.46817   0.04324   0.00000  Uiso   1.00
C292   C     0.79433   0.46318   0.00516   0.00000  Uiso   1.00
C293   C     0.78665   0.56524   0.97066   0.00000  Uiso   1.00
C294   C     0.88910   0.34031   0.06926   0.00000  Uiso   1.00
C295   C     0.90532   0.22782   0.05307   0.00000  Uiso   1.00
C296   C     0.94838   0.22223   0.04048   0.00000  Uiso   1.00
C297   C     0.84365   0.42279   0.14658   0.00000  Uiso   1.00
C298   C     0.82167   0.37962   0.19541   0.00000  Uiso   1.00
C299   C     0.82649   0.44345   0.24793   0.00000  Uiso   1.00
H300   H     0.91076   0.63751   0.09405   0.00000  Uiso   1.00
H301   H     0.86708   0.75342   0.01500   0.00000  Uiso   1.00
H302   H     0.97804   0.51808   0.06291   0.00000  Uiso   1.00
H303   H     0.89441   0.66986   0.20522   0.00000  Uiso   1.00
H304   H     0.80725   0.83636   0.92580   0.00000  Uiso   1.00
H305   H     0.04123   0.34015   0.02683   0.00000  Uiso   1.00
H306   H     0.86488   0.66020   0.32694   0.00000  Uiso   1.00
H307   H     0.82282   0.28660   0.08217   0.00000  Uiso   1.00
H308   H     0.77431   0.38326   0.00247   0.00000  Uiso   1.00
H309   H     0.88528   0.14792   0.05037   0.00000  Uiso   1.00
H310   H     0.80165   0.29970   0.19269   0.00000  Uiso   1.00
H311   H     0.73196   0.53593   0.91563   0.00000  Uiso   1.00
H312   H     0.96594   0.03971   0.01666   0.00000  Uiso   1.00
H313   H     0.78959   0.35976   0.31676   0.00000  Uiso   1.00
O314   O     0.73929   0.75604   0.86848   0.00000  Uiso   1.00
O315   O     0.04626   0.10503   0.00105   0.00000  Uiso   1.00
O316   O     0.81490   0.52493   0.39477   0.00000  Uiso   1.00
N317   N     0.79618   0.75240   0.93435   0.00000  Uiso   1.00
N318   N     0.01493   0.28847   0.02880   0.00000  Uiso   1.00
N319   N     0.85007   0.58768   0.30938   0.00000  Uiso   1.00
N320   N     0.75567   0.59074   0.92888   0.00000  Uiso   1.00
N321   N     0.97442   0.12681   0.02333   0.00000  Uiso   1.00
N322   N     0.80956   0.42601   0.30390   0.00000  Uiso   1.00
C323   C     0.60939   0.44288   0.59133   0.00000  Uiso   1.00
C324   C     0.64532   0.42856   0.54674   0.00000  Uiso   1.00
C325   C     0.65296   0.32648   0.51229   0.00000  Uiso   1.00
C326   C     0.68743   0.33131   0.47416   0.00000  Uiso   1.00
C327   C     0.73927   0.29339   0.40543   0.00000  Uiso   1.00
C328   C     0.58503   0.55642   0.57276   0.00000  Uiso   1.00
C329   C     0.54198   0.56184   0.56019   0.00000  Uiso   1.00
C330   C     0.52570   0.67432   0.54398   0.00000  Uiso   1.00
C331   C     0.48393   0.83492   0.51569   0.00000  Uiso   1.00
C332   C     0.63047   0.47395   0.65008   0.00000  Uiso   1.00
C333   C     0.62561   0.41004   0.70253   0.00000  Uiso   1.00
C334   C     0.64759   0.45310   0.75143   0.00000  Uiso   1.00
C335   C     0.67637   0.48565   0.84319   0.00000  Uiso   1.00
C336   C     0.65703   0.63300   0.58489   0.00000  Uiso   1.00
C337   C     0.67119   0.53183   0.54324   0.00000  Uiso   1.00
C338   C     0.70567   0.53682   0.50516   0.00000  Uiso   1.00
C339   C     0.71335   0.43476   0.47066   0.00000  Uiso   1.00
C340   C     0.61090   0.65969   0.56926   0.00000  Uiso   1.00
C341   C     0.59468   0.77218   0.55307   0.00000  Uiso   1.00
C342   C     0.55162   0.77777   0.54048   0.00000  Uiso   1.00
C343   C     0.65635   0.57721   0.64658   0.00000  Uiso   1.00
C344   C     0.67833   0.62038   0.69541   0.00000  Uiso   1.00
C345   C     0.67351   0.55655   0.74793   0.00000  Uiso   1.00
H346   H     0.58924   0.36249   0.59405   0.00000  Uiso   1.00
H347   H     0.63292   0.24658   0.51500   0.00000  Uiso   1.00
H348   H     0.52196   0.48192   0.56291   0.00000  Uiso   1.00
H349   H     0.60559   0.33014   0.70522   0.00000  Uiso   1.00
H350   H     0.69275   0.16364   0.42580   0.00000  Uiso   1.00
H351   H     0.45877   0.65985   0.52683   0.00000  Uiso   1.00
H352   H     0.63512   0.33980   0.82694   0.00000  Uiso   1.00
H353   H     0.67718   0.71340   0.58217   0.00000  Uiso   1.00
H354   H     0.72569   0.61674   0.50247   0.00000  Uiso   1.00
H355   H     0.61472   0.85208   0.55037   0.00000  Uiso   1.00
H356   H     0.69835   0.70030   0.69269   0.00000  Uiso   1.00
H357   H     0.76804   0.46407   0.41563   0.00000  Uiso   1.00
H358   H     0.53406   0.96029   0.51666   0.00000  Uiso   1.00
H359   H     0.71041   0.64024   0.81676   0.00000  Uiso   1.00
O360   O     0.76071   0.24396   0.36848   0.00000  Uiso   1.00
O361   O     0.45374   0.89497   0.50105   0.00000  Uiso   1.00
O362   O     0.68510   0.47507   0.89477   0.00000  Uiso   1.00
N363   N     0.70382   0.24760   0.43435   0.00000  Uiso   1.00
N364   N     0.48507   0.71153   0.52880   0.00000  Uiso   1.00
N365   N     0.64993   0.41232   0.80938   0.00000  Uiso   1.00
N366   N     0.74433   0.40926   0.42888   0.00000  Uiso   1.00
N367   N     0.52558   0.87319   0.52333   0.00000  Uiso   1.00
N368   N     0.69044   0.57399   0.80390   0.00000  Uiso   1.00
