data_job_06165
_audit_creation_date              2018-12-19
_audit_creation_method            'Materials Studio'
_symmetry_space_group_name_H-M    'P1'
_symmetry_Int_Tables_number       1
_symmetry_cell_setting            triclinic
loop_
_symmetry_equiv_pos_as_xyz
  x,y,z
_cell_length_a                    8.2959
_cell_length_b                    22.3053
_cell_length_c                    23.3529
_cell_angle_alpha                 117.1802
_cell_angle_beta                  99.5844
_cell_angle_gamma                 92.7089
loop_
_atom_site_label
_atom_site_type_symbol
_atom_site_fract_x
_atom_site_fract_y
_atom_site_fract_z
_atom_site_U_iso_or_equiv
_atom_site_adp_type
_atom_site_occupancy
C1     C     0.11392   0.61408   0.84414   0.00000  Uiso   1.00
C2     C     0.23248   0.60490   0.89601   0.00000  Uiso   1.00
C3     C     0.18895   0.59341   0.94539   0.00000  Uiso   1.00
C4     C     0.31562   0.58640   0.98797   0.00000  Uiso   1.00
C5     C     0.47475   0.57151   0.06953   0.00000  Uiso   1.00
C6     C     0.17758   0.68256   0.85047   0.00000  Uiso   1.00
C7     C     0.08786   0.73637   0.86156   0.00000  Uiso   1.00
C8     C     0.16831   0.79473   0.86580   0.00000  Uiso   1.00
C9     C     0.24215   0.90040   0.87662   0.00000  Uiso   1.00
C10    C     0.13892   0.56026   0.77761   0.00000  Uiso   1.00
C11    C     0.01669   0.51124   0.72742   0.00000  Uiso   1.00
C12    C     0.06459   0.46663   0.67032   0.00000  Uiso   1.00
C13    C     0.07842   0.38241   0.56800   0.00000  Uiso   1.00
C14    C     0.41631   0.62205   0.83196   0.00000  Uiso   1.00
C15    C     0.39673   0.60923   0.88939   0.00000  Uiso   1.00
C16    C     0.52350   0.60223   0.93191   0.00000  Uiso   1.00
C17    C     0.48016   0.59073   0.98135   0.00000  Uiso   1.00
C18    C     0.34182   0.68689   0.84386   0.00000  Uiso   1.00
C19    C     0.42242   0.74518   0.84808   0.00000  Uiso   1.00
C20    C     0.33285   0.79907   0.85918   0.00000  Uiso   1.00
C21    C     0.30317   0.56458   0.77099   0.00000  Uiso   1.00
C22    C     0.35126   0.52005   0.71395   0.00000  Uiso   1.00
C23    C     0.22913   0.47097   0.66369   0.00000  Uiso   1.00
H24    H     0.98605   0.61071   0.84929   0.00000  Uiso   1.00
H25    H     0.06182   0.59007   0.95049   0.00000  Uiso   1.00
H26    H     0.96075   0.73300   0.86667   0.00000  Uiso   1.00
H27    H     0.88961   0.50790   0.73256   0.00000  Uiso   1.00
H28    H     0.21828   0.56911   0.05979   0.00000  Uiso   1.00
H29    H     0.00515   0.87048   0.88302   0.00000  Uiso   1.00
H30    H     0.85511   0.39582   0.60022   0.00000  Uiso   1.00
H31    H     0.54418   0.62542   0.82681   0.00000  Uiso   1.00
H32    H     0.65059   0.60558   0.92678   0.00000  Uiso   1.00
H33    H     0.54952   0.74852   0.84296   0.00000  Uiso   1.00
H34    H     0.47837   0.52342   0.70885   0.00000  Uiso   1.00
H35    H     0.69615   0.58171   0.04055   0.00000  Uiso   1.00
H36    H     0.48301   0.88308   0.86377   0.00000  Uiso   1.00
H37    H     0.33298   0.40842   0.58098   0.00000  Uiso   1.00
O38    O     0.51715   0.56211   0.11635   0.00000  Uiso   1.00
O39    O     0.23751   0.95749   0.88442   0.00000  Uiso   1.00
O40    O     0.04068   0.33475   0.51340   0.00000  Uiso   1.00
N41    N     0.31614   0.57478   0.04153   0.00000  Uiso   1.00
N42    N     0.11688   0.85655   0.87627   0.00000  Uiso   1.00
N43    N     0.97660   0.41279   0.61187   0.00000  Uiso   1.00
N44    N     0.57327   0.58156   0.03118   0.00000  Uiso   1.00
N45    N     0.37401   0.86333   0.86592   0.00000  Uiso   1.00
N46    N     0.23374   0.41957   0.60152   0.00000  Uiso   1.00
C47    C     0.89162   0.14416   0.78098   0.00000  Uiso   1.00
C48    C     0.94877   0.09628   0.71898   0.00000  Uiso   1.00
C49    C     0.84956   0.04305   0.66305   0.00000  Uiso   1.00
C50    C     0.92529   0.00517   0.61158   0.00000  Uiso   1.00
C51    C     0.98836   0.92854   0.51466   0.00000  Uiso   1.00
C52    C     0.99952   0.13900   0.83774   0.00000  Uiso   1.00
C53    C     0.94296   0.12170   0.88166   0.00000  Uiso   1.00
C54    C     0.06142   0.11979   0.93016   0.00000  Uiso   1.00
C55    C     0.20327   0.10954   0.01765   0.00000  Uiso   1.00
C56    C     0.93964   0.21595   0.79172   0.00000  Uiso   1.00
C57    C     0.83275   0.26336   0.79698   0.00000  Uiso   1.00
C58    C     0.90081   0.32624   0.80675   0.00000  Uiso   1.00
C59    C     0.94970   0.43546   0.82279   0.00000  Uiso   1.00
C60    C     0.20255   0.17154   0.78901   0.00000  Uiso   1.00
C61    C     0.11767   0.11115   0.72335   0.00000  Uiso   1.00
C62    C     0.19357   0.07334   0.67194   0.00000  Uiso   1.00
C63    C     0.09448   0.02007   0.61595   0.00000  Uiso   1.00
C64    C     0.16840   0.15387   0.84210   0.00000  Uiso   1.00
C65    C     0.28697   0.15199   0.89055   0.00000  Uiso   1.00
C66    C     0.23061   0.13469   0.93453   0.00000  Uiso   1.00
C67    C     0.10853   0.23082   0.79608   0.00000  Uiso   1.00
C68    C     0.17677   0.29364   0.80586   0.00000  Uiso   1.00
C69    C     0.07000   0.34114   0.81112   0.00000  Uiso   1.00
H70    H     0.76014   0.13259   0.77759   0.00000  Uiso   1.00
H71    H     0.71886   0.03156   0.65970   0.00000  Uiso   1.00
H72    H     0.81226   0.11021   0.87828   0.00000  Uiso   1.00
H73    H     0.70207   0.25184   0.79360   0.00000  Uiso   1.00
H74    H     0.74760   0.92610   0.53094   0.00000  Uiso   1.00
H75    H     0.94452   0.09195   0.99183   0.00000  Uiso   1.00
H76    H     0.71216   0.39061   0.81328   0.00000  Uiso   1.00
H77    H     0.33405   0.18311   0.79241   0.00000  Uiso   1.00
H78    H     0.32427   0.08486   0.67533   0.00000  Uiso   1.00
H79    H     0.41766   0.16350   0.89391   0.00000  Uiso   1.00
H80    H     0.30747   0.30513   0.80923   0.00000  Uiso   1.00
H81    H     0.23897   0.96935   0.54362   0.00000  Uiso   1.00
H82    H     0.43589   0.13521   0.00453   0.00000  Uiso   1.00
H83    H     0.20353   0.43386   0.82596   0.00000  Uiso   1.00
O84    O     0.97650   0.88217   0.46001   0.00000  Uiso   1.00
O85    O     0.23485   0.09977   0.06469   0.00000  Uiso   1.00
O86    O     0.93000   0.49160   0.83042   0.00000  Uiso   1.00
N87    N     0.86458   0.94977   0.54998   0.00000  Uiso   1.00
N88    N     0.04869   0.10482   0.98089   0.00000  Uiso   1.00
N89    N     0.83146   0.38405   0.81397   0.00000  Uiso   1.00
N90    N     0.12898   0.97305   0.55681   0.00000  Uiso   1.00
N91    N     0.31309   0.12810   0.98772   0.00000  Uiso   1.00
N92    N     0.09586   0.40732   0.82080   0.00000  Uiso   1.00
C93    C     0.27766   0.21100   0.37277   0.00000  Uiso   1.00
C94    C     0.35696   0.27951   0.38371   0.00000  Uiso   1.00
C95    C     0.27474   0.33413   0.38954   0.00000  Uiso   1.00
C96    C     0.36940   0.39236   0.39937   0.00000  Uiso   1.00
C97    C     0.46655   0.49820   0.41574   0.00000  Uiso   1.00
C98    C     0.32279   0.15740   0.31036   0.00000  Uiso   1.00
C99    C     0.21184   0.10935   0.25454   0.00000  Uiso   1.00
C100   C     0.27774   0.06479   0.20263   0.00000  Uiso   1.00
C101   C     0.32184   0.98103   0.10515   0.00000  Uiso   1.00
C102   C     0.36864   0.20040   0.42907   0.00000  Uiso   1.00
C103   C     0.29624   0.18847   0.47305   0.00000  Uiso   1.00
C104   C     0.40076   0.18009   0.52108   0.00000  Uiso   1.00
C105   C     0.51604   0.16308   0.60792   0.00000  Uiso   1.00
C106   C     0.59198   0.21729   0.37985   0.00000  Uiso   1.00
C107   C     0.52769   0.28292   0.38755   0.00000  Uiso   1.00
C108   C     0.62250   0.34108   0.39737   0.00000  Uiso   1.00
C109   C     0.54044   0.39578   0.40322   0.00000  Uiso   1.00
C110   C     0.49351   0.16082   0.31421   0.00000  Uiso   1.00
C111   C     0.55960   0.11631   0.26237   0.00000  Uiso   1.00
C112   C     0.44878   0.06821   0.20648   0.00000  Uiso   1.00
C113   C     0.53937   0.20381   0.43292   0.00000  Uiso   1.00
C114   C     0.64401   0.19544   0.48089   0.00000  Uiso   1.00
C115   C     0.57179   0.18351   0.52493   0.00000  Uiso   1.00
H116   H     0.14475   0.20834   0.36977   0.00000  Uiso   1.00
H117   H     0.14261   0.33146   0.38656   0.00000  Uiso   1.00
H118   H     0.07973   0.10672   0.25158   0.00000  Uiso   1.00
H119   H     0.16412   0.18584   0.47006   0.00000  Uiso   1.00
H120   H     0.21553   0.46946   0.40684   0.00000  Uiso   1.00
H121   H     0.08293   0.99557   0.12224   0.00000  Uiso   1.00
H122   H     0.26090   0.16239   0.58295   0.00000  Uiso   1.00
H123   H     0.72491   0.21994   0.38284   0.00000  Uiso   1.00
H124   H     0.75462   0.34371   0.40035   0.00000  Uiso   1.00
H125   H     0.69172   0.11896   0.26537   0.00000  Uiso   1.00
H126   H     0.77612   0.19808   0.48385   0.00000  Uiso   1.00
H127   H     0.71226   0.47941   0.41803   0.00000  Uiso   1.00
H128   H     0.57965   0.00550   0.13343   0.00000  Uiso   1.00
H129   H     0.75762   0.17233   0.59414   0.00000  Uiso   1.00
O130   O     0.47296   0.55563   0.42369   0.00000  Uiso   1.00
O131   O     0.29899   0.93389   0.05032   0.00000  Uiso   1.00
O132   O     0.53248   0.15277   0.65476   0.00000  Uiso   1.00
N133   N     0.32837   0.45483   0.40708   0.00000  Uiso   1.00
N134   N     0.20439   0.01177   0.14100   0.00000  Uiso   1.00
N135   N     0.37076   0.16772   0.57171   0.00000  Uiso   1.00
N136   N     0.59565   0.46017   0.41310   0.00000  Uiso   1.00
N137   N     0.47167   0.01711   0.14702   0.00000  Uiso   1.00
N138   N     0.63805   0.17306   0.57774   0.00000  Uiso   1.00
C139   C     0.88608   0.38592   0.15586   0.00000  Uiso   1.00
C140   C     0.76752   0.39510   0.10399   0.00000  Uiso   1.00
C141   C     0.81105   0.40659   0.05461   0.00000  Uiso   1.00
C142   C     0.68438   0.41360   0.01203   0.00000  Uiso   1.00
C143   C     0.52525   0.42849   0.93047   0.00000  Uiso   1.00
C144   C     0.82242   0.31744   0.14953   0.00000  Uiso   1.00
C145   C     0.91214   0.26363   0.13844   0.00000  Uiso   1.00
C146   C     0.83169   0.20527   0.13420   0.00000  Uiso   1.00
C147   C     0.75785   0.09960   0.12338   0.00000  Uiso   1.00
C148   C     0.86108   0.43974   0.22239   0.00000  Uiso   1.00
C149   C     0.98331   0.48876   0.27258   0.00000  Uiso   1.00
C150   C     0.93541   0.53337   0.32968   0.00000  Uiso   1.00
C151   C     0.92158   0.61759   0.43200   0.00000  Uiso   1.00
C152   C     0.58369   0.37795   0.16804   0.00000  Uiso   1.00
C153   C     0.60327   0.39077   0.11061   0.00000  Uiso   1.00
C154   C     0.47650   0.39777   0.06809   0.00000  Uiso   1.00
C155   C     0.51984   0.40927   0.01865   0.00000  Uiso   1.00
C156   C     0.65818   0.31311   0.15614   0.00000  Uiso   1.00
C157   C     0.57758   0.25481   0.15192   0.00000  Uiso   1.00
C158   C     0.66715   0.20093   0.14082   0.00000  Uiso   1.00
C159   C     0.69683   0.43542   0.22901   0.00000  Uiso   1.00
C160   C     0.64874   0.47995   0.28605   0.00000  Uiso   1.00
C161   C     0.77087   0.52903   0.33631   0.00000  Uiso   1.00
H162   H     0.01395   0.38928   0.15071   0.00000  Uiso   1.00
H163   H     0.93818   0.40993   0.04951   0.00000  Uiso   1.00
H164   H     0.03925   0.26700   0.13333   0.00000  Uiso   1.00
H165   H     0.11039   0.49210   0.26744   0.00000  Uiso   1.00
H166   H     0.78172   0.43089   0.94021   0.00000  Uiso   1.00
H167   H     0.99485   0.12952   0.11698   0.00000  Uiso   1.00
H168   H     0.14489   0.60418   0.39978   0.00000  Uiso   1.00
H169   H     0.45582   0.37458   0.17319   0.00000  Uiso   1.00
H170   H     0.34941   0.39442   0.07322   0.00000  Uiso   1.00
H171   H     0.45048   0.25148   0.15704   0.00000  Uiso   1.00
H172   H     0.52163   0.47658   0.29115   0.00000  Uiso   1.00
H173   H     0.30385   0.41829   0.95945   0.00000  Uiso   1.00
H174   H     0.51699   0.11692   0.13623   0.00000  Uiso   1.00
H175   H     0.66702   0.59158   0.41902   0.00000  Uiso   1.00
O176   O     0.48285   0.43789   0.88365   0.00000  Uiso   1.00
O177   O     0.76249   0.04251   0.11558   0.00000  Uiso   1.00
O178   O     0.95932   0.66525   0.48660   0.00000  Uiso   1.00
N179   N     0.68386   0.42522   0.95847   0.00000  Uiso   1.00
N180   N     0.88312   0.14345   0.12373   0.00000  Uiso   1.00
N181   N     0.02340   0.58720   0.38813   0.00000  Uiso   1.00
N182   N     0.42673   0.41844   0.96882   0.00000  Uiso   1.00
N183   N     0.62599   0.13667   0.13408   0.00000  Uiso   1.00
N184   N     0.76626   0.58043   0.39848   0.00000  Uiso   1.00
C185   C     0.10838   0.85584   0.21902   0.00000  Uiso   1.00
C186   C     0.05123   0.90372   0.28102   0.00000  Uiso   1.00
C187   C     0.15044   0.95695   0.33694   0.00000  Uiso   1.00
C188   C     0.07471   0.99483   0.38842   0.00000  Uiso   1.00
C189   C     0.01164   0.07146   0.48534   0.00000  Uiso   1.00
C190   C     0.00048   0.86100   0.16226   0.00000  Uiso   1.00
C191   C     0.05704   0.87830   0.11834   0.00000  Uiso   1.00
C192   C     0.93858   0.88021   0.06984   0.00000  Uiso   1.00
C193   C     0.79673   0.89046   0.98235   0.00000  Uiso   1.00
C194   C     0.06036   0.78405   0.20828   0.00000  Uiso   1.00
C195   C     0.16725   0.73664   0.20302   0.00000  Uiso   1.00
C196   C     0.09919   0.67376   0.19325   0.00000  Uiso   1.00
C197   C     0.05030   0.56454   0.17721   0.00000  Uiso   1.00
C198   C     0.79744   0.82846   0.21099   0.00000  Uiso   1.00
C199   C     0.88233   0.88885   0.27665   0.00000  Uiso   1.00
C200   C     0.80643   0.92666   0.32806   0.00000  Uiso   1.00
C201   C     0.90552   0.97993   0.38405   0.00000  Uiso   1.00
C202   C     0.83160   0.84613   0.15790   0.00000  Uiso   1.00
C203   C     0.71303   0.84801   0.10945   0.00000  Uiso   1.00
C204   C     0.76939   0.86531   0.06547   0.00000  Uiso   1.00
C205   C     0.89147   0.76918   0.20392   0.00000  Uiso   1.00
C206   C     0.82323   0.70636   0.19414   0.00000  Uiso   1.00
C207   C     0.93000   0.65886   0.18888   0.00000  Uiso   1.00
H208   H     0.23986   0.86741   0.22241   0.00000  Uiso   1.00
H209   H     0.28114   0.96844   0.34030   0.00000  Uiso   1.00
H210   H     0.18774   0.88979   0.12172   0.00000  Uiso   1.00
H211   H     0.29793   0.74816   0.20640   0.00000  Uiso   1.00
H212   H     0.25240   0.07390   0.46906   0.00000  Uiso   1.00
H213   H     0.05548   0.90805   0.00817   0.00000  Uiso   1.00
H214   H     0.28784   0.60939   0.18672   0.00000  Uiso   1.00
H215   H     0.66595   0.81689   0.20759   0.00000  Uiso   1.00
H216   H     0.67573   0.91514   0.32467   0.00000  Uiso   1.00
H217   H     0.58234   0.83650   0.10609   0.00000  Uiso   1.00
H218   H     0.69253   0.69487   0.19077   0.00000  Uiso   1.00
H219   H     0.76103   0.03065   0.45638   0.00000  Uiso   1.00
H220   H     0.56411   0.86479   0.99547   0.00000  Uiso   1.00
H221   H     0.79647   0.56614   0.17404   0.00000  Uiso   1.00
O222   O     0.02350   0.11783   0.53999   0.00000  Uiso   1.00
O223   O     0.76515   0.90023   0.93531   0.00000  Uiso   1.00
O224   O     0.07000   0.50840   0.16958   0.00000  Uiso   1.00
N225   N     0.13542   0.05023   0.45002   0.00000  Uiso   1.00
N226   N     0.95131   0.89518   0.01911   0.00000  Uiso   1.00
N227   N     0.16854   0.61595   0.18603   0.00000  Uiso   1.00
N228   N     0.87102   0.02695   0.44319   0.00000  Uiso   1.00
N229   N     0.68691   0.87190   0.01228   0.00000  Uiso   1.00
N230   N     0.90414   0.59268   0.17920   0.00000  Uiso   1.00
C231   C     0.72234   0.78900   0.62723   0.00000  Uiso   1.00
C232   C     0.64304   0.72049   0.61629   0.00000  Uiso   1.00
C233   C     0.72526   0.66587   0.61046   0.00000  Uiso   1.00
C234   C     0.63060   0.60764   0.60063   0.00000  Uiso   1.00
C235   C     0.53345   0.50180   0.58426   0.00000  Uiso   1.00
C236   C     0.67721   0.84260   0.68964   0.00000  Uiso   1.00
C237   C     0.78816   0.89065   0.74546   0.00000  Uiso   1.00
C238   C     0.72226   0.93521   0.79737   0.00000  Uiso   1.00
C239   C     0.67816   0.01897   0.89485   0.00000  Uiso   1.00
C240   C     0.63136   0.79960   0.57093   0.00000  Uiso   1.00
C241   C     0.70376   0.81153   0.52695   0.00000  Uiso   1.00
C242   C     0.59924   0.81991   0.47892   0.00000  Uiso   1.00
C243   C     0.48396   0.83692   0.39208   0.00000  Uiso   1.00
C244   C     0.40802   0.78271   0.62015   0.00000  Uiso   1.00
C245   C     0.47231   0.71708   0.61245   0.00000  Uiso   1.00
C246   C     0.37750   0.65892   0.60263   0.00000  Uiso   1.00
C247   C     0.45956   0.60422   0.59678   0.00000  Uiso   1.00
C248   C     0.50649   0.83918   0.68579   0.00000  Uiso   1.00
C249   C     0.44040   0.88369   0.73763   0.00000  Uiso   1.00
C250   C     0.55122   0.93179   0.79352   0.00000  Uiso   1.00
C251   C     0.46063   0.79619   0.56708   0.00000  Uiso   1.00
C252   C     0.35599   0.80456   0.51911   0.00000  Uiso   1.00
C253   C     0.42821   0.81649   0.47507   0.00000  Uiso   1.00
H254   H     0.85525   0.79166   0.63023   0.00000  Uiso   1.00
H255   H     0.85739   0.66854   0.61344   0.00000  Uiso   1.00
H256   H     0.92027   0.89328   0.74842   0.00000  Uiso   1.00
H257   H     0.83588   0.81416   0.52994   0.00000  Uiso   1.00
H258   H     0.78447   0.53053   0.59316   0.00000  Uiso   1.00
H259   H     0.91707   0.00443   0.87776   0.00000  Uiso   1.00
H260   H     0.73910   0.83761   0.41705   0.00000  Uiso   1.00
H261   H     0.27509   0.78006   0.61716   0.00000  Uiso   1.00
H262   H     0.24538   0.65629   0.59965   0.00000  Uiso   1.00
H263   H     0.30828   0.88104   0.73463   0.00000  Uiso   1.00
H264   H     0.22388   0.80192   0.51615   0.00000  Uiso   1.00
H265   H     0.28774   0.52059   0.58197   0.00000  Uiso   1.00
H266   H     0.42035   0.99450   0.86657   0.00000  Uiso   1.00
H267   H     0.24238   0.82766   0.40586   0.00000  Uiso   1.00
O268   O     0.52704   0.44437   0.57631   0.00000  Uiso   1.00
O269   O     0.70101   0.06611   0.94968   0.00000  Uiso   1.00
O270   O     0.46752   0.84723   0.34524   0.00000  Uiso   1.00
N271   N     0.67163   0.54517   0.59292   0.00000  Uiso   1.00
N272   N     0.79561   0.98823   0.85900   0.00000  Uiso   1.00
N273   N     0.62924   0.83228   0.42829   0.00000  Uiso   1.00
N274   N     0.40435   0.53983   0.58689   0.00000  Uiso   1.00
N275   N     0.52833   0.98289   0.85298   0.00000  Uiso   1.00
N276   N     0.36195   0.82693   0.42226   0.00000  Uiso   1.00
