data_job_01285
_audit_creation_date              2018-12-19
_audit_creation_method            'Materials Studio'
_symmetry_space_group_name_H-M    'P1'
_symmetry_Int_Tables_number       1
_symmetry_cell_setting            triclinic
loop_
_symmetry_equiv_pos_as_xyz
  x,y,z
_cell_length_a                    9.9972
_cell_length_b                    10.4847
_cell_length_c                    13.6333
_cell_angle_alpha                 77.4780
_cell_angle_beta                  86.0073
_cell_angle_gamma                 71.3306
loop_
_atom_site_label
_atom_site_type_symbol
_atom_site_fract_x
_atom_site_fract_y
_atom_site_fract_z
_atom_site_U_iso_or_equiv
_atom_site_adp_type
_atom_site_occupancy
C1     C     0.20946   0.13764   0.78577   0.00000  Uiso   1.00
C2     C     0.29960   0.98673   0.80387   0.00000  Uiso   1.00
C3     C     0.39625   0.91956   0.88123   0.00000  Uiso   1.00
C4     C     0.46825   0.78132   0.88481   0.00000  Uiso   1.00
C5     C     0.61190   0.55743   0.92373   0.00000  Uiso   1.00
C6     C     0.24195   0.20108   0.67883   0.00000  Uiso   1.00
C7     C     0.29011   0.31416   0.65106   0.00000  Uiso   1.00
C8     C     0.31357   0.35637   0.54938   0.00000  Uiso   1.00
C9     C     0.36763   0.46532   0.39416   0.00000  Uiso   1.00
C10    C     0.05668   0.13872   0.78469   0.00000  Uiso   1.00
C11    C     0.94903   0.19939   0.84590   0.00000  Uiso   1.00
C12    C     0.81648   0.18913   0.83333   0.00000  Uiso   1.00
C13    C     0.58287   0.20125   0.84247   0.00000  Uiso   1.00
C14    C     0.16546   0.01156   0.65457   0.00000  Uiso   1.00
C15    C     0.27570   0.91825   0.73260   0.00000  Uiso   1.00
C16    C     0.34757   0.78007   0.73607   0.00000  Uiso   1.00
C17    C     0.44430   0.71271   0.81342   0.00000  Uiso   1.00
C18    C     0.21806   0.13260   0.60757   0.00000  Uiso   1.00
C19    C     0.24144   0.17466   0.50590   0.00000  Uiso   1.00
C20    C     0.28963   0.28776   0.47798   0.00000  Uiso   1.00
C21    C     0.03278   0.07023   0.71343   0.00000  Uiso   1.00
C22    C     0.90036   0.05989   0.70075   0.00000  Uiso   1.00
C23    C     0.79254   0.12052   0.76193   0.00000  Uiso   1.00
H24    H     0.22806   0.19096   0.84125   0.00000  Uiso   1.00
H25    H     0.41472   0.97260   0.93636   0.00000  Uiso   1.00
H26    H     0.30858   0.36714   0.70623   0.00000  Uiso   1.00
H27    H     0.96757   0.25238   0.90104   0.00000  Uiso   1.00
H28    H     0.61116   0.70032   0.01036   0.00000  Uiso   1.00
H29    H     0.38733   0.53225   0.52511   0.00000  Uiso   1.00
H30    H     0.66822   0.29027   0.93591   0.00000  Uiso   1.00
H31    H     0.14685   0.95824   0.59908   0.00000  Uiso   1.00
H32    H     0.32906   0.72710   0.68091   0.00000  Uiso   1.00
H33    H     0.22293   0.12164   0.45078   0.00000  Uiso   1.00
H34    H     0.88191   0.00688   0.64559   0.00000  Uiso   1.00
H35    H     0.54164   0.50106   0.80303   0.00000  Uiso   1.00
H36    H     0.31780   0.33300   0.31777   0.00000  Uiso   1.00
H37    H     0.59870   0.09101   0.72858   0.00000  Uiso   1.00
O38    O     0.69776   0.45285   0.96487   0.00000  Uiso   1.00
O39    O     0.40407   0.54433   0.32824   0.00000  Uiso   1.00
O40    O     0.46062   0.22684   0.86721   0.00000  Uiso   1.00
N41    N     0.56977   0.68514   0.95035   0.00000  Uiso   1.00
N42    N     0.36052   0.46293   0.49667   0.00000  Uiso   1.00
N43    N     0.68821   0.23673   0.88072   0.00000  Uiso   1.00
N44    N     0.53236   0.57792   0.83878   0.00000  Uiso   1.00
N45    N     0.32311   0.35571   0.38510   0.00000  Uiso   1.00
N46    N     0.65080   0.12951   0.76915   0.00000  Uiso   1.00
C47    C     0.79054   0.86236   0.21423   0.00000  Uiso   1.00
C48    C     0.70040   0.01327   0.19613   0.00000  Uiso   1.00
C49    C     0.60375   0.08044   0.11877   0.00000  Uiso   1.00
C50    C     0.53175   0.21868   0.11519   0.00000  Uiso   1.00
C51    C     0.38810   0.44257   0.07627   0.00000  Uiso   1.00
C52    C     0.75805   0.79892   0.32117   0.00000  Uiso   1.00
C53    C     0.70989   0.68584   0.34894   0.00000  Uiso   1.00
C54    C     0.68643   0.64363   0.45062   0.00000  Uiso   1.00
C55    C     0.63237   0.53468   0.60584   0.00000  Uiso   1.00
C56    C     0.94332   0.86128   0.21531   0.00000  Uiso   1.00
C57    C     0.05097   0.80061   0.15410   0.00000  Uiso   1.00
C58    C     0.18352   0.81087   0.16667   0.00000  Uiso   1.00
C59    C     0.41713   0.79875   0.15753   0.00000  Uiso   1.00
C60    C     0.83454   0.98844   0.34543   0.00000  Uiso   1.00
C61    C     0.72430   0.08175   0.26740   0.00000  Uiso   1.00
C62    C     0.65243   0.21993   0.26393   0.00000  Uiso   1.00
C63    C     0.55570   0.28729   0.18658   0.00000  Uiso   1.00
C64    C     0.78194   0.86740   0.39243   0.00000  Uiso   1.00
C65    C     0.75856   0.82534   0.49410   0.00000  Uiso   1.00
C66    C     0.71037   0.71224   0.52202   0.00000  Uiso   1.00
C67    C     0.96722   0.92977   0.28657   0.00000  Uiso   1.00
C68    C     0.09964   0.94011   0.29925   0.00000  Uiso   1.00
C69    C     0.20746   0.87948   0.23807   0.00000  Uiso   1.00
H70    H     0.77194   0.80904   0.15875   0.00000  Uiso   1.00
H71    H     0.58528   0.02740   0.06364   0.00000  Uiso   1.00
H72    H     0.69142   0.63286   0.29377   0.00000  Uiso   1.00
H73    H     0.03243   0.74762   0.09896   0.00000  Uiso   1.00
H74    H     0.38884   0.29968   0.98964   0.00000  Uiso   1.00
H75    H     0.61267   0.46775   0.47489   0.00000  Uiso   1.00
H76    H     0.33178   0.70973   0.06409   0.00000  Uiso   1.00
H77    H     0.85315   0.04176   0.40092   0.00000  Uiso   1.00
H78    H     0.67094   0.27290   0.31909   0.00000  Uiso   1.00
H79    H     0.77707   0.87836   0.54922   0.00000  Uiso   1.00
H80    H     0.11809   0.99312   0.35441   0.00000  Uiso   1.00
H81    H     0.45836   0.49894   0.19697   0.00000  Uiso   1.00
H82    H     0.68220   0.66700   0.68223   0.00000  Uiso   1.00
H83    H     0.40130   0.90899   0.27142   0.00000  Uiso   1.00
O84    O     0.30224   0.54715   0.03513   0.00000  Uiso   1.00
O85    O     0.59593   0.45567   0.67176   0.00000  Uiso   1.00
O86    O     0.53938   0.77316   0.13279   0.00000  Uiso   1.00
N87    N     0.43023   0.31486   0.04965   0.00000  Uiso   1.00
N88    N     0.63948   0.53707   0.50333   0.00000  Uiso   1.00
N89    N     0.31179   0.76327   0.11928   0.00000  Uiso   1.00
N90    N     0.46764   0.42208   0.16122   0.00000  Uiso   1.00
N91    N     0.67689   0.64429   0.61490   0.00000  Uiso   1.00
N92    N     0.34920   0.87049   0.23085   0.00000  Uiso   1.00
