data_job_00946
_audit_creation_date              2018-12-19
_audit_creation_method            'Materials Studio'
_symmetry_space_group_name_H-M    'P1'
_symmetry_Int_Tables_number       1
_symmetry_cell_setting            triclinic
loop_
_symmetry_equiv_pos_as_xyz
  x,y,z
_cell_length_a                    15.4017
_cell_length_b                    19.9587
_cell_length_c                    21.6223
_cell_angle_alpha                 90.0000
_cell_angle_beta                  67.2487
_cell_angle_gamma                 90.0000
loop_
_atom_site_label
_atom_site_type_symbol
_atom_site_fract_x
_atom_site_fract_y
_atom_site_fract_z
_atom_site_U_iso_or_equiv
_atom_site_adp_type
_atom_site_occupancy
C1     C     0.17624   0.04470   0.63008   0.00000  Uiso   1.00
C2     C     0.17116   0.00406   0.57185   0.00000  Uiso   1.00
C3     C     0.08938   0.98109   0.56639   0.00000  Uiso   1.00
C4     C     0.09964   0.94476   0.50922   0.00000  Uiso   1.00
C5     C     0.07823   0.88358   0.42641   0.00000  Uiso   1.00
C6     C     0.23985   0.00526   0.65617   0.00000  Uiso   1.00
C7     C     0.21582   0.98329   0.72160   0.00000  Uiso   1.00
C8     C     0.28391   0.94798   0.73541   0.00000  Uiso   1.00
C9     C     0.36918   0.88869   0.78351   0.00000  Uiso   1.00
C10    C     0.22986   0.10858   0.59929   0.00000  Uiso   1.00
C11    C     0.19743   0.17350   0.61692   0.00000  Uiso   1.00
C12    C     0.25712   0.22518   0.58286   0.00000  Uiso   1.00
C13    C     0.32686   0.32632   0.54266   0.00000  Uiso   1.00
C14    C     0.33990   0.02106   0.53825   0.00000  Uiso   1.00
C15    C     0.26006   0.99122   0.52197   0.00000  Uiso   1.00
C16    C     0.27044   0.95492   0.46479   0.00000  Uiso   1.00
C17    C     0.18869   0.93190   0.45925   0.00000  Uiso   1.00
C18    C     0.32874   0.99241   0.60629   0.00000  Uiso   1.00
C19    C     0.39689   0.95713   0.62000   0.00000  Uiso   1.00
C20    C     0.37296   0.93511   0.68544   0.00000  Uiso   1.00
C21    C     0.31875   0.09574   0.54941   0.00000  Uiso   1.00
C22    C     0.37850   0.14733   0.51532   0.00000  Uiso   1.00
C23    C     0.34617   0.21231   0.53289   0.00000  Uiso   1.00
H24    H     0.10704   0.05470   0.66891   0.00000  Uiso   1.00
H25    H     0.02060   0.99103   0.60501   0.00000  Uiso   1.00
H26    H     0.14703   0.99324   0.76019   0.00000  Uiso   1.00
H27    H     0.12864   0.18342   0.65553   0.00000  Uiso   1.00
H28    H     0.96397   0.91475   0.51217   0.00000  Uiso   1.00
H29    H     0.23056   0.91944   0.83939   0.00000  Uiso   1.00
H30    H     0.19179   0.32046   0.61868   0.00000  Uiso   1.00
H31    H     0.40911   0.01106   0.49941   0.00000  Uiso   1.00
H32    H     0.33924   0.94499   0.42620   0.00000  Uiso   1.00
H33    H     0.46567   0.94720   0.58139   0.00000  Uiso   1.00
H34    H     0.44728   0.13737   0.47672   0.00000  Uiso   1.00
H35    H     0.22259   0.87738   0.36704   0.00000  Uiso   1.00
H36    H     0.48919   0.88207   0.69427   0.00000  Uiso   1.00
H37    H     0.45042   0.28309   0.47356   0.00000  Uiso   1.00
O38    O     0.04187   0.85338   0.39451   0.00000  Uiso   1.00
O39    O     0.39164   0.85954   0.82383   0.00000  Uiso   1.00
O40    O     0.34077   0.38566   0.53426   0.00000  Uiso   1.00
N41    N     0.03442   0.91504   0.48805   0.00000  Uiso   1.00
N42    N     0.28367   0.91941   0.79399   0.00000  Uiso   1.00
N43    N     0.24743   0.29433   0.58766   0.00000  Uiso   1.00
N44    N     0.17358   0.89493   0.40996   0.00000  Uiso   1.00
N45    N     0.42283   0.89930   0.71590   0.00000  Uiso   1.00
N46    N     0.38659   0.27422   0.50957   0.00000  Uiso   1.00
C47    C     0.67624   0.54470   0.63008   0.00000  Uiso   1.00
C48    C     0.67116   0.50406   0.57185   0.00000  Uiso   1.00
C49    C     0.58938   0.48109   0.56639   0.00000  Uiso   1.00
C50    C     0.59964   0.44476   0.50922   0.00000  Uiso   1.00
C51    C     0.57823   0.38358   0.42641   0.00000  Uiso   1.00
C52    C     0.73985   0.50526   0.65617   0.00000  Uiso   1.00
C53    C     0.71582   0.48329   0.72160   0.00000  Uiso   1.00
C54    C     0.78391   0.44798   0.73541   0.00000  Uiso   1.00
C55    C     0.86918   0.38869   0.78351   0.00000  Uiso   1.00
C56    C     0.72986   0.60858   0.59929   0.00000  Uiso   1.00
C57    C     0.69743   0.67350   0.61692   0.00000  Uiso   1.00
C58    C     0.75712   0.72518   0.58286   0.00000  Uiso   1.00
C59    C     0.82686   0.82632   0.54266   0.00000  Uiso   1.00
C60    C     0.83990   0.52106   0.53825   0.00000  Uiso   1.00
C61    C     0.76006   0.49122   0.52197   0.00000  Uiso   1.00
C62    C     0.77044   0.45492   0.46479   0.00000  Uiso   1.00
C63    C     0.68869   0.43190   0.45925   0.00000  Uiso   1.00
C64    C     0.82874   0.49241   0.60629   0.00000  Uiso   1.00
C65    C     0.89689   0.45713   0.62000   0.00000  Uiso   1.00
C66    C     0.87296   0.43511   0.68544   0.00000  Uiso   1.00
C67    C     0.81875   0.59574   0.54941   0.00000  Uiso   1.00
C68    C     0.87850   0.64733   0.51532   0.00000  Uiso   1.00
C69    C     0.84617   0.71231   0.53289   0.00000  Uiso   1.00
H70    H     0.60704   0.55470   0.66891   0.00000  Uiso   1.00
H71    H     0.52060   0.49103   0.60501   0.00000  Uiso   1.00
H72    H     0.64703   0.49324   0.76019   0.00000  Uiso   1.00
H73    H     0.62864   0.68342   0.65553   0.00000  Uiso   1.00
H74    H     0.46397   0.41475   0.51217   0.00000  Uiso   1.00
H75    H     0.73056   0.41944   0.83939   0.00000  Uiso   1.00
H76    H     0.69179   0.82046   0.61868   0.00000  Uiso   1.00
H77    H     0.90911   0.51106   0.49941   0.00000  Uiso   1.00
H78    H     0.83924   0.44499   0.42620   0.00000  Uiso   1.00
H79    H     0.96567   0.44720   0.58139   0.00000  Uiso   1.00
H80    H     0.94728   0.63737   0.47672   0.00000  Uiso   1.00
H81    H     0.72259   0.37738   0.36704   0.00000  Uiso   1.00
H82    H     0.98919   0.38207   0.69427   0.00000  Uiso   1.00
H83    H     0.95042   0.78309   0.47356   0.00000  Uiso   1.00
O84    O     0.54187   0.35338   0.39451   0.00000  Uiso   1.00
O85    O     0.89164   0.35954   0.82383   0.00000  Uiso   1.00
O86    O     0.84077   0.88566   0.53426   0.00000  Uiso   1.00
N87    N     0.53442   0.41504   0.48805   0.00000  Uiso   1.00
N88    N     0.78367   0.41941   0.79399   0.00000  Uiso   1.00
N89    N     0.74743   0.79433   0.58766   0.00000  Uiso   1.00
N90    N     0.67358   0.39493   0.40996   0.00000  Uiso   1.00
N91    N     0.92283   0.39930   0.71590   0.00000  Uiso   1.00
N92    N     0.88659   0.77422   0.50957   0.00000  Uiso   1.00
C93    C     0.82376   0.04470   0.86992   0.00000  Uiso   1.00
C94    C     0.82884   0.00406   0.92815   0.00000  Uiso   1.00
C95    C     0.91062   0.98109   0.93361   0.00000  Uiso   1.00
C96    C     0.90036   0.94476   0.99078   0.00000  Uiso   1.00
C97    C     0.92177   0.88358   0.07359   0.00000  Uiso   1.00
C98    C     0.76015   0.00526   0.84383   0.00000  Uiso   1.00
C99    C     0.78418   0.98329   0.77840   0.00000  Uiso   1.00
C100   C     0.71609   0.94798   0.76459   0.00000  Uiso   1.00
C101   C     0.63082   0.88869   0.71649   0.00000  Uiso   1.00
C102   C     0.77014   0.10858   0.90071   0.00000  Uiso   1.00
C103   C     0.80257   0.17350   0.88308   0.00000  Uiso   1.00
C104   C     0.74288   0.22518   0.91714   0.00000  Uiso   1.00
C105   C     0.67314   0.32632   0.95734   0.00000  Uiso   1.00
C106   C     0.66010   0.02106   0.96175   0.00000  Uiso   1.00
C107   C     0.73994   0.99122   0.97803   0.00000  Uiso   1.00
C108   C     0.72956   0.95492   0.03521   0.00000  Uiso   1.00
C109   C     0.81131   0.93190   0.04075   0.00000  Uiso   1.00
C110   C     0.67126   0.99241   0.89371   0.00000  Uiso   1.00
C111   C     0.60311   0.95713   0.88000   0.00000  Uiso   1.00
C112   C     0.62704   0.93511   0.81456   0.00000  Uiso   1.00
C113   C     0.68125   0.09574   0.95059   0.00000  Uiso   1.00
C114   C     0.62150   0.14733   0.98468   0.00000  Uiso   1.00
C115   C     0.65383   0.21231   0.96711   0.00000  Uiso   1.00
H116   H     0.89296   0.05470   0.83109   0.00000  Uiso   1.00
H117   H     0.97940   0.99103   0.89499   0.00000  Uiso   1.00
H118   H     0.85297   0.99324   0.73981   0.00000  Uiso   1.00
H119   H     0.87136   0.18342   0.84447   0.00000  Uiso   1.00
H120   H     0.03603   0.91475   0.98783   0.00000  Uiso   1.00
H121   H     0.76944   0.91944   0.66061   0.00000  Uiso   1.00
H122   H     0.80821   0.32046   0.88132   0.00000  Uiso   1.00
H123   H     0.59089   0.01106   0.00059   0.00000  Uiso   1.00
H124   H     0.66076   0.94499   0.07380   0.00000  Uiso   1.00
H125   H     0.53433   0.94720   0.91861   0.00000  Uiso   1.00
H126   H     0.55272   0.13737   0.02328   0.00000  Uiso   1.00
H127   H     0.77741   0.87738   0.13296   0.00000  Uiso   1.00
H128   H     0.51081   0.88207   0.80573   0.00000  Uiso   1.00
H129   H     0.54958   0.28309   0.02644   0.00000  Uiso   1.00
O130   O     0.95813   0.85338   0.10549   0.00000  Uiso   1.00
O131   O     0.60836   0.85954   0.67617   0.00000  Uiso   1.00
O132   O     0.65923   0.38566   0.96574   0.00000  Uiso   1.00
N133   N     0.96558   0.91504   0.01195   0.00000  Uiso   1.00
N134   N     0.71633   0.91941   0.70601   0.00000  Uiso   1.00
N135   N     0.75257   0.29433   0.91234   0.00000  Uiso   1.00
N136   N     0.82642   0.89493   0.09004   0.00000  Uiso   1.00
N137   N     0.57717   0.89930   0.78410   0.00000  Uiso   1.00
N138   N     0.61341   0.27422   0.99043   0.00000  Uiso   1.00
C139   C     0.32376   0.54470   0.86992   0.00000  Uiso   1.00
C140   C     0.32884   0.50406   0.92815   0.00000  Uiso   1.00
C141   C     0.41062   0.48109   0.93361   0.00000  Uiso   1.00
C142   C     0.40036   0.44476   0.99078   0.00000  Uiso   1.00
C143   C     0.42177   0.38358   0.07359   0.00000  Uiso   1.00
C144   C     0.26015   0.50526   0.84383   0.00000  Uiso   1.00
C145   C     0.28418   0.48329   0.77840   0.00000  Uiso   1.00
C146   C     0.21609   0.44798   0.76459   0.00000  Uiso   1.00
C147   C     0.13082   0.38869   0.71649   0.00000  Uiso   1.00
C148   C     0.27014   0.60858   0.90071   0.00000  Uiso   1.00
C149   C     0.30257   0.67350   0.88308   0.00000  Uiso   1.00
C150   C     0.24288   0.72518   0.91714   0.00000  Uiso   1.00
C151   C     0.17314   0.82632   0.95734   0.00000  Uiso   1.00
C152   C     0.16010   0.52106   0.96175   0.00000  Uiso   1.00
C153   C     0.23994   0.49122   0.97803   0.00000  Uiso   1.00
C154   C     0.22956   0.45492   0.03521   0.00000  Uiso   1.00
C155   C     0.31131   0.43190   0.04075   0.00000  Uiso   1.00
C156   C     0.17126   0.49241   0.89371   0.00000  Uiso   1.00
C157   C     0.10311   0.45713   0.88000   0.00000  Uiso   1.00
C158   C     0.12704   0.43511   0.81456   0.00000  Uiso   1.00
C159   C     0.18125   0.59574   0.95059   0.00000  Uiso   1.00
C160   C     0.12150   0.64733   0.98468   0.00000  Uiso   1.00
C161   C     0.15383   0.71231   0.96711   0.00000  Uiso   1.00
H162   H     0.39296   0.55470   0.83109   0.00000  Uiso   1.00
H163   H     0.47940   0.49103   0.89499   0.00000  Uiso   1.00
H164   H     0.35297   0.49324   0.73981   0.00000  Uiso   1.00
H165   H     0.37136   0.68342   0.84447   0.00000  Uiso   1.00
H166   H     0.53603   0.41475   0.98783   0.00000  Uiso   1.00
H167   H     0.26944   0.41944   0.66061   0.00000  Uiso   1.00
H168   H     0.30821   0.82046   0.88132   0.00000  Uiso   1.00
H169   H     0.09089   0.51106   0.00059   0.00000  Uiso   1.00
H170   H     0.16076   0.44499   0.07380   0.00000  Uiso   1.00
H171   H     0.03433   0.44720   0.91861   0.00000  Uiso   1.00
H172   H     0.05272   0.63737   0.02328   0.00000  Uiso   1.00
H173   H     0.27741   0.37738   0.13296   0.00000  Uiso   1.00
H174   H     0.01081   0.38207   0.80573   0.00000  Uiso   1.00
H175   H     0.04958   0.78309   0.02644   0.00000  Uiso   1.00
O176   O     0.45813   0.35338   0.10549   0.00000  Uiso   1.00
O177   O     0.10836   0.35954   0.67617   0.00000  Uiso   1.00
O178   O     0.15923   0.88566   0.96574   0.00000  Uiso   1.00
N179   N     0.46558   0.41504   0.01195   0.00000  Uiso   1.00
N180   N     0.21633   0.41941   0.70601   0.00000  Uiso   1.00
N181   N     0.25257   0.79433   0.91234   0.00000  Uiso   1.00
N182   N     0.32642   0.39493   0.09004   0.00000  Uiso   1.00
N183   N     0.07717   0.39930   0.78410   0.00000  Uiso   1.00
N184   N     0.11341   0.77422   0.99043   0.00000  Uiso   1.00
C185   C     0.82376   0.95530   0.36992   0.00000  Uiso   1.00
C186   C     0.82884   0.99594   0.42815   0.00000  Uiso   1.00
C187   C     0.91062   0.01891   0.43361   0.00000  Uiso   1.00
C188   C     0.90036   0.05524   0.49078   0.00000  Uiso   1.00
C189   C     0.92177   0.11642   0.57359   0.00000  Uiso   1.00
C190   C     0.76015   0.99474   0.34383   0.00000  Uiso   1.00
C191   C     0.78418   0.01671   0.27840   0.00000  Uiso   1.00
C192   C     0.71609   0.05202   0.26459   0.00000  Uiso   1.00
C193   C     0.63082   0.11131   0.21649   0.00000  Uiso   1.00
C194   C     0.77014   0.89142   0.40071   0.00000  Uiso   1.00
C195   C     0.80257   0.82650   0.38308   0.00000  Uiso   1.00
C196   C     0.74288   0.77482   0.41714   0.00000  Uiso   1.00
C197   C     0.67314   0.67368   0.45734   0.00000  Uiso   1.00
C198   C     0.66010   0.97894   0.46175   0.00000  Uiso   1.00
C199   C     0.73994   0.00878   0.47803   0.00000  Uiso   1.00
C200   C     0.72956   0.04508   0.53521   0.00000  Uiso   1.00
C201   C     0.81131   0.06810   0.54075   0.00000  Uiso   1.00
C202   C     0.67126   0.00759   0.39371   0.00000  Uiso   1.00
C203   C     0.60311   0.04287   0.38000   0.00000  Uiso   1.00
C204   C     0.62704   0.06489   0.31456   0.00000  Uiso   1.00
C205   C     0.68125   0.90426   0.45059   0.00000  Uiso   1.00
C206   C     0.62150   0.85267   0.48468   0.00000  Uiso   1.00
C207   C     0.65383   0.78769   0.46711   0.00000  Uiso   1.00
H208   H     0.89296   0.94530   0.33109   0.00000  Uiso   1.00
H209   H     0.97940   0.00897   0.39499   0.00000  Uiso   1.00
H210   H     0.85297   0.00676   0.23981   0.00000  Uiso   1.00
H211   H     0.87136   0.81658   0.34447   0.00000  Uiso   1.00
H212   H     0.03603   0.08525   0.48783   0.00000  Uiso   1.00
H213   H     0.76944   0.08056   0.16061   0.00000  Uiso   1.00
H214   H     0.80821   0.67954   0.38132   0.00000  Uiso   1.00
H215   H     0.59089   0.98894   0.50059   0.00000  Uiso   1.00
H216   H     0.66076   0.05501   0.57380   0.00000  Uiso   1.00
H217   H     0.53433   0.05280   0.41861   0.00000  Uiso   1.00
H218   H     0.55272   0.86263   0.52328   0.00000  Uiso   1.00
H219   H     0.77741   0.12262   0.63296   0.00000  Uiso   1.00
H220   H     0.51081   0.11793   0.30573   0.00000  Uiso   1.00
H221   H     0.54958   0.71691   0.52644   0.00000  Uiso   1.00
O222   O     0.95813   0.14662   0.60549   0.00000  Uiso   1.00
O223   O     0.60836   0.14046   0.17617   0.00000  Uiso   1.00
O224   O     0.65923   0.61434   0.46574   0.00000  Uiso   1.00
N225   N     0.96558   0.08496   0.51195   0.00000  Uiso   1.00
N226   N     0.71633   0.08059   0.20601   0.00000  Uiso   1.00
N227   N     0.75257   0.70567   0.41234   0.00000  Uiso   1.00
N228   N     0.82642   0.10507   0.59004   0.00000  Uiso   1.00
N229   N     0.57717   0.10070   0.28410   0.00000  Uiso   1.00
N230   N     0.61341   0.72578   0.49043   0.00000  Uiso   1.00
C231   C     0.32376   0.45530   0.36992   0.00000  Uiso   1.00
C232   C     0.32884   0.49594   0.42815   0.00000  Uiso   1.00
C233   C     0.41062   0.51891   0.43361   0.00000  Uiso   1.00
C234   C     0.40036   0.55524   0.49078   0.00000  Uiso   1.00
C235   C     0.42177   0.61642   0.57359   0.00000  Uiso   1.00
C236   C     0.26015   0.49474   0.34383   0.00000  Uiso   1.00
C237   C     0.28418   0.51671   0.27840   0.00000  Uiso   1.00
C238   C     0.21609   0.55202   0.26459   0.00000  Uiso   1.00
C239   C     0.13082   0.61131   0.21649   0.00000  Uiso   1.00
C240   C     0.27014   0.39142   0.40071   0.00000  Uiso   1.00
C241   C     0.30257   0.32650   0.38308   0.00000  Uiso   1.00
C242   C     0.24288   0.27482   0.41714   0.00000  Uiso   1.00
C243   C     0.17314   0.17368   0.45734   0.00000  Uiso   1.00
C244   C     0.16010   0.47894   0.46175   0.00000  Uiso   1.00
C245   C     0.23994   0.50878   0.47803   0.00000  Uiso   1.00
C246   C     0.22956   0.54508   0.53521   0.00000  Uiso   1.00
C247   C     0.31131   0.56810   0.54075   0.00000  Uiso   1.00
C248   C     0.17126   0.50759   0.39371   0.00000  Uiso   1.00
C249   C     0.10311   0.54287   0.38000   0.00000  Uiso   1.00
C250   C     0.12704   0.56489   0.31456   0.00000  Uiso   1.00
C251   C     0.18125   0.40426   0.45059   0.00000  Uiso   1.00
C252   C     0.12150   0.35267   0.48468   0.00000  Uiso   1.00
C253   C     0.15383   0.28769   0.46711   0.00000  Uiso   1.00
H254   H     0.39296   0.44530   0.33109   0.00000  Uiso   1.00
H255   H     0.47940   0.50897   0.39499   0.00000  Uiso   1.00
H256   H     0.35297   0.50676   0.23981   0.00000  Uiso   1.00
H257   H     0.37136   0.31658   0.34447   0.00000  Uiso   1.00
H258   H     0.53603   0.58525   0.48783   0.00000  Uiso   1.00
H259   H     0.26944   0.58056   0.16061   0.00000  Uiso   1.00
H260   H     0.30821   0.17954   0.38132   0.00000  Uiso   1.00
H261   H     0.09089   0.48894   0.50059   0.00000  Uiso   1.00
H262   H     0.16076   0.55501   0.57380   0.00000  Uiso   1.00
H263   H     0.03433   0.55280   0.41861   0.00000  Uiso   1.00
H264   H     0.05272   0.36263   0.52328   0.00000  Uiso   1.00
H265   H     0.27741   0.62262   0.63296   0.00000  Uiso   1.00
H266   H     0.01081   0.61793   0.30573   0.00000  Uiso   1.00
H267   H     0.04958   0.21691   0.52644   0.00000  Uiso   1.00
O268   O     0.45813   0.64662   0.60549   0.00000  Uiso   1.00
O269   O     0.10836   0.64046   0.17617   0.00000  Uiso   1.00
O270   O     0.15923   0.11434   0.46574   0.00000  Uiso   1.00
N271   N     0.46558   0.58496   0.51195   0.00000  Uiso   1.00
N272   N     0.21633   0.58059   0.20601   0.00000  Uiso   1.00
N273   N     0.25257   0.20567   0.41234   0.00000  Uiso   1.00
N274   N     0.32642   0.60507   0.59004   0.00000  Uiso   1.00
N275   N     0.07717   0.60070   0.28410   0.00000  Uiso   1.00
N276   N     0.11341   0.22578   0.49043   0.00000  Uiso   1.00
C277   C     0.17624   0.95530   0.13008   0.00000  Uiso   1.00
C278   C     0.17116   0.99594   0.07185   0.00000  Uiso   1.00
C279   C     0.08938   0.01891   0.06639   0.00000  Uiso   1.00
C280   C     0.09964   0.05524   0.00922   0.00000  Uiso   1.00
C281   C     0.07823   0.11642   0.92641   0.00000  Uiso   1.00
C282   C     0.23985   0.99474   0.15617   0.00000  Uiso   1.00
C283   C     0.21582   0.01671   0.22160   0.00000  Uiso   1.00
C284   C     0.28391   0.05202   0.23541   0.00000  Uiso   1.00
C285   C     0.36918   0.11131   0.28351   0.00000  Uiso   1.00
C286   C     0.22986   0.89142   0.09929   0.00000  Uiso   1.00
C287   C     0.19743   0.82650   0.11692   0.00000  Uiso   1.00
C288   C     0.25712   0.77482   0.08286   0.00000  Uiso   1.00
C289   C     0.32686   0.67368   0.04266   0.00000  Uiso   1.00
C290   C     0.33990   0.97894   0.03825   0.00000  Uiso   1.00
C291   C     0.26006   0.00878   0.02197   0.00000  Uiso   1.00
C292   C     0.27044   0.04508   0.96479   0.00000  Uiso   1.00
C293   C     0.18869   0.06810   0.95925   0.00000  Uiso   1.00
C294   C     0.32874   0.00759   0.10629   0.00000  Uiso   1.00
C295   C     0.39689   0.04287   0.12000   0.00000  Uiso   1.00
C296   C     0.37296   0.06489   0.18544   0.00000  Uiso   1.00
C297   C     0.31875   0.90426   0.04941   0.00000  Uiso   1.00
C298   C     0.37850   0.85267   0.01532   0.00000  Uiso   1.00
C299   C     0.34617   0.78769   0.03289   0.00000  Uiso   1.00
H300   H     0.10704   0.94530   0.16891   0.00000  Uiso   1.00
H301   H     0.02060   0.00897   0.10501   0.00000  Uiso   1.00
H302   H     0.14703   0.00676   0.26019   0.00000  Uiso   1.00
H303   H     0.12864   0.81658   0.15553   0.00000  Uiso   1.00
H304   H     0.96397   0.08525   0.01217   0.00000  Uiso   1.00
H305   H     0.23056   0.08056   0.33939   0.00000  Uiso   1.00
H306   H     0.19179   0.67954   0.11868   0.00000  Uiso   1.00
H307   H     0.40911   0.98894   0.99941   0.00000  Uiso   1.00
H308   H     0.33924   0.05501   0.92620   0.00000  Uiso   1.00
H309   H     0.46567   0.05280   0.08139   0.00000  Uiso   1.00
H310   H     0.44728   0.86263   0.97672   0.00000  Uiso   1.00
H311   H     0.22259   0.12262   0.86704   0.00000  Uiso   1.00
H312   H     0.48919   0.11793   0.19427   0.00000  Uiso   1.00
H313   H     0.45042   0.71691   0.97356   0.00000  Uiso   1.00
O314   O     0.04187   0.14662   0.89451   0.00000  Uiso   1.00
O315   O     0.39164   0.14046   0.32383   0.00000  Uiso   1.00
O316   O     0.34077   0.61434   0.03426   0.00000  Uiso   1.00
N317   N     0.03442   0.08496   0.98805   0.00000  Uiso   1.00
N318   N     0.28367   0.08059   0.29399   0.00000  Uiso   1.00
N319   N     0.24743   0.70567   0.08766   0.00000  Uiso   1.00
N320   N     0.17358   0.10507   0.90996   0.00000  Uiso   1.00
N321   N     0.42283   0.10070   0.21590   0.00000  Uiso   1.00
N322   N     0.38659   0.72578   0.00957   0.00000  Uiso   1.00
C323   C     0.67624   0.45530   0.13008   0.00000  Uiso   1.00
C324   C     0.67116   0.49594   0.07185   0.00000  Uiso   1.00
C325   C     0.58938   0.51891   0.06639   0.00000  Uiso   1.00
C326   C     0.59964   0.55524   0.00922   0.00000  Uiso   1.00
C327   C     0.57823   0.61642   0.92641   0.00000  Uiso   1.00
C328   C     0.73985   0.49474   0.15617   0.00000  Uiso   1.00
C329   C     0.71582   0.51671   0.22160   0.00000  Uiso   1.00
C330   C     0.78391   0.55202   0.23541   0.00000  Uiso   1.00
C331   C     0.86918   0.61131   0.28351   0.00000  Uiso   1.00
C332   C     0.72986   0.39142   0.09929   0.00000  Uiso   1.00
C333   C     0.69743   0.32650   0.11692   0.00000  Uiso   1.00
C334   C     0.75712   0.27482   0.08286   0.00000  Uiso   1.00
C335   C     0.82686   0.17368   0.04266   0.00000  Uiso   1.00
C336   C     0.83990   0.47894   0.03825   0.00000  Uiso   1.00
C337   C     0.76006   0.50878   0.02197   0.00000  Uiso   1.00
C338   C     0.77044   0.54508   0.96479   0.00000  Uiso   1.00
C339   C     0.68869   0.56810   0.95925   0.00000  Uiso   1.00
C340   C     0.82874   0.50759   0.10629   0.00000  Uiso   1.00
C341   C     0.89689   0.54287   0.12000   0.00000  Uiso   1.00
C342   C     0.87296   0.56489   0.18544   0.00000  Uiso   1.00
C343   C     0.81875   0.40426   0.04941   0.00000  Uiso   1.00
C344   C     0.87850   0.35267   0.01532   0.00000  Uiso   1.00
C345   C     0.84617   0.28769   0.03289   0.00000  Uiso   1.00
H346   H     0.60704   0.44530   0.16891   0.00000  Uiso   1.00
H347   H     0.52060   0.50897   0.10501   0.00000  Uiso   1.00
H348   H     0.64703   0.50676   0.26019   0.00000  Uiso   1.00
H349   H     0.62864   0.31658   0.15553   0.00000  Uiso   1.00
H350   H     0.46397   0.58525   0.01217   0.00000  Uiso   1.00
H351   H     0.73056   0.58056   0.33939   0.00000  Uiso   1.00
H352   H     0.69179   0.17954   0.11868   0.00000  Uiso   1.00
H353   H     0.90911   0.48894   0.99941   0.00000  Uiso   1.00
H354   H     0.83924   0.55501   0.92620   0.00000  Uiso   1.00
H355   H     0.96567   0.55280   0.08139   0.00000  Uiso   1.00
H356   H     0.94728   0.36263   0.97672   0.00000  Uiso   1.00
H357   H     0.72259   0.62262   0.86704   0.00000  Uiso   1.00
H358   H     0.98919   0.61793   0.19427   0.00000  Uiso   1.00
H359   H     0.95042   0.21691   0.97356   0.00000  Uiso   1.00
O360   O     0.54187   0.64662   0.89451   0.00000  Uiso   1.00
O361   O     0.89164   0.64046   0.32383   0.00000  Uiso   1.00
O362   O     0.84077   0.11434   0.03426   0.00000  Uiso   1.00
N363   N     0.53442   0.58496   0.98805   0.00000  Uiso   1.00
N364   N     0.78367   0.58059   0.29399   0.00000  Uiso   1.00
N365   N     0.74743   0.20567   0.08766   0.00000  Uiso   1.00
N366   N     0.67358   0.60507   0.90996   0.00000  Uiso   1.00
N367   N     0.92283   0.60070   0.21590   0.00000  Uiso   1.00
N368   N     0.88659   0.22578   0.00957   0.00000  Uiso   1.00
