data_job_04616
_audit_creation_date              2018-12-19
_audit_creation_method            'Materials Studio'
_symmetry_space_group_name_H-M    'P1'
_symmetry_Int_Tables_number       1
_symmetry_cell_setting            triclinic
loop_
_symmetry_equiv_pos_as_xyz
  x,y,z
_cell_length_a                    12.2455
_cell_length_b                    27.4554
_cell_length_c                    14.0633
_cell_angle_alpha                 90.0000
_cell_angle_beta                  90.0000
_cell_angle_gamma                 90.0000
loop_
_atom_site_label
_atom_site_type_symbol
_atom_site_fract_x
_atom_site_fract_y
_atom_site_fract_z
_atom_site_U_iso_or_equiv
_atom_site_adp_type
_atom_site_occupancy
C1     C     0.84717   0.11096   0.05065   0.00000  Uiso   1.00
C2     C     0.76209   0.13895   0.99333   0.00000  Uiso   1.00
C3     C     0.66053   0.15377   0.02618   0.00000  Uiso   1.00
C4     C     0.59453   0.17895   0.96272   0.00000  Uiso   1.00
C5     C     0.45717   0.22087   0.88784   0.00000  Uiso   1.00
C6     C     0.87186   0.06494   0.99388   0.00000  Uiso   1.00
C7     C     0.86260   0.01754   0.02720   0.00000  Uiso   1.00
C8     C     0.88901   0.98042   0.96421   0.00000  Uiso   1.00
C9     C     0.92215   0.90744   0.89021   0.00000  Uiso   1.00
C10    C     0.95099   0.14158   0.04748   0.00000  Uiso   1.00
C11    C     0.00828   0.15861   0.12586   0.00000  Uiso   1.00
C12    C     0.10134   0.18602   0.10800   0.00000  Uiso   1.00
C13    C     0.25734   0.23204   0.11722   0.00000  Uiso   1.00
C14    C     0.91057   0.12933   0.87954   0.00000  Uiso   1.00
C15    C     0.79653   0.14892   0.90039   0.00000  Uiso   1.00
C16    C     0.73068   0.17409   0.83687   0.00000  Uiso   1.00
C17    C     0.62903   0.18895   0.86962   0.00000  Uiso   1.00
C18    C     0.90630   0.07492   0.90095   0.00000  Uiso   1.00
C19    C     0.93274   0.03786   0.83789   0.00000  Uiso   1.00
C20    C     0.92352   0.99042   0.87110   0.00000  Uiso   1.00
C21    C     0.98543   0.15156   0.95454   0.00000  Uiso   1.00
C22    C     0.07843   0.17894   0.93655   0.00000  Uiso   1.00
C23    C     0.13585   0.19601   0.01489   0.00000  Uiso   1.00
H24    H     0.82036   0.10319   0.12301   0.00000  Uiso   1.00
H25    H     0.63390   0.14604   0.09811   0.00000  Uiso   1.00
H26    H     0.83595   0.00983   0.09913   0.00000  Uiso   1.00
H27    H     0.98161   0.15089   0.19777   0.00000  Uiso   1.00
H28    H     0.44235   0.19792   0.02950   0.00000  Uiso   1.00
H29    H     0.86842   0.91072   0.03167   0.00000  Uiso   1.00
H30    H     0.17557   0.20817   0.23969   0.00000  Uiso   1.00
H31    H     0.93739   0.13710   0.80718   0.00000  Uiso   1.00
H32    H     0.75735   0.18181   0.76495   0.00000  Uiso   1.00
H33    H     0.95940   0.04560   0.76598   0.00000  Uiso   1.00
H34    H     0.10505   0.18666   0.86462   0.00000  Uiso   1.00
H35    H     0.54254   0.22696   0.75910   0.00000  Uiso   1.00
H36    H     0.96862   0.93975   0.76127   0.00000  Uiso   1.00
H37    H     0.27577   0.23720   0.96928   0.00000  Uiso   1.00
O38    O     0.37189   0.24122   0.87221   0.00000  Uiso   1.00
O39    O     0.93090   0.86443   0.87506   0.00000  Uiso   1.00
O40    O     0.33386   0.25467   0.14797   0.00000  Uiso   1.00
N41    N     0.49065   0.19863   0.97167   0.00000  Uiso   1.00
N42    N     0.88898   0.93011   0.97369   0.00000  Uiso   1.00
N43    N     0.17616   0.20819   0.16816   0.00000  Uiso   1.00
N44    N     0.54456   0.21425   0.82617   0.00000  Uiso   1.00
N45    N     0.94290   0.94574   0.82819   0.00000  Uiso   1.00
N46    N     0.23007   0.22381   0.02266   0.00000  Uiso   1.00
C47    C     0.97328   0.60937   0.93553   0.00000  Uiso   1.00
C48    C     0.05896   0.63545   0.99551   0.00000  Uiso   1.00
C49    C     0.16118   0.65033   0.96434   0.00000  Uiso   1.00
C50    C     0.22767   0.67360   0.03014   0.00000  Uiso   1.00
C51    C     0.36600   0.71285   0.10906   0.00000  Uiso   1.00
C52    C     0.94675   0.56228   0.98817   0.00000  Uiso   1.00
C53    C     0.95462   0.51562   0.95081   0.00000  Uiso   1.00
C54    C     0.92663   0.47729   0.01044   0.00000  Uiso   1.00
C55    C     0.89067   0.40294   0.07793   0.00000  Uiso   1.00
C56    C     0.87046   0.64058   0.94098   0.00000  Uiso   1.00
C57    C     0.81416   0.65976   0.86395   0.00000  Uiso   1.00
C58    C     0.72193   0.68735   0.88384   0.00000  Uiso   1.00
C59    C     0.56753   0.73457   0.87807   0.00000  Uiso   1.00
C60    C     0.90957   0.62426   0.10783   0.00000  Uiso   1.00
C61    C     0.02435   0.64354   0.08910   0.00000  Uiso   1.00
C62    C     0.09070   0.66680   0.15497   0.00000  Uiso   1.00
C63    C     0.19300   0.68171   0.12390   0.00000  Uiso   1.00
C64    C     0.91215   0.57036   0.08176   0.00000  Uiso   1.00
C65    C     0.88413   0.53210   0.14145   0.00000  Uiso   1.00
C66    C     0.89196   0.48540   0.10420   0.00000  Uiso   1.00
C67    C     0.83586   0.64867   0.03457   0.00000  Uiso   1.00
C68    C     0.74369   0.67624   0.05459   0.00000  Uiso   1.00
C69    C     0.68726   0.69545   0.97760   0.00000  Uiso   1.00
H70    H     0.00021   0.60307   0.86267   0.00000  Uiso   1.00
H71    H     0.18794   0.64405   0.89190   0.00000  Uiso   1.00
H72    H     0.98139   0.50937   0.87838   0.00000  Uiso   1.00
H73    H     0.84097   0.65349   0.79154   0.00000  Uiso   1.00
H74    H     0.38081   0.69305   0.96560   0.00000  Uiso   1.00
H75    H     0.94526   0.40906   0.93708   0.00000  Uiso   1.00
H76    H     0.64915   0.71295   0.75394   0.00000  Uiso   1.00
H77    H     0.88262   0.63056   0.18070   0.00000  Uiso   1.00
H78    H     0.06390   0.67306   0.22739   0.00000  Uiso   1.00
H79    H     0.85735   0.53837   0.21387   0.00000  Uiso   1.00
H80    H     0.71693   0.68249   0.12702   0.00000  Uiso   1.00
H81    H     0.28014   0.71658   0.23790   0.00000  Uiso   1.00
H82    H     0.84459   0.43260   0.20937   0.00000  Uiso   1.00
H83    H     0.54848   0.73649   0.02624   0.00000  Uiso   1.00
O84    O     0.45186   0.73226   0.12674   0.00000  Uiso   1.00
O85    O     0.88041   0.35968   0.08931   0.00000  Uiso   1.00
O86    O     0.49194   0.75839   0.84904   0.00000  Uiso   1.00
N87    N     0.33224   0.69276   0.02328   0.00000  Uiso   1.00
N88    N     0.92504   0.42725   0.99661   0.00000  Uiso   1.00
N89    N     0.64819   0.71136   0.82539   0.00000  Uiso   1.00
N90    N     0.27807   0.70543   0.16979   0.00000  Uiso   1.00
N91    N     0.87087   0.43992   0.14313   0.00000  Uiso   1.00
N92    N     0.59402   0.72402   0.97191   0.00000  Uiso   1.00
C93    C     0.15283   0.88904   0.55065   0.00000  Uiso   1.00
C94    C     0.23791   0.86105   0.49333   0.00000  Uiso   1.00
C95    C     0.33947   0.84623   0.52618   0.00000  Uiso   1.00
C96    C     0.40547   0.82105   0.46272   0.00000  Uiso   1.00
C97    C     0.54283   0.77913   0.38784   0.00000  Uiso   1.00
C98    C     0.12814   0.93506   0.49388   0.00000  Uiso   1.00
C99    C     0.13740   0.98246   0.52720   0.00000  Uiso   1.00
C100   C     0.11099   0.01958   0.46421   0.00000  Uiso   1.00
C101   C     0.07785   0.09256   0.39021   0.00000  Uiso   1.00
C102   C     0.04901   0.85842   0.54748   0.00000  Uiso   1.00
C103   C     0.99172   0.84139   0.62586   0.00000  Uiso   1.00
C104   C     0.89866   0.81398   0.60800   0.00000  Uiso   1.00
C105   C     0.74266   0.76796   0.61722   0.00000  Uiso   1.00
C106   C     0.08943   0.87067   0.37954   0.00000  Uiso   1.00
C107   C     0.20347   0.85108   0.40039   0.00000  Uiso   1.00
C108   C     0.26932   0.82591   0.33687   0.00000  Uiso   1.00
C109   C     0.37097   0.81105   0.36962   0.00000  Uiso   1.00
C110   C     0.09370   0.92508   0.40095   0.00000  Uiso   1.00
C111   C     0.06726   0.96214   0.33789   0.00000  Uiso   1.00
C112   C     0.07648   0.00958   0.37110   0.00000  Uiso   1.00
C113   C     0.01457   0.84844   0.45454   0.00000  Uiso   1.00
C114   C     0.92157   0.82106   0.43655   0.00000  Uiso   1.00
C115   C     0.86415   0.80399   0.51489   0.00000  Uiso   1.00
H116   H     0.17964   0.89681   0.62301   0.00000  Uiso   1.00
H117   H     0.36610   0.85396   0.59811   0.00000  Uiso   1.00
H118   H     0.16405   0.99017   0.59913   0.00000  Uiso   1.00
H119   H     0.01839   0.84911   0.69777   0.00000  Uiso   1.00
H120   H     0.55765   0.80208   0.52950   0.00000  Uiso   1.00
H121   H     0.13158   0.08928   0.53167   0.00000  Uiso   1.00
H122   H     0.82443   0.79183   0.73969   0.00000  Uiso   1.00
H123   H     0.06261   0.86290   0.30718   0.00000  Uiso   1.00
H124   H     0.24265   0.81819   0.26495   0.00000  Uiso   1.00
H125   H     0.04060   0.95440   0.26598   0.00000  Uiso   1.00
H126   H     0.89495   0.81334   0.36462   0.00000  Uiso   1.00
H127   H     0.45746   0.77304   0.25910   0.00000  Uiso   1.00
H128   H     0.03138   0.06025   0.26127   0.00000  Uiso   1.00
H129   H     0.72423   0.76280   0.46928   0.00000  Uiso   1.00
O130   O     0.62811   0.75878   0.37221   0.00000  Uiso   1.00
O131   O     0.06910   0.13557   0.37506   0.00000  Uiso   1.00
O132   O     0.66614   0.74533   0.64797   0.00000  Uiso   1.00
N133   N     0.50935   0.80137   0.47167   0.00000  Uiso   1.00
N134   N     0.11102   0.06989   0.47369   0.00000  Uiso   1.00
N135   N     0.82384   0.79181   0.66816   0.00000  Uiso   1.00
N136   N     0.45544   0.78575   0.32617   0.00000  Uiso   1.00
N137   N     0.05710   0.05426   0.32819   0.00000  Uiso   1.00
N138   N     0.76993   0.77619   0.52266   0.00000  Uiso   1.00
C139   C     0.02672   0.39063   0.43553   0.00000  Uiso   1.00
C140   C     0.94104   0.36455   0.49551   0.00000  Uiso   1.00
C141   C     0.83882   0.34967   0.46434   0.00000  Uiso   1.00
C142   C     0.77233   0.32640   0.53014   0.00000  Uiso   1.00
C143   C     0.63400   0.28715   0.60906   0.00000  Uiso   1.00
C144   C     0.05325   0.43772   0.48817   0.00000  Uiso   1.00
C145   C     0.04538   0.48438   0.45081   0.00000  Uiso   1.00
C146   C     0.07337   0.52271   0.51044   0.00000  Uiso   1.00
C147   C     0.10933   0.59706   0.57793   0.00000  Uiso   1.00
C148   C     0.12954   0.35942   0.44098   0.00000  Uiso   1.00
C149   C     0.18584   0.34024   0.36395   0.00000  Uiso   1.00
C150   C     0.27807   0.31265   0.38384   0.00000  Uiso   1.00
C151   C     0.43247   0.26543   0.37807   0.00000  Uiso   1.00
C152   C     0.09043   0.37574   0.60783   0.00000  Uiso   1.00
C153   C     0.97565   0.35646   0.58910   0.00000  Uiso   1.00
C154   C     0.90930   0.33320   0.65497   0.00000  Uiso   1.00
C155   C     0.80700   0.31829   0.62390   0.00000  Uiso   1.00
C156   C     0.08785   0.42964   0.58176   0.00000  Uiso   1.00
C157   C     0.11587   0.46790   0.64145   0.00000  Uiso   1.00
C158   C     0.10804   0.51460   0.60420   0.00000  Uiso   1.00
C159   C     0.16414   0.35133   0.53457   0.00000  Uiso   1.00
C160   C     0.25631   0.32376   0.55459   0.00000  Uiso   1.00
C161   C     0.31274   0.30455   0.47760   0.00000  Uiso   1.00
H162   H     0.99979   0.39693   0.36267   0.00000  Uiso   1.00
H163   H     0.81206   0.35595   0.39190   0.00000  Uiso   1.00
H164   H     0.01861   0.49063   0.37838   0.00000  Uiso   1.00
H165   H     0.15903   0.34651   0.29154   0.00000  Uiso   1.00
H166   H     0.61919   0.30695   0.46560   0.00000  Uiso   1.00
H167   H     0.05474   0.59094   0.43708   0.00000  Uiso   1.00
H168   H     0.35085   0.28705   0.25394   0.00000  Uiso   1.00
H169   H     0.11738   0.36944   0.68070   0.00000  Uiso   1.00
H170   H     0.93610   0.32694   0.72739   0.00000  Uiso   1.00
H171   H     0.14265   0.46163   0.71387   0.00000  Uiso   1.00
H172   H     0.28307   0.31751   0.62702   0.00000  Uiso   1.00
H173   H     0.71986   0.28342   0.73790   0.00000  Uiso   1.00
H174   H     0.15541   0.56740   0.70937   0.00000  Uiso   1.00
H175   H     0.45152   0.26351   0.52624   0.00000  Uiso   1.00
O176   O     0.54814   0.26774   0.62674   0.00000  Uiso   1.00
O177   O     0.11959   0.64032   0.58931   0.00000  Uiso   1.00
O178   O     0.50806   0.24161   0.34904   0.00000  Uiso   1.00
N179   N     0.66776   0.30724   0.52328   0.00000  Uiso   1.00
N180   N     0.07496   0.57275   0.49661   0.00000  Uiso   1.00
N181   N     0.35181   0.28864   0.32539   0.00000  Uiso   1.00
N182   N     0.72193   0.29457   0.66979   0.00000  Uiso   1.00
N183   N     0.12913   0.56008   0.64313   0.00000  Uiso   1.00
N184   N     0.40598   0.27598   0.47191   0.00000  Uiso   1.00
C185   C     0.34717   0.38904   0.05065   0.00000  Uiso   1.00
C186   C     0.26209   0.36105   0.99333   0.00000  Uiso   1.00
C187   C     0.16053   0.34623   0.02618   0.00000  Uiso   1.00
C188   C     0.09453   0.32105   0.96272   0.00000  Uiso   1.00
C189   C     0.95717   0.27913   0.88784   0.00000  Uiso   1.00
C190   C     0.37186   0.43506   0.99388   0.00000  Uiso   1.00
C191   C     0.36260   0.48246   0.02720   0.00000  Uiso   1.00
C192   C     0.38901   0.51958   0.96421   0.00000  Uiso   1.00
C193   C     0.42215   0.59256   0.89021   0.00000  Uiso   1.00
C194   C     0.45099   0.35842   0.04748   0.00000  Uiso   1.00
C195   C     0.50828   0.34139   0.12586   0.00000  Uiso   1.00
C196   C     0.60134   0.31398   0.10800   0.00000  Uiso   1.00
C197   C     0.75734   0.26796   0.11722   0.00000  Uiso   1.00
C198   C     0.41057   0.37067   0.87954   0.00000  Uiso   1.00
C199   C     0.29653   0.35108   0.90039   0.00000  Uiso   1.00
C200   C     0.23068   0.32591   0.83687   0.00000  Uiso   1.00
C201   C     0.12903   0.31105   0.86962   0.00000  Uiso   1.00
C202   C     0.40630   0.42508   0.90095   0.00000  Uiso   1.00
C203   C     0.43274   0.46214   0.83789   0.00000  Uiso   1.00
C204   C     0.42352   0.50958   0.87110   0.00000  Uiso   1.00
C205   C     0.48543   0.34844   0.95454   0.00000  Uiso   1.00
C206   C     0.57843   0.32106   0.93655   0.00000  Uiso   1.00
C207   C     0.63585   0.30399   0.01489   0.00000  Uiso   1.00
H208   H     0.32036   0.39681   0.12301   0.00000  Uiso   1.00
H209   H     0.13390   0.35396   0.09811   0.00000  Uiso   1.00
H210   H     0.33595   0.49017   0.09913   0.00000  Uiso   1.00
H211   H     0.48161   0.34911   0.19777   0.00000  Uiso   1.00
H212   H     0.94235   0.30208   0.02950   0.00000  Uiso   1.00
H213   H     0.36842   0.58928   0.03167   0.00000  Uiso   1.00
H214   H     0.67557   0.29183   0.23969   0.00000  Uiso   1.00
H215   H     0.43739   0.36290   0.80718   0.00000  Uiso   1.00
H216   H     0.25735   0.31819   0.76495   0.00000  Uiso   1.00
H217   H     0.45940   0.45440   0.76598   0.00000  Uiso   1.00
H218   H     0.60505   0.31334   0.86462   0.00000  Uiso   1.00
H219   H     0.04254   0.27304   0.75910   0.00000  Uiso   1.00
H220   H     0.46862   0.56025   0.76127   0.00000  Uiso   1.00
H221   H     0.77577   0.26280   0.96928   0.00000  Uiso   1.00
O222   O     0.87189   0.25878   0.87221   0.00000  Uiso   1.00
O223   O     0.43090   0.63557   0.87506   0.00000  Uiso   1.00
O224   O     0.83386   0.24533   0.14797   0.00000  Uiso   1.00
N225   N     0.99065   0.30137   0.97167   0.00000  Uiso   1.00
N226   N     0.38898   0.56989   0.97369   0.00000  Uiso   1.00
N227   N     0.67616   0.29181   0.16816   0.00000  Uiso   1.00
N228   N     0.04456   0.28575   0.82617   0.00000  Uiso   1.00
N229   N     0.44290   0.55426   0.82819   0.00000  Uiso   1.00
N230   N     0.73007   0.27619   0.02266   0.00000  Uiso   1.00
C231   C     0.47328   0.89063   0.93553   0.00000  Uiso   1.00
C232   C     0.55896   0.86455   0.99551   0.00000  Uiso   1.00
C233   C     0.66118   0.84967   0.96434   0.00000  Uiso   1.00
C234   C     0.72767   0.82640   0.03014   0.00000  Uiso   1.00
C235   C     0.86600   0.78715   0.10906   0.00000  Uiso   1.00
C236   C     0.44675   0.93772   0.98817   0.00000  Uiso   1.00
C237   C     0.45462   0.98438   0.95081   0.00000  Uiso   1.00
C238   C     0.42663   0.02271   0.01044   0.00000  Uiso   1.00
C239   C     0.39067   0.09706   0.07793   0.00000  Uiso   1.00
C240   C     0.37046   0.85942   0.94098   0.00000  Uiso   1.00
C241   C     0.31416   0.84024   0.86395   0.00000  Uiso   1.00
C242   C     0.22193   0.81265   0.88384   0.00000  Uiso   1.00
C243   C     0.06753   0.76543   0.87807   0.00000  Uiso   1.00
C244   C     0.40957   0.87574   0.10783   0.00000  Uiso   1.00
C245   C     0.52435   0.85646   0.08910   0.00000  Uiso   1.00
C246   C     0.59070   0.83320   0.15497   0.00000  Uiso   1.00
C247   C     0.69300   0.81829   0.12390   0.00000  Uiso   1.00
C248   C     0.41215   0.92964   0.08176   0.00000  Uiso   1.00
C249   C     0.38413   0.96790   0.14145   0.00000  Uiso   1.00
C250   C     0.39196   0.01460   0.10420   0.00000  Uiso   1.00
C251   C     0.33586   0.85133   0.03457   0.00000  Uiso   1.00
C252   C     0.24369   0.82376   0.05459   0.00000  Uiso   1.00
C253   C     0.18726   0.80455   0.97760   0.00000  Uiso   1.00
H254   H     0.50021   0.89693   0.86267   0.00000  Uiso   1.00
H255   H     0.68794   0.85595   0.89190   0.00000  Uiso   1.00
H256   H     0.48139   0.99063   0.87838   0.00000  Uiso   1.00
H257   H     0.34097   0.84651   0.79154   0.00000  Uiso   1.00
H258   H     0.88081   0.80695   0.96560   0.00000  Uiso   1.00
H259   H     0.44526   0.09094   0.93708   0.00000  Uiso   1.00
H260   H     0.14915   0.78705   0.75394   0.00000  Uiso   1.00
H261   H     0.38262   0.86944   0.18070   0.00000  Uiso   1.00
H262   H     0.56390   0.82694   0.22739   0.00000  Uiso   1.00
H263   H     0.35735   0.96163   0.21387   0.00000  Uiso   1.00
H264   H     0.21693   0.81751   0.12702   0.00000  Uiso   1.00
H265   H     0.78014   0.78342   0.23790   0.00000  Uiso   1.00
H266   H     0.34459   0.06740   0.20937   0.00000  Uiso   1.00
H267   H     0.04848   0.76351   0.02624   0.00000  Uiso   1.00
O268   O     0.95186   0.76774   0.12674   0.00000  Uiso   1.00
O269   O     0.38041   0.14032   0.08931   0.00000  Uiso   1.00
O270   O     0.99194   0.74161   0.84904   0.00000  Uiso   1.00
N271   N     0.83224   0.80724   0.02328   0.00000  Uiso   1.00
N272   N     0.42504   0.07275   0.99661   0.00000  Uiso   1.00
N273   N     0.14819   0.78864   0.82539   0.00000  Uiso   1.00
N274   N     0.77807   0.79457   0.16979   0.00000  Uiso   1.00
N275   N     0.37087   0.06008   0.14313   0.00000  Uiso   1.00
N276   N     0.09402   0.77598   0.97191   0.00000  Uiso   1.00
C277   C     0.65283   0.61096   0.55065   0.00000  Uiso   1.00
C278   C     0.73791   0.63895   0.49333   0.00000  Uiso   1.00
C279   C     0.83947   0.65377   0.52618   0.00000  Uiso   1.00
C280   C     0.90547   0.67895   0.46272   0.00000  Uiso   1.00
C281   C     0.04283   0.72087   0.38784   0.00000  Uiso   1.00
C282   C     0.62814   0.56494   0.49388   0.00000  Uiso   1.00
C283   C     0.63740   0.51754   0.52720   0.00000  Uiso   1.00
C284   C     0.61099   0.48042   0.46421   0.00000  Uiso   1.00
C285   C     0.57785   0.40744   0.39021   0.00000  Uiso   1.00
C286   C     0.54901   0.64158   0.54748   0.00000  Uiso   1.00
C287   C     0.49172   0.65861   0.62586   0.00000  Uiso   1.00
C288   C     0.39866   0.68602   0.60800   0.00000  Uiso   1.00
C289   C     0.24266   0.73204   0.61722   0.00000  Uiso   1.00
C290   C     0.58943   0.62933   0.37954   0.00000  Uiso   1.00
C291   C     0.70347   0.64892   0.40039   0.00000  Uiso   1.00
C292   C     0.76932   0.67409   0.33687   0.00000  Uiso   1.00
C293   C     0.87097   0.68895   0.36962   0.00000  Uiso   1.00
C294   C     0.59370   0.57492   0.40095   0.00000  Uiso   1.00
C295   C     0.56726   0.53786   0.33789   0.00000  Uiso   1.00
C296   C     0.57648   0.49042   0.37110   0.00000  Uiso   1.00
C297   C     0.51457   0.65156   0.45454   0.00000  Uiso   1.00
C298   C     0.42157   0.67894   0.43655   0.00000  Uiso   1.00
C299   C     0.36415   0.69601   0.51489   0.00000  Uiso   1.00
H300   H     0.67964   0.60319   0.62301   0.00000  Uiso   1.00
H301   H     0.86610   0.64604   0.59811   0.00000  Uiso   1.00
H302   H     0.66405   0.50983   0.59913   0.00000  Uiso   1.00
H303   H     0.51839   0.65089   0.69777   0.00000  Uiso   1.00
H304   H     0.05765   0.69792   0.52950   0.00000  Uiso   1.00
H305   H     0.63158   0.41072   0.53167   0.00000  Uiso   1.00
H306   H     0.32443   0.70817   0.73969   0.00000  Uiso   1.00
H307   H     0.56261   0.63710   0.30718   0.00000  Uiso   1.00
H308   H     0.74265   0.68181   0.26495   0.00000  Uiso   1.00
H309   H     0.54060   0.54560   0.26598   0.00000  Uiso   1.00
H310   H     0.39495   0.68666   0.36462   0.00000  Uiso   1.00
H311   H     0.95746   0.72696   0.25910   0.00000  Uiso   1.00
H312   H     0.53138   0.43975   0.26127   0.00000  Uiso   1.00
H313   H     0.22423   0.73720   0.46928   0.00000  Uiso   1.00
O314   O     0.12811   0.74122   0.37221   0.00000  Uiso   1.00
O315   O     0.56910   0.36443   0.37506   0.00000  Uiso   1.00
O316   O     0.16614   0.75467   0.64797   0.00000  Uiso   1.00
N317   N     0.00935   0.69863   0.47167   0.00000  Uiso   1.00
N318   N     0.61102   0.43011   0.47369   0.00000  Uiso   1.00
N319   N     0.32384   0.70819   0.66816   0.00000  Uiso   1.00
N320   N     0.95544   0.71425   0.32617   0.00000  Uiso   1.00
N321   N     0.55710   0.44574   0.32819   0.00000  Uiso   1.00
N322   N     0.26993   0.72381   0.52266   0.00000  Uiso   1.00
C323   C     0.52672   0.10937   0.43553   0.00000  Uiso   1.00
C324   C     0.44104   0.13545   0.49551   0.00000  Uiso   1.00
C325   C     0.33882   0.15033   0.46434   0.00000  Uiso   1.00
C326   C     0.27233   0.17360   0.53014   0.00000  Uiso   1.00
C327   C     0.13400   0.21285   0.60906   0.00000  Uiso   1.00
C328   C     0.55325   0.06228   0.48817   0.00000  Uiso   1.00
C329   C     0.54538   0.01562   0.45081   0.00000  Uiso   1.00
C330   C     0.57337   0.97729   0.51044   0.00000  Uiso   1.00
C331   C     0.60933   0.90294   0.57793   0.00000  Uiso   1.00
C332   C     0.62954   0.14058   0.44098   0.00000  Uiso   1.00
C333   C     0.68584   0.15976   0.36395   0.00000  Uiso   1.00
C334   C     0.77807   0.18735   0.38384   0.00000  Uiso   1.00
C335   C     0.93247   0.23457   0.37807   0.00000  Uiso   1.00
C336   C     0.59043   0.12426   0.60783   0.00000  Uiso   1.00
C337   C     0.47565   0.14354   0.58910   0.00000  Uiso   1.00
C338   C     0.40930   0.16680   0.65497   0.00000  Uiso   1.00
C339   C     0.30700   0.18171   0.62390   0.00000  Uiso   1.00
C340   C     0.58785   0.07036   0.58176   0.00000  Uiso   1.00
C341   C     0.61587   0.03210   0.64145   0.00000  Uiso   1.00
C342   C     0.60804   0.98540   0.60420   0.00000  Uiso   1.00
C343   C     0.66414   0.14867   0.53457   0.00000  Uiso   1.00
C344   C     0.75631   0.17624   0.55459   0.00000  Uiso   1.00
C345   C     0.81274   0.19545   0.47760   0.00000  Uiso   1.00
H346   H     0.49979   0.10307   0.36267   0.00000  Uiso   1.00
H347   H     0.31206   0.14405   0.39190   0.00000  Uiso   1.00
H348   H     0.51861   0.00937   0.37838   0.00000  Uiso   1.00
H349   H     0.65903   0.15349   0.29154   0.00000  Uiso   1.00
H350   H     0.11919   0.19305   0.46560   0.00000  Uiso   1.00
H351   H     0.55474   0.90906   0.43708   0.00000  Uiso   1.00
H352   H     0.85085   0.21295   0.25394   0.00000  Uiso   1.00
H353   H     0.61738   0.13056   0.68070   0.00000  Uiso   1.00
H354   H     0.43610   0.17306   0.72739   0.00000  Uiso   1.00
H355   H     0.64265   0.03837   0.71387   0.00000  Uiso   1.00
H356   H     0.78307   0.18249   0.62702   0.00000  Uiso   1.00
H357   H     0.21986   0.21658   0.73790   0.00000  Uiso   1.00
H358   H     0.65541   0.93260   0.70937   0.00000  Uiso   1.00
H359   H     0.95152   0.23649   0.52624   0.00000  Uiso   1.00
O360   O     0.04814   0.23226   0.62674   0.00000  Uiso   1.00
O361   O     0.61959   0.85968   0.58931   0.00000  Uiso   1.00
O362   O     0.00806   0.25839   0.34904   0.00000  Uiso   1.00
N363   N     0.16776   0.19276   0.52328   0.00000  Uiso   1.00
N364   N     0.57496   0.92725   0.49661   0.00000  Uiso   1.00
N365   N     0.85181   0.21136   0.32539   0.00000  Uiso   1.00
N366   N     0.22193   0.20543   0.66979   0.00000  Uiso   1.00
N367   N     0.62913   0.93992   0.64313   0.00000  Uiso   1.00
N368   N     0.90598   0.22402   0.47191   0.00000  Uiso   1.00
