data_job_01951
_audit_creation_date              2018-12-19
_audit_creation_method            'Materials Studio'
_symmetry_space_group_name_H-M    'P1'
_symmetry_Int_Tables_number       1
_symmetry_cell_setting            triclinic
loop_
_symmetry_equiv_pos_as_xyz
  x,y,z
_cell_length_a                    9.7473
_cell_length_b                    10.5776
_cell_length_c                    13.6523
_cell_angle_alpha                 74.0745
_cell_angle_beta                  98.8147
_cell_angle_gamma                 70.8910
loop_
_atom_site_label
_atom_site_type_symbol
_atom_site_fract_x
_atom_site_fract_y
_atom_site_fract_z
_atom_site_U_iso_or_equiv
_atom_site_adp_type
_atom_site_occupancy
C1     C     0.22850   0.98361   0.17161   0.00000  Uiso   1.00
C2     C     0.26079   0.11336   0.11755   0.00000  Uiso   1.00
C3     C     0.23942   0.17389   0.00961   0.00000  Uiso   1.00
C4     C     0.27574   0.29220   0.97582   0.00000  Uiso   1.00
C5     C     0.31749   0.48515   0.88099   0.00000  Uiso   1.00
C6     C     0.37568   0.87595   0.25226   0.00000  Uiso   1.00
C7     C     0.45089   0.73686   0.25757   0.00000  Uiso   1.00
C8     C     0.58390   0.65532   0.33719   0.00000  Uiso   1.00
C9     C     0.80396   0.47966   0.45153   0.00000  Uiso   1.00
C10    C     0.11927   0.03176   0.23544   0.00000  Uiso   1.00
C11    C     0.97889   0.02364   0.22664   0.00000  Uiso   1.00
C12    C     0.89604   0.07325   0.29211   0.00000  Uiso   1.00
C13    C     0.71798   0.13951   0.38035   0.00000  Uiso   1.00
C14    C     0.33098   0.08611   0.30356   0.00000  Uiso   1.00
C15    C     0.31646   0.16902   0.18923   0.00000  Uiso   1.00
C16    C     0.35281   0.28729   0.15559   0.00000  Uiso   1.00
C17    C     0.33150   0.34798   0.04761   0.00000  Uiso   1.00
C18    C     0.43135   0.93161   0.32392   0.00000  Uiso   1.00
C19    C     0.56427   0.85026   0.40356   0.00000  Uiso   1.00
C20    C     0.63967   0.71109   0.40899   0.00000  Uiso   1.00
C21    C     0.17493   0.08743   0.30711   0.00000  Uiso   1.00
C22    C     0.09228   0.13705   0.37262   0.00000  Uiso   1.00
C23    C     0.95181   0.12902   0.36391   0.00000  Uiso   1.00
H24    H     0.18517   0.94026   0.11582   0.00000  Uiso   1.00
H25    H     0.19636   0.13076   0.95417   0.00000  Uiso   1.00
H26    H     0.40778   0.69381   0.20210   0.00000  Uiso   1.00
H27    H     0.93586   0.98055   0.17117   0.00000  Uiso   1.00
H28    H     0.23336   0.36649   0.80657   0.00000  Uiso   1.00
H29    H     0.67913   0.44513   0.32937   0.00000  Uiso   1.00
H30    H     0.68399   0.04978   0.26414   0.00000  Uiso   1.00
H31    H     0.37432   0.12945   0.35936   0.00000  Uiso   1.00
H32    H     0.39589   0.33034   0.21107   0.00000  Uiso   1.00
H33    H     0.60731   0.89338   0.45901   0.00000  Uiso   1.00
H34    H     0.13539   0.18013   0.42807   0.00000  Uiso   1.00
H35    H     0.39532   0.52847   0.01508   0.00000  Uiso   1.00
H36    H     0.84108   0.60710   0.53789   0.00000  Uiso   1.00
H37    H     0.84595   0.21176   0.47265   0.00000  Uiso   1.00
O38    O     0.32516   0.57619   0.80888   0.00000  Uiso   1.00
O39    O     0.90997   0.36739   0.49479   0.00000  Uiso   1.00
O40    O     0.60437   0.16069   0.40921   0.00000  Uiso   1.00
N41    N     0.26849   0.37706   0.87599   0.00000  Uiso   1.00
N42    N     0.68527   0.51564   0.36477   0.00000  Uiso   1.00
N43    N     0.75491   0.08091   0.30380   0.00000  Uiso   1.00
N44    N     0.35563   0.46422   0.98819   0.00000  Uiso   1.00
N45    N     0.77241   0.60281   0.47697   0.00000  Uiso   1.00
N46    N     0.84206   0.16807   0.41600   0.00000  Uiso   1.00
C47    C     0.77150   0.01639   0.82839   0.00000  Uiso   1.00
C48    C     0.73921   0.88664   0.88245   0.00000  Uiso   1.00
C49    C     0.76058   0.82611   0.99039   0.00000  Uiso   1.00
C50    C     0.72426   0.70780   0.02418   0.00000  Uiso   1.00
C51    C     0.68251   0.51485   0.11901   0.00000  Uiso   1.00
C52    C     0.62432   0.12405   0.74774   0.00000  Uiso   1.00
C53    C     0.54911   0.26314   0.74243   0.00000  Uiso   1.00
C54    C     0.41610   0.34468   0.66281   0.00000  Uiso   1.00
C55    C     0.19604   0.52034   0.54847   0.00000  Uiso   1.00
C56    C     0.88073   0.96824   0.76456   0.00000  Uiso   1.00
C57    C     0.02111   0.97636   0.77336   0.00000  Uiso   1.00
C58    C     0.10396   0.92675   0.70789   0.00000  Uiso   1.00
C59    C     0.28202   0.86049   0.61965   0.00000  Uiso   1.00
C60    C     0.66902   0.91389   0.69644   0.00000  Uiso   1.00
C61    C     0.68354   0.83098   0.81077   0.00000  Uiso   1.00
C62    C     0.64719   0.71271   0.84441   0.00000  Uiso   1.00
C63    C     0.66850   0.65202   0.95239   0.00000  Uiso   1.00
C64    C     0.56865   0.06839   0.67608   0.00000  Uiso   1.00
C65    C     0.43573   0.14974   0.59644   0.00000  Uiso   1.00
C66    C     0.36033   0.28891   0.59101   0.00000  Uiso   1.00
C67    C     0.82507   0.91257   0.69289   0.00000  Uiso   1.00
C68    C     0.90772   0.86295   0.62738   0.00000  Uiso   1.00
C69    C     0.04819   0.87098   0.63609   0.00000  Uiso   1.00
H70    H     0.81483   0.05974   0.88418   0.00000  Uiso   1.00
H71    H     0.80364   0.86924   0.04583   0.00000  Uiso   1.00
H72    H     0.59222   0.30619   0.79790   0.00000  Uiso   1.00
H73    H     0.06414   0.01945   0.82883   0.00000  Uiso   1.00
H74    H     0.76664   0.63351   0.19343   0.00000  Uiso   1.00
H75    H     0.32087   0.55487   0.67063   0.00000  Uiso   1.00
H76    H     0.31601   0.95022   0.73586   0.00000  Uiso   1.00
H77    H     0.62568   0.87055   0.64064   0.00000  Uiso   1.00
H78    H     0.60411   0.66966   0.78893   0.00000  Uiso   1.00
H79    H     0.39269   0.10662   0.54099   0.00000  Uiso   1.00
H80    H     0.86461   0.81987   0.57193   0.00000  Uiso   1.00
H81    H     0.60468   0.47153   0.98492   0.00000  Uiso   1.00
H82    H     0.15892   0.39290   0.46211   0.00000  Uiso   1.00
H83    H     0.15405   0.78824   0.52735   0.00000  Uiso   1.00
O84    O     0.67484   0.42381   0.19112   0.00000  Uiso   1.00
O85    O     0.09003   0.63261   0.50521   0.00000  Uiso   1.00
O86    O     0.39563   0.83931   0.59079   0.00000  Uiso   1.00
N87    N     0.73151   0.62294   0.12401   0.00000  Uiso   1.00
N88    N     0.31473   0.48436   0.63523   0.00000  Uiso   1.00
N89    N     0.24509   0.91909   0.69620   0.00000  Uiso   1.00
N90    N     0.64437   0.53578   0.01181   0.00000  Uiso   1.00
N91    N     0.22759   0.39719   0.52303   0.00000  Uiso   1.00
N92    N     0.15794   0.83193   0.58400   0.00000  Uiso   1.00
