data_job_01383
_audit_creation_date              2018-12-19
_audit_creation_method            'Materials Studio'
_symmetry_space_group_name_H-M    'P1'
_symmetry_Int_Tables_number       1
_symmetry_cell_setting            triclinic
loop_
_symmetry_equiv_pos_as_xyz
  x,y,z
_cell_length_a                    14.7391
_cell_length_b                    20.0643
_cell_length_c                    27.7402
_cell_angle_alpha                 90.0000
_cell_angle_beta                  110.7874
_cell_angle_gamma                 90.0000
loop_
_atom_site_label
_atom_site_type_symbol
_atom_site_fract_x
_atom_site_fract_y
_atom_site_fract_z
_atom_site_U_iso_or_equiv
_atom_site_adp_type
_atom_site_occupancy
C1     C     0.09066   0.31894   0.04075   0.00000  Uiso   1.00
C2     C     0.99780   0.35408   0.03899   0.00000  Uiso   1.00
C3     C     0.93047   0.38362   0.99584   0.00000  Uiso   1.00
C4     C     0.85029   0.41322   0.00218   0.00000  Uiso   1.00
C5     C     0.70801   0.46782   0.99219   0.00000  Uiso   1.00
C6     C     0.17330   0.35392   0.08273   0.00000  Uiso   1.00
C7     C     0.25353   0.38331   0.07634   0.00000  Uiso   1.00
C8     C     0.32110   0.41276   0.11950   0.00000  Uiso   1.00
C9     C     0.45132   0.46706   0.17741   0.00000  Uiso   1.00
C10    C     0.08535   0.24884   0.06083   0.00000  Uiso   1.00
C11    C     0.09165   0.18989   0.03605   0.00000  Uiso   1.00
C12    C     0.08519   0.13087   0.06077   0.00000  Uiso   1.00
C13    C     0.07885   0.02203   0.08469   0.00000  Uiso   1.00
C14    C     0.06800   0.31897   0.12874   0.00000  Uiso   1.00
C15    C     0.98550   0.35410   0.08679   0.00000  Uiso   1.00
C16    C     0.90540   0.38366   0.09319   0.00000  Uiso   1.00
C17    C     0.83796   0.41324   0.05006   0.00000  Uiso   1.00
C18    C     0.16100   0.35394   0.13052   0.00000  Uiso   1.00
C19    C     0.22846   0.38335   0.17369   0.00000  Uiso   1.00
C20    C     0.30877   0.41278   0.16737   0.00000  Uiso   1.00
C21    C     0.07304   0.24886   0.10862   0.00000  Uiso   1.00
C22    C     0.06658   0.18993   0.13339   0.00000  Uiso   1.00
C23    C     0.07287   0.13089   0.10865   0.00000  Uiso   1.00
H24    H     0.10025   0.31892   0.00355   0.00000  Uiso   1.00
H25    H     0.94002   0.38360   0.95887   0.00000  Uiso   1.00
H26    H     0.26304   0.38328   0.03936   0.00000  Uiso   1.00
H27    H     0.10118   0.18989   0.99906   0.00000  Uiso   1.00
H28    H     0.75698   0.45534   0.93041   0.00000  Uiso   1.00
H29    H     0.43809   0.45464   0.10013   0.00000  Uiso   1.00
H30    H     0.09678   0.04684   0.01517   0.00000  Uiso   1.00
H31    H     0.05842   0.31899   0.16595   0.00000  Uiso   1.00
H32    H     0.89590   0.38367   0.13018   0.00000  Uiso   1.00
H33    H     0.21892   0.38335   0.21067   0.00000  Uiso   1.00
H34    H     0.05706   0.18996   0.17038   0.00000  Uiso   1.00
H35    H     0.72117   0.45540   0.06946   0.00000  Uiso   1.00
H36    H     0.40229   0.45470   0.23918   0.00000  Uiso   1.00
H37    H     0.06097   0.04690   0.15421   0.00000  Uiso   1.00
O38    O     0.63293   0.49794   0.97348   0.00000  Uiso   1.00
O39    O     0.52654   0.49701   0.19614   0.00000  Uiso   1.00
O40    O     0.07873   0.96199   0.08467   0.00000  Uiso   1.00
N41    N     0.77084   0.44647   0.96804   0.00000  Uiso   1.00
N42    N     0.40764   0.44582   0.12672   0.00000  Uiso   1.00
N43    N     0.08857   0.06456   0.04729   0.00000  Uiso   1.00
N44    N     0.75157   0.44650   0.04286   0.00000  Uiso   1.00
N45    N     0.38837   0.44585   0.20154   0.00000  Uiso   1.00
N46    N     0.06929   0.06459   0.12211   0.00000  Uiso   1.00
C47    C     0.59066   0.81894   0.04075   0.00000  Uiso   1.00
C48    C     0.49780   0.85408   0.03899   0.00000  Uiso   1.00
C49    C     0.43047   0.88362   0.99584   0.00000  Uiso   1.00
C50    C     0.35029   0.91322   0.00218   0.00000  Uiso   1.00
C51    C     0.20801   0.96782   0.99219   0.00000  Uiso   1.00
C52    C     0.67330   0.85392   0.08273   0.00000  Uiso   1.00
C53    C     0.75353   0.88331   0.07634   0.00000  Uiso   1.00
C54    C     0.82110   0.91276   0.11950   0.00000  Uiso   1.00
C55    C     0.95132   0.96706   0.17741   0.00000  Uiso   1.00
C56    C     0.58535   0.74884   0.06083   0.00000  Uiso   1.00
C57    C     0.59165   0.68989   0.03605   0.00000  Uiso   1.00
C58    C     0.58519   0.63087   0.06077   0.00000  Uiso   1.00
C59    C     0.57885   0.52203   0.08469   0.00000  Uiso   1.00
C60    C     0.56800   0.81897   0.12874   0.00000  Uiso   1.00
C61    C     0.48550   0.85410   0.08679   0.00000  Uiso   1.00
C62    C     0.40540   0.88366   0.09319   0.00000  Uiso   1.00
C63    C     0.33796   0.91324   0.05006   0.00000  Uiso   1.00
C64    C     0.66100   0.85394   0.13052   0.00000  Uiso   1.00
C65    C     0.72846   0.88335   0.17369   0.00000  Uiso   1.00
C66    C     0.80877   0.91278   0.16737   0.00000  Uiso   1.00
C67    C     0.57304   0.74886   0.10862   0.00000  Uiso   1.00
C68    C     0.56658   0.68993   0.13339   0.00000  Uiso   1.00
C69    C     0.57287   0.63089   0.10865   0.00000  Uiso   1.00
H70    H     0.60025   0.81892   0.00355   0.00000  Uiso   1.00
H71    H     0.44002   0.88360   0.95887   0.00000  Uiso   1.00
H72    H     0.76304   0.88328   0.03936   0.00000  Uiso   1.00
H73    H     0.60118   0.68989   0.99906   0.00000  Uiso   1.00
H74    H     0.25698   0.95534   0.93041   0.00000  Uiso   1.00
H75    H     0.93809   0.95464   0.10013   0.00000  Uiso   1.00
H76    H     0.59678   0.54684   0.01517   0.00000  Uiso   1.00
H77    H     0.55842   0.81899   0.16595   0.00000  Uiso   1.00
H78    H     0.39590   0.88367   0.13018   0.00000  Uiso   1.00
H79    H     0.71892   0.88335   0.21067   0.00000  Uiso   1.00
H80    H     0.55706   0.68996   0.17038   0.00000  Uiso   1.00
H81    H     0.22117   0.95540   0.06946   0.00000  Uiso   1.00
H82    H     0.90229   0.95470   0.23918   0.00000  Uiso   1.00
H83    H     0.56097   0.54690   0.15421   0.00000  Uiso   1.00
O84    O     0.13293   0.99794   0.97348   0.00000  Uiso   1.00
O85    O     0.02654   0.99701   0.19614   0.00000  Uiso   1.00
O86    O     0.57873   0.46199   0.08467   0.00000  Uiso   1.00
N87    N     0.27084   0.94647   0.96804   0.00000  Uiso   1.00
N88    N     0.90764   0.94582   0.12672   0.00000  Uiso   1.00
N89    N     0.58857   0.56456   0.04729   0.00000  Uiso   1.00
N90    N     0.25157   0.94650   0.04286   0.00000  Uiso   1.00
N91    N     0.88837   0.94585   0.20154   0.00000  Uiso   1.00
N92    N     0.56929   0.56459   0.12211   0.00000  Uiso   1.00
C93    C     0.90934   0.31894   0.45925   0.00000  Uiso   1.00
C94    C     0.00220   0.35408   0.46101   0.00000  Uiso   1.00
C95    C     0.06953   0.38362   0.50416   0.00000  Uiso   1.00
C96    C     0.14971   0.41322   0.49782   0.00000  Uiso   1.00
C97    C     0.29199   0.46782   0.50781   0.00000  Uiso   1.00
C98    C     0.82670   0.35392   0.41727   0.00000  Uiso   1.00
C99    C     0.74647   0.38331   0.42366   0.00000  Uiso   1.00
C100   C     0.67890   0.41276   0.38050   0.00000  Uiso   1.00
C101   C     0.54868   0.46706   0.32259   0.00000  Uiso   1.00
C102   C     0.91465   0.24884   0.43917   0.00000  Uiso   1.00
C103   C     0.90835   0.18989   0.46395   0.00000  Uiso   1.00
C104   C     0.91481   0.13087   0.43923   0.00000  Uiso   1.00
C105   C     0.92115   0.02203   0.41531   0.00000  Uiso   1.00
C106   C     0.93200   0.31897   0.37126   0.00000  Uiso   1.00
C107   C     0.01450   0.35410   0.41321   0.00000  Uiso   1.00
C108   C     0.09460   0.38366   0.40681   0.00000  Uiso   1.00
C109   C     0.16204   0.41324   0.44994   0.00000  Uiso   1.00
C110   C     0.83900   0.35394   0.36948   0.00000  Uiso   1.00
C111   C     0.77154   0.38335   0.32631   0.00000  Uiso   1.00
C112   C     0.69123   0.41278   0.33263   0.00000  Uiso   1.00
C113   C     0.92696   0.24886   0.39138   0.00000  Uiso   1.00
C114   C     0.93342   0.18993   0.36661   0.00000  Uiso   1.00
C115   C     0.92713   0.13089   0.39135   0.00000  Uiso   1.00
H116   H     0.89975   0.31892   0.49645   0.00000  Uiso   1.00
H117   H     0.05998   0.38360   0.54113   0.00000  Uiso   1.00
H118   H     0.73696   0.38328   0.46064   0.00000  Uiso   1.00
H119   H     0.89882   0.18989   0.50094   0.00000  Uiso   1.00
H120   H     0.24302   0.45534   0.56959   0.00000  Uiso   1.00
H121   H     0.56191   0.45464   0.39987   0.00000  Uiso   1.00
H122   H     0.90322   0.04684   0.48483   0.00000  Uiso   1.00
H123   H     0.94158   0.31899   0.33405   0.00000  Uiso   1.00
H124   H     0.10410   0.38367   0.36982   0.00000  Uiso   1.00
H125   H     0.78108   0.38335   0.28933   0.00000  Uiso   1.00
H126   H     0.94294   0.18996   0.32962   0.00000  Uiso   1.00
H127   H     0.27883   0.45540   0.43054   0.00000  Uiso   1.00
H128   H     0.59771   0.45470   0.26082   0.00000  Uiso   1.00
H129   H     0.93903   0.04690   0.34579   0.00000  Uiso   1.00
O130   O     0.36707   0.49794   0.52652   0.00000  Uiso   1.00
O131   O     0.47346   0.49701   0.30386   0.00000  Uiso   1.00
O132   O     0.92127   0.96199   0.41533   0.00000  Uiso   1.00
N133   N     0.22916   0.44647   0.53196   0.00000  Uiso   1.00
N134   N     0.59236   0.44582   0.37328   0.00000  Uiso   1.00
N135   N     0.91143   0.06456   0.45271   0.00000  Uiso   1.00
N136   N     0.24843   0.44650   0.45714   0.00000  Uiso   1.00
N137   N     0.61163   0.44585   0.29846   0.00000  Uiso   1.00
N138   N     0.93071   0.06459   0.37789   0.00000  Uiso   1.00
C139   C     0.40934   0.81894   0.45925   0.00000  Uiso   1.00
C140   C     0.50220   0.85408   0.46101   0.00000  Uiso   1.00
C141   C     0.56953   0.88362   0.50416   0.00000  Uiso   1.00
C142   C     0.64971   0.91322   0.49782   0.00000  Uiso   1.00
C143   C     0.79199   0.96782   0.50781   0.00000  Uiso   1.00
C144   C     0.32670   0.85392   0.41727   0.00000  Uiso   1.00
C145   C     0.24647   0.88331   0.42366   0.00000  Uiso   1.00
C146   C     0.17890   0.91276   0.38050   0.00000  Uiso   1.00
C147   C     0.04868   0.96706   0.32259   0.00000  Uiso   1.00
C148   C     0.41465   0.74884   0.43917   0.00000  Uiso   1.00
C149   C     0.40835   0.68989   0.46395   0.00000  Uiso   1.00
C150   C     0.41481   0.63087   0.43923   0.00000  Uiso   1.00
C151   C     0.42115   0.52203   0.41531   0.00000  Uiso   1.00
C152   C     0.43200   0.81897   0.37126   0.00000  Uiso   1.00
C153   C     0.51450   0.85410   0.41321   0.00000  Uiso   1.00
C154   C     0.59460   0.88366   0.40681   0.00000  Uiso   1.00
C155   C     0.66204   0.91324   0.44994   0.00000  Uiso   1.00
C156   C     0.33900   0.85394   0.36948   0.00000  Uiso   1.00
C157   C     0.27154   0.88335   0.32631   0.00000  Uiso   1.00
C158   C     0.19123   0.91278   0.33263   0.00000  Uiso   1.00
C159   C     0.42696   0.74886   0.39138   0.00000  Uiso   1.00
C160   C     0.43342   0.68993   0.36661   0.00000  Uiso   1.00
C161   C     0.42713   0.63089   0.39135   0.00000  Uiso   1.00
H162   H     0.39975   0.81892   0.49645   0.00000  Uiso   1.00
H163   H     0.55998   0.88360   0.54113   0.00000  Uiso   1.00
H164   H     0.23696   0.88328   0.46064   0.00000  Uiso   1.00
H165   H     0.39882   0.68989   0.50094   0.00000  Uiso   1.00
H166   H     0.74302   0.95534   0.56959   0.00000  Uiso   1.00
H167   H     0.06191   0.95464   0.39987   0.00000  Uiso   1.00
H168   H     0.40322   0.54684   0.48483   0.00000  Uiso   1.00
H169   H     0.44158   0.81899   0.33405   0.00000  Uiso   1.00
H170   H     0.60410   0.88367   0.36982   0.00000  Uiso   1.00
H171   H     0.28108   0.88335   0.28933   0.00000  Uiso   1.00
H172   H     0.44294   0.68996   0.32962   0.00000  Uiso   1.00
H173   H     0.77883   0.95540   0.43054   0.00000  Uiso   1.00
H174   H     0.09771   0.95470   0.26082   0.00000  Uiso   1.00
H175   H     0.43903   0.54690   0.34579   0.00000  Uiso   1.00
O176   O     0.86707   0.99794   0.52652   0.00000  Uiso   1.00
O177   O     0.97346   0.99701   0.30386   0.00000  Uiso   1.00
O178   O     0.42127   0.46199   0.41533   0.00000  Uiso   1.00
N179   N     0.72916   0.94647   0.53196   0.00000  Uiso   1.00
N180   N     0.09236   0.94582   0.37328   0.00000  Uiso   1.00
N181   N     0.41143   0.56456   0.45271   0.00000  Uiso   1.00
N182   N     0.74843   0.94650   0.45714   0.00000  Uiso   1.00
N183   N     0.11163   0.94585   0.29846   0.00000  Uiso   1.00
N184   N     0.43071   0.56459   0.37789   0.00000  Uiso   1.00
C185   C     0.90934   0.68106   0.95925   0.00000  Uiso   1.00
C186   C     0.00220   0.64592   0.96101   0.00000  Uiso   1.00
C187   C     0.06953   0.61638   0.00416   0.00000  Uiso   1.00
C188   C     0.14971   0.58678   0.99782   0.00000  Uiso   1.00
C189   C     0.29199   0.53218   0.00781   0.00000  Uiso   1.00
C190   C     0.82670   0.64608   0.91727   0.00000  Uiso   1.00
C191   C     0.74647   0.61669   0.92366   0.00000  Uiso   1.00
C192   C     0.67890   0.58724   0.88050   0.00000  Uiso   1.00
C193   C     0.54868   0.53294   0.82259   0.00000  Uiso   1.00
C194   C     0.91465   0.75116   0.93917   0.00000  Uiso   1.00
C195   C     0.90835   0.81011   0.96395   0.00000  Uiso   1.00
C196   C     0.91481   0.86913   0.93923   0.00000  Uiso   1.00
C197   C     0.92115   0.97797   0.91531   0.00000  Uiso   1.00
C198   C     0.93200   0.68103   0.87126   0.00000  Uiso   1.00
C199   C     0.01450   0.64590   0.91321   0.00000  Uiso   1.00
C200   C     0.09460   0.61634   0.90681   0.00000  Uiso   1.00
C201   C     0.16204   0.58676   0.94994   0.00000  Uiso   1.00
C202   C     0.83900   0.64606   0.86948   0.00000  Uiso   1.00
C203   C     0.77154   0.61665   0.82631   0.00000  Uiso   1.00
C204   C     0.69123   0.58722   0.83263   0.00000  Uiso   1.00
C205   C     0.92696   0.75114   0.89138   0.00000  Uiso   1.00
C206   C     0.93342   0.81007   0.86661   0.00000  Uiso   1.00
C207   C     0.92713   0.86911   0.89135   0.00000  Uiso   1.00
H208   H     0.89975   0.68108   0.99645   0.00000  Uiso   1.00
H209   H     0.05998   0.61640   0.04113   0.00000  Uiso   1.00
H210   H     0.73696   0.61672   0.96064   0.00000  Uiso   1.00
H211   H     0.89882   0.81011   0.00094   0.00000  Uiso   1.00
H212   H     0.24302   0.54466   0.06959   0.00000  Uiso   1.00
H213   H     0.56191   0.54536   0.89987   0.00000  Uiso   1.00
H214   H     0.90322   0.95316   0.98483   0.00000  Uiso   1.00
H215   H     0.94158   0.68101   0.83405   0.00000  Uiso   1.00
H216   H     0.10410   0.61633   0.86982   0.00000  Uiso   1.00
H217   H     0.78108   0.61665   0.78933   0.00000  Uiso   1.00
H218   H     0.94294   0.81004   0.82962   0.00000  Uiso   1.00
H219   H     0.27883   0.54460   0.93054   0.00000  Uiso   1.00
H220   H     0.59771   0.54530   0.76082   0.00000  Uiso   1.00
H221   H     0.93903   0.95310   0.84579   0.00000  Uiso   1.00
O222   O     0.36707   0.50206   0.02652   0.00000  Uiso   1.00
O223   O     0.47346   0.50299   0.80386   0.00000  Uiso   1.00
O224   O     0.92127   0.03801   0.91533   0.00000  Uiso   1.00
N225   N     0.22916   0.55353   0.03196   0.00000  Uiso   1.00
N226   N     0.59236   0.55418   0.87328   0.00000  Uiso   1.00
N227   N     0.91143   0.93544   0.95271   0.00000  Uiso   1.00
N228   N     0.24843   0.55350   0.95714   0.00000  Uiso   1.00
N229   N     0.61163   0.55415   0.79846   0.00000  Uiso   1.00
N230   N     0.93071   0.93541   0.87789   0.00000  Uiso   1.00
C231   C     0.40934   0.18106   0.95925   0.00000  Uiso   1.00
C232   C     0.50220   0.14592   0.96101   0.00000  Uiso   1.00
C233   C     0.56953   0.11638   0.00416   0.00000  Uiso   1.00
C234   C     0.64971   0.08678   0.99782   0.00000  Uiso   1.00
C235   C     0.79199   0.03218   0.00781   0.00000  Uiso   1.00
C236   C     0.32670   0.14608   0.91727   0.00000  Uiso   1.00
C237   C     0.24647   0.11669   0.92366   0.00000  Uiso   1.00
C238   C     0.17890   0.08724   0.88050   0.00000  Uiso   1.00
C239   C     0.04868   0.03294   0.82259   0.00000  Uiso   1.00
C240   C     0.41465   0.25116   0.93917   0.00000  Uiso   1.00
C241   C     0.40835   0.31011   0.96395   0.00000  Uiso   1.00
C242   C     0.41481   0.36913   0.93923   0.00000  Uiso   1.00
C243   C     0.42115   0.47797   0.91531   0.00000  Uiso   1.00
C244   C     0.43200   0.18103   0.87126   0.00000  Uiso   1.00
C245   C     0.51450   0.14590   0.91321   0.00000  Uiso   1.00
C246   C     0.59460   0.11634   0.90681   0.00000  Uiso   1.00
C247   C     0.66204   0.08676   0.94994   0.00000  Uiso   1.00
C248   C     0.33900   0.14606   0.86948   0.00000  Uiso   1.00
C249   C     0.27154   0.11665   0.82631   0.00000  Uiso   1.00
C250   C     0.19123   0.08722   0.83263   0.00000  Uiso   1.00
C251   C     0.42696   0.25114   0.89138   0.00000  Uiso   1.00
C252   C     0.43342   0.31007   0.86661   0.00000  Uiso   1.00
C253   C     0.42713   0.36911   0.89135   0.00000  Uiso   1.00
H254   H     0.39975   0.18108   0.99645   0.00000  Uiso   1.00
H255   H     0.55998   0.11640   0.04113   0.00000  Uiso   1.00
H256   H     0.23696   0.11672   0.96064   0.00000  Uiso   1.00
H257   H     0.39882   0.31011   0.00094   0.00000  Uiso   1.00
H258   H     0.74302   0.04466   0.06959   0.00000  Uiso   1.00
H259   H     0.06191   0.04536   0.89987   0.00000  Uiso   1.00
H260   H     0.40322   0.45316   0.98483   0.00000  Uiso   1.00
H261   H     0.44158   0.18101   0.83405   0.00000  Uiso   1.00
H262   H     0.60410   0.11633   0.86982   0.00000  Uiso   1.00
H263   H     0.28108   0.11665   0.78933   0.00000  Uiso   1.00
H264   H     0.44294   0.31004   0.82962   0.00000  Uiso   1.00
H265   H     0.77883   0.04460   0.93054   0.00000  Uiso   1.00
H266   H     0.09771   0.04530   0.76082   0.00000  Uiso   1.00
H267   H     0.43903   0.45310   0.84579   0.00000  Uiso   1.00
O268   O     0.86707   0.00206   0.02652   0.00000  Uiso   1.00
O269   O     0.97346   0.00299   0.80386   0.00000  Uiso   1.00
O270   O     0.42127   0.53801   0.91533   0.00000  Uiso   1.00
N271   N     0.72916   0.05353   0.03196   0.00000  Uiso   1.00
N272   N     0.09236   0.05418   0.87328   0.00000  Uiso   1.00
N273   N     0.41143   0.43544   0.95271   0.00000  Uiso   1.00
N274   N     0.74843   0.05350   0.95714   0.00000  Uiso   1.00
N275   N     0.11163   0.05415   0.79846   0.00000  Uiso   1.00
N276   N     0.43071   0.43541   0.87789   0.00000  Uiso   1.00
C277   C     0.09066   0.68106   0.54075   0.00000  Uiso   1.00
C278   C     0.99780   0.64592   0.53899   0.00000  Uiso   1.00
C279   C     0.93047   0.61638   0.49584   0.00000  Uiso   1.00
C280   C     0.85029   0.58678   0.50218   0.00000  Uiso   1.00
C281   C     0.70801   0.53218   0.49219   0.00000  Uiso   1.00
C282   C     0.17330   0.64608   0.58273   0.00000  Uiso   1.00
C283   C     0.25353   0.61669   0.57634   0.00000  Uiso   1.00
C284   C     0.32110   0.58724   0.61950   0.00000  Uiso   1.00
C285   C     0.45132   0.53294   0.67741   0.00000  Uiso   1.00
C286   C     0.08535   0.75116   0.56083   0.00000  Uiso   1.00
C287   C     0.09165   0.81011   0.53605   0.00000  Uiso   1.00
C288   C     0.08519   0.86913   0.56077   0.00000  Uiso   1.00
C289   C     0.07885   0.97797   0.58469   0.00000  Uiso   1.00
C290   C     0.06800   0.68103   0.62874   0.00000  Uiso   1.00
C291   C     0.98550   0.64590   0.58679   0.00000  Uiso   1.00
C292   C     0.90540   0.61634   0.59319   0.00000  Uiso   1.00
C293   C     0.83796   0.58676   0.55006   0.00000  Uiso   1.00
C294   C     0.16100   0.64606   0.63052   0.00000  Uiso   1.00
C295   C     0.22846   0.61665   0.67369   0.00000  Uiso   1.00
C296   C     0.30877   0.58722   0.66737   0.00000  Uiso   1.00
C297   C     0.07304   0.75114   0.60862   0.00000  Uiso   1.00
C298   C     0.06658   0.81007   0.63339   0.00000  Uiso   1.00
C299   C     0.07287   0.86911   0.60865   0.00000  Uiso   1.00
H300   H     0.10025   0.68108   0.50355   0.00000  Uiso   1.00
H301   H     0.94002   0.61640   0.45887   0.00000  Uiso   1.00
H302   H     0.26304   0.61672   0.53936   0.00000  Uiso   1.00
H303   H     0.10118   0.81011   0.49906   0.00000  Uiso   1.00
H304   H     0.75698   0.54466   0.43041   0.00000  Uiso   1.00
H305   H     0.43809   0.54536   0.60013   0.00000  Uiso   1.00
H306   H     0.09678   0.95316   0.51517   0.00000  Uiso   1.00
H307   H     0.05842   0.68101   0.66595   0.00000  Uiso   1.00
H308   H     0.89590   0.61633   0.63018   0.00000  Uiso   1.00
H309   H     0.21892   0.61665   0.71067   0.00000  Uiso   1.00
H310   H     0.05706   0.81004   0.67038   0.00000  Uiso   1.00
H311   H     0.72117   0.54460   0.56946   0.00000  Uiso   1.00
H312   H     0.40229   0.54530   0.73918   0.00000  Uiso   1.00
H313   H     0.06097   0.95310   0.65421   0.00000  Uiso   1.00
O314   O     0.63293   0.50206   0.47348   0.00000  Uiso   1.00
O315   O     0.52654   0.50299   0.69614   0.00000  Uiso   1.00
O316   O     0.07873   0.03801   0.58467   0.00000  Uiso   1.00
N317   N     0.77084   0.55353   0.46804   0.00000  Uiso   1.00
N318   N     0.40764   0.55418   0.62672   0.00000  Uiso   1.00
N319   N     0.08857   0.93544   0.54729   0.00000  Uiso   1.00
N320   N     0.75157   0.55350   0.54286   0.00000  Uiso   1.00
N321   N     0.38837   0.55415   0.70154   0.00000  Uiso   1.00
N322   N     0.06929   0.93541   0.62211   0.00000  Uiso   1.00
C323   C     0.59066   0.18106   0.54075   0.00000  Uiso   1.00
C324   C     0.49780   0.14592   0.53899   0.00000  Uiso   1.00
C325   C     0.43047   0.11638   0.49584   0.00000  Uiso   1.00
C326   C     0.35029   0.08678   0.50218   0.00000  Uiso   1.00
C327   C     0.20801   0.03218   0.49219   0.00000  Uiso   1.00
C328   C     0.67330   0.14608   0.58273   0.00000  Uiso   1.00
C329   C     0.75353   0.11669   0.57634   0.00000  Uiso   1.00
C330   C     0.82110   0.08724   0.61950   0.00000  Uiso   1.00
C331   C     0.95132   0.03294   0.67741   0.00000  Uiso   1.00
C332   C     0.58535   0.25116   0.56083   0.00000  Uiso   1.00
C333   C     0.59165   0.31011   0.53605   0.00000  Uiso   1.00
C334   C     0.58519   0.36913   0.56077   0.00000  Uiso   1.00
C335   C     0.57885   0.47797   0.58469   0.00000  Uiso   1.00
C336   C     0.56800   0.18103   0.62874   0.00000  Uiso   1.00
C337   C     0.48550   0.14590   0.58679   0.00000  Uiso   1.00
C338   C     0.40540   0.11634   0.59319   0.00000  Uiso   1.00
C339   C     0.33796   0.08676   0.55006   0.00000  Uiso   1.00
C340   C     0.66100   0.14606   0.63052   0.00000  Uiso   1.00
C341   C     0.72846   0.11665   0.67369   0.00000  Uiso   1.00
C342   C     0.80877   0.08722   0.66737   0.00000  Uiso   1.00
C343   C     0.57304   0.25114   0.60862   0.00000  Uiso   1.00
C344   C     0.56658   0.31007   0.63339   0.00000  Uiso   1.00
C345   C     0.57287   0.36911   0.60865   0.00000  Uiso   1.00
H346   H     0.60025   0.18108   0.50355   0.00000  Uiso   1.00
H347   H     0.44002   0.11640   0.45887   0.00000  Uiso   1.00
H348   H     0.76304   0.11672   0.53936   0.00000  Uiso   1.00
H349   H     0.60118   0.31011   0.49906   0.00000  Uiso   1.00
H350   H     0.25698   0.04466   0.43041   0.00000  Uiso   1.00
H351   H     0.93809   0.04536   0.60013   0.00000  Uiso   1.00
H352   H     0.59678   0.45316   0.51517   0.00000  Uiso   1.00
H353   H     0.55842   0.18101   0.66595   0.00000  Uiso   1.00
H354   H     0.39590   0.11633   0.63018   0.00000  Uiso   1.00
H355   H     0.71892   0.11665   0.71067   0.00000  Uiso   1.00
H356   H     0.55706   0.31004   0.67038   0.00000  Uiso   1.00
H357   H     0.22117   0.04460   0.56946   0.00000  Uiso   1.00
H358   H     0.90229   0.04530   0.73918   0.00000  Uiso   1.00
H359   H     0.56097   0.45310   0.65421   0.00000  Uiso   1.00
O360   O     0.13293   0.00206   0.47348   0.00000  Uiso   1.00
O361   O     0.02654   0.00299   0.69614   0.00000  Uiso   1.00
O362   O     0.57873   0.53801   0.58467   0.00000  Uiso   1.00
N363   N     0.27084   0.05353   0.46804   0.00000  Uiso   1.00
N364   N     0.90764   0.05418   0.62672   0.00000  Uiso   1.00
N365   N     0.58857   0.43544   0.54729   0.00000  Uiso   1.00
N366   N     0.25157   0.05350   0.54286   0.00000  Uiso   1.00
N367   N     0.88837   0.05415   0.70154   0.00000  Uiso   1.00
N368   N     0.56929   0.43541   0.62211   0.00000  Uiso   1.00
