data_job_00712
_audit_creation_date              2018-12-19
_audit_creation_method            'Materials Studio'
_symmetry_space_group_name_H-M    'P1'
_symmetry_Int_Tables_number       1
_symmetry_cell_setting            triclinic
loop_
_symmetry_equiv_pos_as_xyz
  x,y,z
_cell_length_a                    12.4225
_cell_length_b                    12.4225
_cell_length_c                    15.1985
_cell_angle_alpha                 90.0000
_cell_angle_beta                  90.0000
_cell_angle_gamma                 90.0000
loop_
_atom_site_label
_atom_site_type_symbol
_atom_site_fract_x
_atom_site_fract_y
_atom_site_fract_z
_atom_site_U_iso_or_equiv
_atom_site_adp_type
_atom_site_occupancy
C1     C     0.72881   0.65939   0.87873   0.00000  Uiso   1.00
C2     C     0.65541   0.75236   0.85238   0.00000  Uiso   1.00
C3     C     0.56557   0.74471   0.79848   0.00000  Uiso   1.00
C4     C     0.50906   0.83907   0.78223   0.00000  Uiso   1.00
C5     C     0.39022   0.96846   0.73575   0.00000  Uiso   1.00
C6     C     0.84203   0.69211   0.85068   0.00000  Uiso   1.00
C7     C     0.90910   0.63379   0.79535   0.00000  Uiso   1.00
C8     C     0.00970   0.67743   0.77768   0.00000  Uiso   1.00
C9     C     0.18063   0.71325   0.72860   0.00000  Uiso   1.00
C10    C     0.72970   0.65786   0.97905   0.00000  Uiso   1.00
C11    C     0.70234   0.57075   0.03167   0.00000  Uiso   1.00
C12    C     0.70839   0.58555   0.12208   0.00000  Uiso   1.00
C13    C     0.70489   0.56819   0.27232   0.00000  Uiso   1.00
C14    C     0.78822   0.84057   0.94575   0.00000  Uiso   1.00
C15    C     0.68769   0.85077   0.88878   0.00000  Uiso   1.00
C16    C     0.63130   0.94516   0.87262   0.00000  Uiso   1.00
C17    C     0.54139   0.93765   0.81870   0.00000  Uiso   1.00
C18    C     0.87431   0.79051   0.88708   0.00000  Uiso   1.00
C19    C     0.97483   0.83425   0.86950   0.00000  Uiso   1.00
C20    C     0.04204   0.77602   0.81415   0.00000  Uiso   1.00
C21    C     0.76196   0.75627   0.01546   0.00000  Uiso   1.00
C22    C     0.76807   0.77120   0.10581   0.00000  Uiso   1.00
C23    C     0.74072   0.68413   0.15855   0.00000  Uiso   1.00
H24    H     0.70369   0.58278   0.85039   0.00000  Uiso   1.00
H25    H     0.54063   0.66854   0.77031   0.00000  Uiso   1.00
H26    H     0.88411   0.55764   0.76720   0.00000  Uiso   1.00
H27    H     0.67737   0.49461   0.00347   0.00000  Uiso   1.00
H28    H     0.37409   0.80703   0.69756   0.00000  Uiso   1.00
H29    H     0.09837   0.57317   0.69101   0.00000  Uiso   1.00
H30    H     0.66242   0.44025   0.18924   0.00000  Uiso   1.00
H31    H     0.81335   0.91719   0.97409   0.00000  Uiso   1.00
H32    H     0.65629   0.02130   0.90080   0.00000  Uiso   1.00
H33    H     0.99978   0.91040   0.89768   0.00000  Uiso   1.00
H34    H     0.79304   0.84737   0.13395   0.00000  Uiso   1.00
H35    H     0.46797   0.09334   0.80346   0.00000  Uiso   1.00
H36    H     0.19225   0.85948   0.79691   0.00000  Uiso   1.00
H37    H     0.75630   0.72657   0.29515   0.00000  Uiso   1.00
O38    O     0.31576   0.01265   0.70004   0.00000  Uiso   1.00
O39    O     0.26599   0.70582   0.69146   0.00000  Uiso   1.00
O40    O     0.69403   0.53144   0.34513   0.00000  Uiso   1.00
N41    N     0.41773   0.86012   0.73256   0.00000  Uiso   1.00
N42    N     0.09488   0.64149   0.72642   0.00000  Uiso   1.00
N43    N     0.68733   0.51721   0.19223   0.00000  Uiso   1.00
N44    N     0.46824   0.01418   0.78954   0.00000  Uiso   1.00
N45    N     0.14539   0.79555   0.78341   0.00000  Uiso   1.00
N46    N     0.73785   0.67127   0.24921   0.00000  Uiso   1.00
C47    C     0.27119   0.34061   0.37873   0.00000  Uiso   1.00
C48    C     0.34459   0.24764   0.35238   0.00000  Uiso   1.00
C49    C     0.43443   0.25529   0.29848   0.00000  Uiso   1.00
C50    C     0.49094   0.16093   0.28223   0.00000  Uiso   1.00
C51    C     0.60978   0.03154   0.23575   0.00000  Uiso   1.00
C52    C     0.15797   0.30789   0.35068   0.00000  Uiso   1.00
C53    C     0.09090   0.36621   0.29535   0.00000  Uiso   1.00
C54    C     0.99030   0.32257   0.27768   0.00000  Uiso   1.00
C55    C     0.81937   0.28675   0.22860   0.00000  Uiso   1.00
C56    C     0.27030   0.34214   0.47905   0.00000  Uiso   1.00
C57    C     0.29766   0.42925   0.53167   0.00000  Uiso   1.00
C58    C     0.29161   0.41445   0.62208   0.00000  Uiso   1.00
C59    C     0.29511   0.43181   0.77232   0.00000  Uiso   1.00
C60    C     0.21178   0.15943   0.44575   0.00000  Uiso   1.00
C61    C     0.31231   0.14923   0.38878   0.00000  Uiso   1.00
C62    C     0.36870   0.05484   0.37262   0.00000  Uiso   1.00
C63    C     0.45861   0.06235   0.31870   0.00000  Uiso   1.00
C64    C     0.12569   0.20949   0.38708   0.00000  Uiso   1.00
C65    C     0.02517   0.16575   0.36950   0.00000  Uiso   1.00
C66    C     0.95796   0.22398   0.31415   0.00000  Uiso   1.00
C67    C     0.23804   0.24373   0.51546   0.00000  Uiso   1.00
C68    C     0.23193   0.22880   0.60581   0.00000  Uiso   1.00
C69    C     0.25928   0.31587   0.65855   0.00000  Uiso   1.00
H70    H     0.29631   0.41722   0.35039   0.00000  Uiso   1.00
H71    H     0.45937   0.33146   0.27031   0.00000  Uiso   1.00
H72    H     0.11589   0.44236   0.26720   0.00000  Uiso   1.00
H73    H     0.32263   0.50539   0.50347   0.00000  Uiso   1.00
H74    H     0.62591   0.19297   0.19756   0.00000  Uiso   1.00
H75    H     0.90163   0.42683   0.19101   0.00000  Uiso   1.00
H76    H     0.33758   0.55975   0.68924   0.00000  Uiso   1.00
H77    H     0.18665   0.08281   0.47409   0.00000  Uiso   1.00
H78    H     0.34371   0.97870   0.40080   0.00000  Uiso   1.00
H79    H     0.00022   0.08960   0.39768   0.00000  Uiso   1.00
H80    H     0.20696   0.15263   0.63395   0.00000  Uiso   1.00
H81    H     0.53203   0.90666   0.30346   0.00000  Uiso   1.00
H82    H     0.80775   0.14052   0.29691   0.00000  Uiso   1.00
H83    H     0.24370   0.27343   0.79515   0.00000  Uiso   1.00
O84    O     0.68424   0.98735   0.20004   0.00000  Uiso   1.00
O85    O     0.73401   0.29418   0.19146   0.00000  Uiso   1.00
O86    O     0.30597   0.46856   0.84513   0.00000  Uiso   1.00
N87    N     0.58227   0.13988   0.23256   0.00000  Uiso   1.00
N88    N     0.90512   0.35851   0.22642   0.00000  Uiso   1.00
N89    N     0.31267   0.48279   0.69223   0.00000  Uiso   1.00
N90    N     0.53176   0.98582   0.28954   0.00000  Uiso   1.00
N91    N     0.85461   0.20445   0.28341   0.00000  Uiso   1.00
N92    N     0.26215   0.32873   0.74921   0.00000  Uiso   1.00
C93    C     0.34061   0.72881   0.12873   0.00000  Uiso   1.00
C94    C     0.24764   0.65541   0.10238   0.00000  Uiso   1.00
C95    C     0.25529   0.56557   0.04848   0.00000  Uiso   1.00
C96    C     0.16093   0.50906   0.03223   0.00000  Uiso   1.00
C97    C     0.03154   0.39022   0.98575   0.00000  Uiso   1.00
C98    C     0.30789   0.84203   0.10068   0.00000  Uiso   1.00
C99    C     0.36621   0.90910   0.04535   0.00000  Uiso   1.00
C100   C     0.32257   0.00970   0.02768   0.00000  Uiso   1.00
C101   C     0.28675   0.18063   0.97860   0.00000  Uiso   1.00
C102   C     0.34214   0.72970   0.22905   0.00000  Uiso   1.00
C103   C     0.42925   0.70234   0.28167   0.00000  Uiso   1.00
C104   C     0.41445   0.70839   0.37208   0.00000  Uiso   1.00
C105   C     0.43181   0.70489   0.52232   0.00000  Uiso   1.00
C106   C     0.15943   0.78822   0.19575   0.00000  Uiso   1.00
C107   C     0.14923   0.68769   0.13878   0.00000  Uiso   1.00
C108   C     0.05484   0.63130   0.12262   0.00000  Uiso   1.00
C109   C     0.06235   0.54139   0.06870   0.00000  Uiso   1.00
C110   C     0.20949   0.87431   0.13708   0.00000  Uiso   1.00
C111   C     0.16575   0.97483   0.11950   0.00000  Uiso   1.00
C112   C     0.22398   0.04204   0.06415   0.00000  Uiso   1.00
C113   C     0.24373   0.76196   0.26546   0.00000  Uiso   1.00
C114   C     0.22880   0.76807   0.35581   0.00000  Uiso   1.00
C115   C     0.31587   0.74072   0.40855   0.00000  Uiso   1.00
H116   H     0.41722   0.70369   0.10039   0.00000  Uiso   1.00
H117   H     0.33146   0.54063   0.02031   0.00000  Uiso   1.00
H118   H     0.44236   0.88411   0.01720   0.00000  Uiso   1.00
H119   H     0.50539   0.67737   0.25347   0.00000  Uiso   1.00
H120   H     0.19297   0.37409   0.94756   0.00000  Uiso   1.00
H121   H     0.42683   0.09837   0.94101   0.00000  Uiso   1.00
H122   H     0.55975   0.66242   0.43924   0.00000  Uiso   1.00
H123   H     0.08281   0.81335   0.22409   0.00000  Uiso   1.00
H124   H     0.97870   0.65629   0.15080   0.00000  Uiso   1.00
H125   H     0.08960   0.99978   0.14768   0.00000  Uiso   1.00
H126   H     0.15263   0.79304   0.38395   0.00000  Uiso   1.00
H127   H     0.90666   0.46797   0.05346   0.00000  Uiso   1.00
H128   H     0.14052   0.19225   0.04691   0.00000  Uiso   1.00
H129   H     0.27343   0.75630   0.54515   0.00000  Uiso   1.00
O130   O     0.98735   0.31576   0.95004   0.00000  Uiso   1.00
O131   O     0.29418   0.26599   0.94146   0.00000  Uiso   1.00
O132   O     0.46856   0.69403   0.59513   0.00000  Uiso   1.00
N133   N     0.13988   0.41773   0.98256   0.00000  Uiso   1.00
N134   N     0.35851   0.09488   0.97642   0.00000  Uiso   1.00
N135   N     0.48279   0.68733   0.44223   0.00000  Uiso   1.00
N136   N     0.98582   0.46824   0.03954   0.00000  Uiso   1.00
N137   N     0.20445   0.14539   0.03341   0.00000  Uiso   1.00
N138   N     0.32873   0.73785   0.49921   0.00000  Uiso   1.00
C139   C     0.65939   0.27119   0.62873   0.00000  Uiso   1.00
C140   C     0.75236   0.34459   0.60238   0.00000  Uiso   1.00
C141   C     0.74471   0.43443   0.54848   0.00000  Uiso   1.00
C142   C     0.83907   0.49094   0.53223   0.00000  Uiso   1.00
C143   C     0.96846   0.60978   0.48575   0.00000  Uiso   1.00
C144   C     0.69211   0.15797   0.60068   0.00000  Uiso   1.00
C145   C     0.63379   0.09090   0.54535   0.00000  Uiso   1.00
C146   C     0.67743   0.99030   0.52768   0.00000  Uiso   1.00
C147   C     0.71325   0.81937   0.47860   0.00000  Uiso   1.00
C148   C     0.65786   0.27030   0.72905   0.00000  Uiso   1.00
C149   C     0.57075   0.29766   0.78167   0.00000  Uiso   1.00
C150   C     0.58555   0.29161   0.87208   0.00000  Uiso   1.00
C151   C     0.56819   0.29511   0.02232   0.00000  Uiso   1.00
C152   C     0.84057   0.21178   0.69575   0.00000  Uiso   1.00
C153   C     0.85077   0.31231   0.63878   0.00000  Uiso   1.00
C154   C     0.94516   0.36870   0.62262   0.00000  Uiso   1.00
C155   C     0.93765   0.45861   0.56870   0.00000  Uiso   1.00
C156   C     0.79051   0.12569   0.63708   0.00000  Uiso   1.00
C157   C     0.83425   0.02517   0.61950   0.00000  Uiso   1.00
C158   C     0.77602   0.95796   0.56415   0.00000  Uiso   1.00
C159   C     0.75627   0.23804   0.76546   0.00000  Uiso   1.00
C160   C     0.77120   0.23193   0.85581   0.00000  Uiso   1.00
C161   C     0.68413   0.25928   0.90855   0.00000  Uiso   1.00
H162   H     0.58278   0.29631   0.60039   0.00000  Uiso   1.00
H163   H     0.66854   0.45937   0.52031   0.00000  Uiso   1.00
H164   H     0.55764   0.11589   0.51720   0.00000  Uiso   1.00
H165   H     0.49461   0.32263   0.75347   0.00000  Uiso   1.00
H166   H     0.80703   0.62591   0.44756   0.00000  Uiso   1.00
H167   H     0.57317   0.90163   0.44101   0.00000  Uiso   1.00
H168   H     0.44025   0.33758   0.93924   0.00000  Uiso   1.00
H169   H     0.91719   0.18665   0.72409   0.00000  Uiso   1.00
H170   H     0.02130   0.34371   0.65080   0.00000  Uiso   1.00
H171   H     0.91040   0.00022   0.64768   0.00000  Uiso   1.00
H172   H     0.84737   0.20696   0.88395   0.00000  Uiso   1.00
H173   H     0.09334   0.53203   0.55346   0.00000  Uiso   1.00
H174   H     0.85948   0.80775   0.54691   0.00000  Uiso   1.00
H175   H     0.72657   0.24370   0.04515   0.00000  Uiso   1.00
O176   O     0.01265   0.68424   0.45004   0.00000  Uiso   1.00
O177   O     0.70582   0.73401   0.44146   0.00000  Uiso   1.00
O178   O     0.53144   0.30597   0.09513   0.00000  Uiso   1.00
N179   N     0.86012   0.58227   0.48256   0.00000  Uiso   1.00
N180   N     0.64149   0.90512   0.47642   0.00000  Uiso   1.00
N181   N     0.51721   0.31267   0.94223   0.00000  Uiso   1.00
N182   N     0.01418   0.53176   0.53954   0.00000  Uiso   1.00
N183   N     0.79555   0.85461   0.53341   0.00000  Uiso   1.00
N184   N     0.67127   0.26215   0.99921   0.00000  Uiso   1.00
