data_job_00989
_audit_creation_date              2018-12-19
_audit_creation_method            'Materials Studio'
_symmetry_space_group_name_H-M    'P1'
_symmetry_Int_Tables_number       1
_symmetry_cell_setting            triclinic
loop_
_symmetry_equiv_pos_as_xyz
  x,y,z
_cell_length_a                    24.4723
_cell_length_b                    21.3410
_cell_length_c                    9.8932
_cell_angle_alpha                 90.0000
_cell_angle_beta                  90.0000
_cell_angle_gamma                 90.0000
loop_
_atom_site_label
_atom_site_type_symbol
_atom_site_fract_x
_atom_site_fract_y
_atom_site_fract_z
_atom_site_U_iso_or_equiv
_atom_site_adp_type
_atom_site_occupancy
C1     C     0.42359   0.93072   0.29578   0.00000  Uiso   1.00
C2     C     0.40474   0.98784   0.21576   0.00000  Uiso   1.00
C3     C     0.43265   0.04423   0.20502   0.00000  Uiso   1.00
C4     C     0.40857   0.09075   0.12707   0.00000  Uiso   1.00
C5     C     0.38691   0.18091   0.01273   0.00000  Uiso   1.00
C6     C     0.37752   0.91572   0.39437   0.00000  Uiso   1.00
C7     C     0.38254   0.91146   0.53380   0.00000  Uiso   1.00
C8     C     0.33554   0.89726   0.60621   0.00000  Uiso   1.00
C9     C     0.27163   0.87540   0.76916   0.00000  Uiso   1.00
C10    C     0.42520   0.87651   0.19545   0.00000  Uiso   1.00
C11    C     0.47032   0.83928   0.16764   0.00000  Uiso   1.00
C12    C     0.46347   0.79206   0.07258   0.00000  Uiso   1.00
C13    C     0.47361   0.70933   0.92668   0.00000  Uiso   1.00
C14    C     0.33120   0.91307   0.17645   0.00000  Uiso   1.00
C15    C     0.35456   0.97825   0.15095   0.00000  Uiso   1.00
C16    C     0.33043   0.02470   0.07299   0.00000  Uiso   1.00
C17    C     0.35829   0.08114   0.06213   0.00000  Uiso   1.00
C18    C     0.32733   0.90613   0.32956   0.00000  Uiso   1.00
C19    C     0.28032   0.89192   0.40178   0.00000  Uiso   1.00
C20    C     0.28527   0.88765   0.54128   0.00000  Uiso   1.00
C21    C     0.37502   0.86692   0.13063   0.00000  Uiso   1.00
C22    C     0.36810   0.81975   0.03561   0.00000  Uiso   1.00
C23    C     0.41320   0.78245   0.00766   0.00000  Uiso   1.00
H24    H     0.46266   0.93819   0.34625   0.00000  Uiso   1.00
H25    H     0.47148   0.05163   0.25520   0.00000  Uiso   1.00
H26    H     0.42138   0.91888   0.58393   0.00000  Uiso   1.00
H27    H     0.50915   0.84671   0.21782   0.00000  Uiso   1.00
H28    H     0.45911   0.17319   0.12572   0.00000  Uiso   1.00
H29    H     0.35348   0.89324   0.81886   0.00000  Uiso   1.00
H30    H     0.53856   0.74107   0.04684   0.00000  Uiso   1.00
H31    H     0.29213   0.90560   0.12599   0.00000  Uiso   1.00
H32    H     0.29159   0.01726   0.02285   0.00000  Uiso   1.00
H33    H     0.24149   0.88450   0.35159   0.00000  Uiso   1.00
H34    H     0.32926   0.81234   0.98547   0.00000  Uiso   1.00
H35    H     0.31311   0.14529   0.93714   0.00000  Uiso   1.00
H36    H     0.20748   0.86534   0.63028   0.00000  Uiso   1.00
H37    H     0.39256   0.71317   0.85826   0.00000  Uiso   1.00
O38    O     0.38883   0.23329   0.96759   0.00000  Uiso   1.00
O39    O     0.25024   0.86600   0.87696   0.00000  Uiso   1.00
O40    O     0.49306   0.66635   0.86409   0.00000  Uiso   1.00
N41    N     0.42483   0.15130   0.09547   0.00000  Uiso   1.00
N42    N     0.32607   0.88957   0.74352   0.00000  Uiso   1.00
N43    N     0.49910   0.74729   0.02177   0.00000  Uiso   1.00
N44    N     0.34627   0.13629   0.99399   0.00000  Uiso   1.00
N45    N     0.24751   0.87456   0.64204   0.00000  Uiso   1.00
N46    N     0.42054   0.73228   0.92029   0.00000  Uiso   1.00
C47    C     0.07641   0.06928   0.29578   0.00000  Uiso   1.00
C48    C     0.09526   0.01216   0.21576   0.00000  Uiso   1.00
C49    C     0.06735   0.95577   0.20502   0.00000  Uiso   1.00
C50    C     0.09143   0.90925   0.12707   0.00000  Uiso   1.00
C51    C     0.11309   0.81909   0.01273   0.00000  Uiso   1.00
C52    C     0.12248   0.08428   0.39437   0.00000  Uiso   1.00
C53    C     0.11746   0.08854   0.53380   0.00000  Uiso   1.00
C54    C     0.16446   0.10274   0.60621   0.00000  Uiso   1.00
C55    C     0.22837   0.12460   0.76916   0.00000  Uiso   1.00
C56    C     0.07480   0.12349   0.19545   0.00000  Uiso   1.00
C57    C     0.02968   0.16072   0.16764   0.00000  Uiso   1.00
C58    C     0.03653   0.20794   0.07258   0.00000  Uiso   1.00
C59    C     0.02639   0.29067   0.92668   0.00000  Uiso   1.00
C60    C     0.16880   0.08693   0.17645   0.00000  Uiso   1.00
C61    C     0.14544   0.02175   0.15095   0.00000  Uiso   1.00
C62    C     0.16957   0.97530   0.07299   0.00000  Uiso   1.00
C63    C     0.14171   0.91886   0.06213   0.00000  Uiso   1.00
C64    C     0.17267   0.09387   0.32956   0.00000  Uiso   1.00
C65    C     0.21968   0.10808   0.40178   0.00000  Uiso   1.00
C66    C     0.21473   0.11235   0.54128   0.00000  Uiso   1.00
C67    C     0.12498   0.13308   0.13063   0.00000  Uiso   1.00
C68    C     0.13190   0.18025   0.03561   0.00000  Uiso   1.00
C69    C     0.08680   0.21755   0.00766   0.00000  Uiso   1.00
H70    H     0.03734   0.06181   0.34625   0.00000  Uiso   1.00
H71    H     0.02852   0.94837   0.25520   0.00000  Uiso   1.00
H72    H     0.07862   0.08112   0.58393   0.00000  Uiso   1.00
H73    H     0.99085   0.15329   0.21782   0.00000  Uiso   1.00
H74    H     0.04089   0.82681   0.12572   0.00000  Uiso   1.00
H75    H     0.14652   0.10676   0.81886   0.00000  Uiso   1.00
H76    H     0.96144   0.25893   0.04684   0.00000  Uiso   1.00
H77    H     0.20787   0.09440   0.12599   0.00000  Uiso   1.00
H78    H     0.20841   0.98274   0.02285   0.00000  Uiso   1.00
H79    H     0.25851   0.11550   0.35159   0.00000  Uiso   1.00
H80    H     0.17074   0.18766   0.98547   0.00000  Uiso   1.00
H81    H     0.18689   0.85471   0.93714   0.00000  Uiso   1.00
H82    H     0.29252   0.13466   0.63028   0.00000  Uiso   1.00
H83    H     0.10744   0.28683   0.85826   0.00000  Uiso   1.00
O84    O     0.11117   0.76671   0.96759   0.00000  Uiso   1.00
O85    O     0.24976   0.13400   0.87696   0.00000  Uiso   1.00
O86    O     0.00694   0.33365   0.86409   0.00000  Uiso   1.00
N87    N     0.07517   0.84870   0.09547   0.00000  Uiso   1.00
N88    N     0.17393   0.11043   0.74352   0.00000  Uiso   1.00
N89    N     0.00090   0.25271   0.02177   0.00000  Uiso   1.00
N90    N     0.15373   0.86371   0.99399   0.00000  Uiso   1.00
N91    N     0.25249   0.12544   0.64204   0.00000  Uiso   1.00
N92    N     0.07946   0.26772   0.92029   0.00000  Uiso   1.00
C93    C     0.07641   0.43072   0.20422   0.00000  Uiso   1.00
C94    C     0.09526   0.48784   0.28424   0.00000  Uiso   1.00
C95    C     0.06735   0.54423   0.29498   0.00000  Uiso   1.00
C96    C     0.09143   0.59075   0.37293   0.00000  Uiso   1.00
C97    C     0.11309   0.68091   0.48727   0.00000  Uiso   1.00
C98    C     0.12248   0.41572   0.10563   0.00000  Uiso   1.00
C99    C     0.11746   0.41146   0.96620   0.00000  Uiso   1.00
C100   C     0.16446   0.39726   0.89379   0.00000  Uiso   1.00
C101   C     0.22837   0.37540   0.73084   0.00000  Uiso   1.00
C102   C     0.07480   0.37651   0.30455   0.00000  Uiso   1.00
C103   C     0.02968   0.33928   0.33236   0.00000  Uiso   1.00
C104   C     0.03653   0.29206   0.42742   0.00000  Uiso   1.00
C105   C     0.02639   0.20933   0.57332   0.00000  Uiso   1.00
C106   C     0.16880   0.41307   0.32355   0.00000  Uiso   1.00
C107   C     0.14544   0.47825   0.34905   0.00000  Uiso   1.00
C108   C     0.16957   0.52470   0.42701   0.00000  Uiso   1.00
C109   C     0.14171   0.58114   0.43787   0.00000  Uiso   1.00
C110   C     0.17267   0.40613   0.17044   0.00000  Uiso   1.00
C111   C     0.21968   0.39192   0.09822   0.00000  Uiso   1.00
C112   C     0.21473   0.38765   0.95872   0.00000  Uiso   1.00
C113   C     0.12498   0.36692   0.36937   0.00000  Uiso   1.00
C114   C     0.13190   0.31975   0.46439   0.00000  Uiso   1.00
C115   C     0.08680   0.28245   0.49234   0.00000  Uiso   1.00
H116   H     0.03734   0.43819   0.15375   0.00000  Uiso   1.00
H117   H     0.02852   0.55163   0.24480   0.00000  Uiso   1.00
H118   H     0.07862   0.41888   0.91607   0.00000  Uiso   1.00
H119   H     0.99085   0.34671   0.28218   0.00000  Uiso   1.00
H120   H     0.04089   0.67319   0.37428   0.00000  Uiso   1.00
H121   H     0.14652   0.39324   0.68114   0.00000  Uiso   1.00
H122   H     0.96144   0.24107   0.45316   0.00000  Uiso   1.00
H123   H     0.20787   0.40560   0.37401   0.00000  Uiso   1.00
H124   H     0.20841   0.51726   0.47715   0.00000  Uiso   1.00
H125   H     0.25851   0.38450   0.14841   0.00000  Uiso   1.00
H126   H     0.17074   0.31234   0.51453   0.00000  Uiso   1.00
H127   H     0.18689   0.64529   0.56286   0.00000  Uiso   1.00
H128   H     0.29252   0.36534   0.86972   0.00000  Uiso   1.00
H129   H     0.10744   0.21317   0.64174   0.00000  Uiso   1.00
O130   O     0.11117   0.73329   0.53241   0.00000  Uiso   1.00
O131   O     0.24976   0.36600   0.62304   0.00000  Uiso   1.00
O132   O     0.00694   0.16635   0.63591   0.00000  Uiso   1.00
N133   N     0.07517   0.65130   0.40453   0.00000  Uiso   1.00
N134   N     0.17393   0.38957   0.75648   0.00000  Uiso   1.00
N135   N     0.00090   0.24729   0.47823   0.00000  Uiso   1.00
N136   N     0.15373   0.63629   0.50601   0.00000  Uiso   1.00
N137   N     0.25249   0.37456   0.85796   0.00000  Uiso   1.00
N138   N     0.07946   0.23228   0.57971   0.00000  Uiso   1.00
C139   C     0.42359   0.56928   0.20422   0.00000  Uiso   1.00
C140   C     0.40474   0.51216   0.28424   0.00000  Uiso   1.00
C141   C     0.43265   0.45577   0.29498   0.00000  Uiso   1.00
C142   C     0.40857   0.40925   0.37293   0.00000  Uiso   1.00
C143   C     0.38691   0.31909   0.48727   0.00000  Uiso   1.00
C144   C     0.37752   0.58428   0.10563   0.00000  Uiso   1.00
C145   C     0.38254   0.58854   0.96620   0.00000  Uiso   1.00
C146   C     0.33554   0.60274   0.89379   0.00000  Uiso   1.00
C147   C     0.27163   0.62460   0.73084   0.00000  Uiso   1.00
C148   C     0.42520   0.62349   0.30455   0.00000  Uiso   1.00
C149   C     0.47032   0.66072   0.33236   0.00000  Uiso   1.00
C150   C     0.46347   0.70794   0.42742   0.00000  Uiso   1.00
C151   C     0.47361   0.79067   0.57332   0.00000  Uiso   1.00
C152   C     0.33120   0.58693   0.32355   0.00000  Uiso   1.00
C153   C     0.35456   0.52175   0.34905   0.00000  Uiso   1.00
C154   C     0.33043   0.47530   0.42701   0.00000  Uiso   1.00
C155   C     0.35829   0.41886   0.43787   0.00000  Uiso   1.00
C156   C     0.32733   0.59387   0.17044   0.00000  Uiso   1.00
C157   C     0.28032   0.60808   0.09822   0.00000  Uiso   1.00
C158   C     0.28527   0.61235   0.95872   0.00000  Uiso   1.00
C159   C     0.37502   0.63308   0.36937   0.00000  Uiso   1.00
C160   C     0.36810   0.68025   0.46439   0.00000  Uiso   1.00
C161   C     0.41320   0.71755   0.49234   0.00000  Uiso   1.00
H162   H     0.46266   0.56181   0.15375   0.00000  Uiso   1.00
H163   H     0.47148   0.44837   0.24480   0.00000  Uiso   1.00
H164   H     0.42138   0.58112   0.91607   0.00000  Uiso   1.00
H165   H     0.50915   0.65329   0.28218   0.00000  Uiso   1.00
H166   H     0.45911   0.32681   0.37428   0.00000  Uiso   1.00
H167   H     0.35348   0.60676   0.68114   0.00000  Uiso   1.00
H168   H     0.53856   0.75893   0.45316   0.00000  Uiso   1.00
H169   H     0.29213   0.59440   0.37401   0.00000  Uiso   1.00
H170   H     0.29159   0.48274   0.47715   0.00000  Uiso   1.00
H171   H     0.24149   0.61550   0.14841   0.00000  Uiso   1.00
H172   H     0.32926   0.68766   0.51453   0.00000  Uiso   1.00
H173   H     0.31311   0.35471   0.56286   0.00000  Uiso   1.00
H174   H     0.20748   0.63466   0.86972   0.00000  Uiso   1.00
H175   H     0.39256   0.78683   0.64174   0.00000  Uiso   1.00
O176   O     0.38883   0.26671   0.53241   0.00000  Uiso   1.00
O177   O     0.25024   0.63400   0.62304   0.00000  Uiso   1.00
O178   O     0.49306   0.83365   0.63591   0.00000  Uiso   1.00
N179   N     0.42483   0.34870   0.40453   0.00000  Uiso   1.00
N180   N     0.32607   0.61043   0.75648   0.00000  Uiso   1.00
N181   N     0.49910   0.75271   0.47823   0.00000  Uiso   1.00
N182   N     0.34627   0.36371   0.50601   0.00000  Uiso   1.00
N183   N     0.24751   0.62544   0.85796   0.00000  Uiso   1.00
N184   N     0.42054   0.76772   0.57971   0.00000  Uiso   1.00
C185   C     0.57641   0.06928   0.70422   0.00000  Uiso   1.00
C186   C     0.59526   0.01216   0.78424   0.00000  Uiso   1.00
C187   C     0.56735   0.95577   0.79498   0.00000  Uiso   1.00
C188   C     0.59143   0.90925   0.87293   0.00000  Uiso   1.00
C189   C     0.61309   0.81909   0.98727   0.00000  Uiso   1.00
C190   C     0.62248   0.08428   0.60563   0.00000  Uiso   1.00
C191   C     0.61746   0.08854   0.46620   0.00000  Uiso   1.00
C192   C     0.66446   0.10274   0.39379   0.00000  Uiso   1.00
C193   C     0.72837   0.12460   0.23084   0.00000  Uiso   1.00
C194   C     0.57480   0.12349   0.80455   0.00000  Uiso   1.00
C195   C     0.52968   0.16072   0.83236   0.00000  Uiso   1.00
C196   C     0.53653   0.20794   0.92742   0.00000  Uiso   1.00
C197   C     0.52639   0.29067   0.07332   0.00000  Uiso   1.00
C198   C     0.66880   0.08693   0.82355   0.00000  Uiso   1.00
C199   C     0.64544   0.02175   0.84905   0.00000  Uiso   1.00
C200   C     0.66957   0.97530   0.92701   0.00000  Uiso   1.00
C201   C     0.64171   0.91886   0.93787   0.00000  Uiso   1.00
C202   C     0.67267   0.09387   0.67044   0.00000  Uiso   1.00
C203   C     0.71968   0.10808   0.59822   0.00000  Uiso   1.00
C204   C     0.71473   0.11235   0.45872   0.00000  Uiso   1.00
C205   C     0.62498   0.13308   0.86937   0.00000  Uiso   1.00
C206   C     0.63190   0.18025   0.96439   0.00000  Uiso   1.00
C207   C     0.58680   0.21755   0.99234   0.00000  Uiso   1.00
H208   H     0.53734   0.06181   0.65375   0.00000  Uiso   1.00
H209   H     0.52852   0.94837   0.74480   0.00000  Uiso   1.00
H210   H     0.57862   0.08112   0.41607   0.00000  Uiso   1.00
H211   H     0.49085   0.15329   0.78218   0.00000  Uiso   1.00
H212   H     0.54089   0.82681   0.87428   0.00000  Uiso   1.00
H213   H     0.64652   0.10676   0.18114   0.00000  Uiso   1.00
H214   H     0.46144   0.25893   0.95316   0.00000  Uiso   1.00
H215   H     0.70787   0.09440   0.87401   0.00000  Uiso   1.00
H216   H     0.70841   0.98274   0.97715   0.00000  Uiso   1.00
H217   H     0.75851   0.11550   0.64841   0.00000  Uiso   1.00
H218   H     0.67074   0.18766   0.01453   0.00000  Uiso   1.00
H219   H     0.68689   0.85471   0.06286   0.00000  Uiso   1.00
H220   H     0.79252   0.13466   0.36972   0.00000  Uiso   1.00
H221   H     0.60744   0.28683   0.14174   0.00000  Uiso   1.00
O222   O     0.61117   0.76671   0.03241   0.00000  Uiso   1.00
O223   O     0.74976   0.13400   0.12304   0.00000  Uiso   1.00
O224   O     0.50694   0.33365   0.13591   0.00000  Uiso   1.00
N225   N     0.57517   0.84870   0.90453   0.00000  Uiso   1.00
N226   N     0.67393   0.11043   0.25648   0.00000  Uiso   1.00
N227   N     0.50090   0.25271   0.97823   0.00000  Uiso   1.00
N228   N     0.65373   0.86371   0.00601   0.00000  Uiso   1.00
N229   N     0.75249   0.12544   0.35796   0.00000  Uiso   1.00
N230   N     0.57946   0.26772   0.07971   0.00000  Uiso   1.00
C231   C     0.92359   0.93072   0.70422   0.00000  Uiso   1.00
C232   C     0.90474   0.98784   0.78424   0.00000  Uiso   1.00
C233   C     0.93265   0.04423   0.79498   0.00000  Uiso   1.00
C234   C     0.90857   0.09075   0.87293   0.00000  Uiso   1.00
C235   C     0.88691   0.18091   0.98727   0.00000  Uiso   1.00
C236   C     0.87752   0.91572   0.60563   0.00000  Uiso   1.00
C237   C     0.88254   0.91146   0.46620   0.00000  Uiso   1.00
C238   C     0.83554   0.89726   0.39379   0.00000  Uiso   1.00
C239   C     0.77163   0.87540   0.23084   0.00000  Uiso   1.00
C240   C     0.92520   0.87651   0.80455   0.00000  Uiso   1.00
C241   C     0.97032   0.83928   0.83236   0.00000  Uiso   1.00
C242   C     0.96347   0.79206   0.92742   0.00000  Uiso   1.00
C243   C     0.97361   0.70933   0.07332   0.00000  Uiso   1.00
C244   C     0.83120   0.91307   0.82355   0.00000  Uiso   1.00
C245   C     0.85456   0.97825   0.84905   0.00000  Uiso   1.00
C246   C     0.83043   0.02470   0.92701   0.00000  Uiso   1.00
C247   C     0.85829   0.08114   0.93787   0.00000  Uiso   1.00
C248   C     0.82733   0.90613   0.67044   0.00000  Uiso   1.00
C249   C     0.78032   0.89192   0.59822   0.00000  Uiso   1.00
C250   C     0.78527   0.88765   0.45872   0.00000  Uiso   1.00
C251   C     0.87502   0.86692   0.86937   0.00000  Uiso   1.00
C252   C     0.86810   0.81975   0.96439   0.00000  Uiso   1.00
C253   C     0.91320   0.78245   0.99234   0.00000  Uiso   1.00
H254   H     0.96266   0.93819   0.65375   0.00000  Uiso   1.00
H255   H     0.97148   0.05163   0.74480   0.00000  Uiso   1.00
H256   H     0.92138   0.91888   0.41607   0.00000  Uiso   1.00
H257   H     0.00915   0.84671   0.78218   0.00000  Uiso   1.00
H258   H     0.95911   0.17319   0.87428   0.00000  Uiso   1.00
H259   H     0.85348   0.89324   0.18114   0.00000  Uiso   1.00
H260   H     0.03856   0.74107   0.95316   0.00000  Uiso   1.00
H261   H     0.79213   0.90560   0.87401   0.00000  Uiso   1.00
H262   H     0.79159   0.01726   0.97715   0.00000  Uiso   1.00
H263   H     0.74149   0.88450   0.64841   0.00000  Uiso   1.00
H264   H     0.82926   0.81234   0.01453   0.00000  Uiso   1.00
H265   H     0.81311   0.14529   0.06286   0.00000  Uiso   1.00
H266   H     0.70748   0.86534   0.36972   0.00000  Uiso   1.00
H267   H     0.89256   0.71317   0.14174   0.00000  Uiso   1.00
O268   O     0.88883   0.23329   0.03241   0.00000  Uiso   1.00
O269   O     0.75024   0.86600   0.12304   0.00000  Uiso   1.00
O270   O     0.99306   0.66635   0.13591   0.00000  Uiso   1.00
N271   N     0.92483   0.15130   0.90453   0.00000  Uiso   1.00
N272   N     0.82607   0.88957   0.25648   0.00000  Uiso   1.00
N273   N     0.99910   0.74729   0.97823   0.00000  Uiso   1.00
N274   N     0.84627   0.13629   0.00601   0.00000  Uiso   1.00
N275   N     0.74751   0.87456   0.35796   0.00000  Uiso   1.00
N276   N     0.92054   0.73228   0.07971   0.00000  Uiso   1.00
C277   C     0.92359   0.56928   0.79578   0.00000  Uiso   1.00
C278   C     0.90474   0.51216   0.71576   0.00000  Uiso   1.00
C279   C     0.93265   0.45577   0.70502   0.00000  Uiso   1.00
C280   C     0.90857   0.40925   0.62707   0.00000  Uiso   1.00
C281   C     0.88691   0.31909   0.51273   0.00000  Uiso   1.00
C282   C     0.87752   0.58428   0.89437   0.00000  Uiso   1.00
C283   C     0.88254   0.58854   0.03380   0.00000  Uiso   1.00
C284   C     0.83554   0.60274   0.10621   0.00000  Uiso   1.00
C285   C     0.77163   0.62460   0.26916   0.00000  Uiso   1.00
C286   C     0.92520   0.62349   0.69545   0.00000  Uiso   1.00
C287   C     0.97032   0.66072   0.66764   0.00000  Uiso   1.00
C288   C     0.96347   0.70794   0.57258   0.00000  Uiso   1.00
C289   C     0.97361   0.79067   0.42668   0.00000  Uiso   1.00
C290   C     0.83120   0.58693   0.67645   0.00000  Uiso   1.00
C291   C     0.85456   0.52175   0.65095   0.00000  Uiso   1.00
C292   C     0.83043   0.47530   0.57299   0.00000  Uiso   1.00
C293   C     0.85829   0.41886   0.56213   0.00000  Uiso   1.00
C294   C     0.82733   0.59387   0.82956   0.00000  Uiso   1.00
C295   C     0.78032   0.60808   0.90178   0.00000  Uiso   1.00
C296   C     0.78527   0.61235   0.04128   0.00000  Uiso   1.00
C297   C     0.87502   0.63308   0.63063   0.00000  Uiso   1.00
C298   C     0.86810   0.68025   0.53561   0.00000  Uiso   1.00
C299   C     0.91320   0.71755   0.50766   0.00000  Uiso   1.00
H300   H     0.96266   0.56181   0.84625   0.00000  Uiso   1.00
H301   H     0.97148   0.44837   0.75520   0.00000  Uiso   1.00
H302   H     0.92138   0.58112   0.08393   0.00000  Uiso   1.00
H303   H     0.00915   0.65329   0.71782   0.00000  Uiso   1.00
H304   H     0.95911   0.32681   0.62572   0.00000  Uiso   1.00
H305   H     0.85348   0.60676   0.31886   0.00000  Uiso   1.00
H306   H     0.03856   0.75893   0.54684   0.00000  Uiso   1.00
H307   H     0.79213   0.59440   0.62599   0.00000  Uiso   1.00
H308   H     0.79159   0.48274   0.52285   0.00000  Uiso   1.00
H309   H     0.74149   0.61550   0.85159   0.00000  Uiso   1.00
H310   H     0.82926   0.68766   0.48547   0.00000  Uiso   1.00
H311   H     0.81311   0.35471   0.43714   0.00000  Uiso   1.00
H312   H     0.70748   0.63466   0.13028   0.00000  Uiso   1.00
H313   H     0.89256   0.78683   0.35826   0.00000  Uiso   1.00
O314   O     0.88883   0.26671   0.46759   0.00000  Uiso   1.00
O315   O     0.75024   0.63400   0.37696   0.00000  Uiso   1.00
O316   O     0.99306   0.83365   0.36409   0.00000  Uiso   1.00
N317   N     0.92483   0.34870   0.59547   0.00000  Uiso   1.00
N318   N     0.82607   0.61043   0.24352   0.00000  Uiso   1.00
N319   N     0.99910   0.75271   0.52177   0.00000  Uiso   1.00
N320   N     0.84627   0.36371   0.49399   0.00000  Uiso   1.00
N321   N     0.74751   0.62544   0.14204   0.00000  Uiso   1.00
N322   N     0.92054   0.76772   0.42029   0.00000  Uiso   1.00
C323   C     0.57641   0.43072   0.79578   0.00000  Uiso   1.00
C324   C     0.59526   0.48784   0.71576   0.00000  Uiso   1.00
C325   C     0.56735   0.54423   0.70502   0.00000  Uiso   1.00
C326   C     0.59143   0.59075   0.62707   0.00000  Uiso   1.00
C327   C     0.61309   0.68091   0.51273   0.00000  Uiso   1.00
C328   C     0.62248   0.41572   0.89437   0.00000  Uiso   1.00
C329   C     0.61746   0.41146   0.03380   0.00000  Uiso   1.00
C330   C     0.66446   0.39726   0.10621   0.00000  Uiso   1.00
C331   C     0.72837   0.37540   0.26916   0.00000  Uiso   1.00
C332   C     0.57480   0.37651   0.69545   0.00000  Uiso   1.00
C333   C     0.52968   0.33928   0.66764   0.00000  Uiso   1.00
C334   C     0.53653   0.29206   0.57258   0.00000  Uiso   1.00
C335   C     0.52639   0.20933   0.42668   0.00000  Uiso   1.00
C336   C     0.66880   0.41307   0.67645   0.00000  Uiso   1.00
C337   C     0.64544   0.47825   0.65095   0.00000  Uiso   1.00
C338   C     0.66957   0.52470   0.57299   0.00000  Uiso   1.00
C339   C     0.64171   0.58114   0.56213   0.00000  Uiso   1.00
C340   C     0.67267   0.40613   0.82956   0.00000  Uiso   1.00
C341   C     0.71968   0.39192   0.90178   0.00000  Uiso   1.00
C342   C     0.71473   0.38765   0.04128   0.00000  Uiso   1.00
C343   C     0.62498   0.36692   0.63063   0.00000  Uiso   1.00
C344   C     0.63190   0.31975   0.53561   0.00000  Uiso   1.00
C345   C     0.58680   0.28245   0.50766   0.00000  Uiso   1.00
H346   H     0.53734   0.43819   0.84625   0.00000  Uiso   1.00
H347   H     0.52852   0.55163   0.75520   0.00000  Uiso   1.00
H348   H     0.57862   0.41888   0.08393   0.00000  Uiso   1.00
H349   H     0.49085   0.34671   0.71782   0.00000  Uiso   1.00
H350   H     0.54089   0.67319   0.62572   0.00000  Uiso   1.00
H351   H     0.64652   0.39324   0.31886   0.00000  Uiso   1.00
H352   H     0.46144   0.24107   0.54684   0.00000  Uiso   1.00
H353   H     0.70787   0.40560   0.62599   0.00000  Uiso   1.00
H354   H     0.70841   0.51726   0.52285   0.00000  Uiso   1.00
H355   H     0.75851   0.38450   0.85159   0.00000  Uiso   1.00
H356   H     0.67074   0.31234   0.48547   0.00000  Uiso   1.00
H357   H     0.68689   0.64529   0.43714   0.00000  Uiso   1.00
H358   H     0.79252   0.36534   0.13028   0.00000  Uiso   1.00
H359   H     0.60744   0.21317   0.35826   0.00000  Uiso   1.00
O360   O     0.61117   0.73329   0.46759   0.00000  Uiso   1.00
O361   O     0.74976   0.36600   0.37696   0.00000  Uiso   1.00
O362   O     0.50694   0.16635   0.36409   0.00000  Uiso   1.00
N363   N     0.57517   0.65130   0.59547   0.00000  Uiso   1.00
N364   N     0.67393   0.38957   0.24352   0.00000  Uiso   1.00
N365   N     0.50090   0.24729   0.52177   0.00000  Uiso   1.00
N366   N     0.65373   0.63629   0.49399   0.00000  Uiso   1.00
N367   N     0.75249   0.37456   0.14204   0.00000  Uiso   1.00
N368   N     0.57946   0.23228   0.42029   0.00000  Uiso   1.00
