data_job_03885
_audit_creation_date              2018-12-19
_audit_creation_method            'Materials Studio'
_symmetry_space_group_name_H-M    'P1'
_symmetry_Int_Tables_number       1
_symmetry_cell_setting            triclinic
loop_
_symmetry_equiv_pos_as_xyz
  x,y,z
_cell_length_a                    16.6941
_cell_length_b                    16.6941
_cell_length_c                    8.7338
_cell_angle_alpha                 90.0000
_cell_angle_beta                  90.0000
_cell_angle_gamma                 90.0000
loop_
_atom_site_label
_atom_site_type_symbol
_atom_site_fract_x
_atom_site_fract_y
_atom_site_fract_z
_atom_site_U_iso_or_equiv
_atom_site_adp_type
_atom_site_occupancy
C1     C     0.86618   0.58423   0.00686   0.00000  Uiso   1.00
C2     C     0.89717   0.66413   0.06726   0.00000  Uiso   1.00
C3     C     0.96439   0.70448   0.01447   0.00000  Uiso   1.00
C4     C     0.98277   0.77678   0.08476   0.00000  Uiso   1.00
C5     C     0.03810   0.89615   0.16054   0.00000  Uiso   1.00
C6     C     0.86214   0.52840   0.14484   0.00000  Uiso   1.00
C7     C     0.89991   0.45463   0.15726   0.00000  Uiso   1.00
C8     C     0.88879   0.41266   0.29286   0.00000  Uiso   1.00
C9     C     0.88968   0.32128   0.48903   0.00000  Uiso   1.00
C10    C     0.77968   0.59895   0.95835   0.00000  Uiso   1.00
C11    C     0.74810   0.58448   0.81399   0.00000  Uiso   1.00
C12    C     0.66755   0.60190   0.79258   0.00000  Uiso   1.00
C13    C     0.54040   0.62006   0.69921   0.00000  Uiso   1.00
C14    C     0.77927   0.64086   0.22556   0.00000  Uiso   1.00
C15    C     0.84996   0.69489   0.18606   0.00000  Uiso   1.00
C16    C     0.86824   0.76715   0.25644   0.00000  Uiso   1.00
C17    C     0.93548   0.80760   0.20376   0.00000  Uiso   1.00
C18    C     0.81494   0.55916   0.26363   0.00000  Uiso   1.00
C19    C     0.80375   0.51729   0.39924   0.00000  Uiso   1.00
C20    C     0.84150   0.44348   0.41187   0.00000  Uiso   1.00
C21    C     0.73247   0.62972   0.07714   0.00000  Uiso   1.00
C22    C     0.65195   0.64715   0.05596   0.00000  Uiso   1.00
C23    C     0.62026   0.63271   0.91159   0.00000  Uiso   1.00
H24    H     0.90293   0.56027   0.91438   0.00000  Uiso   1.00
H25    H     0.00092   0.68065   0.92254   0.00000  Uiso   1.00
H26    H     0.93643   0.43083   0.06531   0.00000  Uiso   1.00
H27    H     0.78465   0.56067   0.72209   0.00000  Uiso   1.00
H28    H     0.08875   0.82767   0.98403   0.00000  Uiso   1.00
H29    H     0.95275   0.30090   0.28503   0.00000  Uiso   1.00
H30    H     0.63269   0.57469   0.56128   0.00000  Uiso   1.00
H31    H     0.74252   0.66481   0.31805   0.00000  Uiso   1.00
H32    H     0.83170   0.79094   0.34837   0.00000  Uiso   1.00
H33    H     0.76722   0.54112   0.49114   0.00000  Uiso   1.00
H34    H     0.61544   0.67096   0.14792   0.00000  Uiso   1.00
H35    H     0.95141   0.91718   0.32965   0.00000  Uiso   1.00
H36    H     0.81541   0.39041   0.63065   0.00000  Uiso   1.00
H37    H     0.49536   0.66420   0.90690   0.00000  Uiso   1.00
O38    O     0.08166   0.95349   0.16953   0.00000  Uiso   1.00
O39    O     0.90322   0.26238   0.56442   0.00000  Uiso   1.00
O40    O     0.48332   0.62159   0.61488   0.00000  Uiso   1.00
N41    N     0.04418   0.83144   0.06119   0.00000  Uiso   1.00
N42    N     0.91704   0.33894   0.34262   0.00000  Uiso   1.00
N43    N     0.61781   0.59489   0.66598   0.00000  Uiso   1.00
N44    N     0.97028   0.87960   0.24716   0.00000  Uiso   1.00
N45    N     0.84314   0.38711   0.52859   0.00000  Uiso   1.00
N46    N     0.54391   0.64306   0.85196   0.00000  Uiso   1.00
C47    C     0.13382   0.41577   0.00686   0.00000  Uiso   1.00
C48    C     0.10283   0.33587   0.06726   0.00000  Uiso   1.00
C49    C     0.03561   0.29552   0.01447   0.00000  Uiso   1.00
C50    C     0.01723   0.22322   0.08476   0.00000  Uiso   1.00
C51    C     0.96190   0.10385   0.16054   0.00000  Uiso   1.00
C52    C     0.13786   0.47160   0.14484   0.00000  Uiso   1.00
C53    C     0.10009   0.54537   0.15726   0.00000  Uiso   1.00
C54    C     0.11121   0.58734   0.29286   0.00000  Uiso   1.00
C55    C     0.11032   0.67872   0.48903   0.00000  Uiso   1.00
C56    C     0.22032   0.40105   0.95835   0.00000  Uiso   1.00
C57    C     0.25190   0.41552   0.81399   0.00000  Uiso   1.00
C58    C     0.33245   0.39810   0.79258   0.00000  Uiso   1.00
C59    C     0.45960   0.37994   0.69921   0.00000  Uiso   1.00
C60    C     0.22073   0.35914   0.22556   0.00000  Uiso   1.00
C61    C     0.15004   0.30511   0.18606   0.00000  Uiso   1.00
C62    C     0.13176   0.23285   0.25644   0.00000  Uiso   1.00
C63    C     0.06452   0.19240   0.20376   0.00000  Uiso   1.00
C64    C     0.18506   0.44084   0.26363   0.00000  Uiso   1.00
C65    C     0.19625   0.48271   0.39924   0.00000  Uiso   1.00
C66    C     0.15850   0.55652   0.41187   0.00000  Uiso   1.00
C67    C     0.26753   0.37028   0.07714   0.00000  Uiso   1.00
C68    C     0.34805   0.35285   0.05596   0.00000  Uiso   1.00
C69    C     0.37974   0.36729   0.91159   0.00000  Uiso   1.00
H70    H     0.09707   0.43973   0.91438   0.00000  Uiso   1.00
H71    H     0.99908   0.31935   0.92254   0.00000  Uiso   1.00
H72    H     0.06357   0.56917   0.06531   0.00000  Uiso   1.00
H73    H     0.21535   0.43933   0.72209   0.00000  Uiso   1.00
H74    H     0.91125   0.17233   0.98403   0.00000  Uiso   1.00
H75    H     0.04725   0.69910   0.28503   0.00000  Uiso   1.00
H76    H     0.36731   0.42531   0.56128   0.00000  Uiso   1.00
H77    H     0.25748   0.33519   0.31805   0.00000  Uiso   1.00
H78    H     0.16830   0.20906   0.34837   0.00000  Uiso   1.00
H79    H     0.23278   0.45888   0.49114   0.00000  Uiso   1.00
H80    H     0.38456   0.32904   0.14792   0.00000  Uiso   1.00
H81    H     0.04859   0.08282   0.32965   0.00000  Uiso   1.00
H82    H     0.18459   0.60959   0.63065   0.00000  Uiso   1.00
H83    H     0.50464   0.33580   0.90690   0.00000  Uiso   1.00
O84    O     0.91834   0.04651   0.16953   0.00000  Uiso   1.00
O85    O     0.09678   0.73762   0.56442   0.00000  Uiso   1.00
O86    O     0.51668   0.37841   0.61488   0.00000  Uiso   1.00
N87    N     0.95582   0.16856   0.06119   0.00000  Uiso   1.00
N88    N     0.08296   0.66106   0.34262   0.00000  Uiso   1.00
N89    N     0.38219   0.40511   0.66598   0.00000  Uiso   1.00
N90    N     0.02972   0.12040   0.24716   0.00000  Uiso   1.00
N91    N     0.15686   0.61289   0.52859   0.00000  Uiso   1.00
N92    N     0.45609   0.35694   0.85196   0.00000  Uiso   1.00
C93    C     0.58423   0.13382   0.99314   0.00000  Uiso   1.00
C94    C     0.66413   0.10283   0.93274   0.00000  Uiso   1.00
C95    C     0.70448   0.03561   0.98553   0.00000  Uiso   1.00
C96    C     0.77678   0.01723   0.91524   0.00000  Uiso   1.00
C97    C     0.89615   0.96190   0.83946   0.00000  Uiso   1.00
C98    C     0.52840   0.13786   0.85516   0.00000  Uiso   1.00
C99    C     0.45463   0.10009   0.84274   0.00000  Uiso   1.00
C100   C     0.41266   0.11121   0.70714   0.00000  Uiso   1.00
C101   C     0.32128   0.11032   0.51097   0.00000  Uiso   1.00
C102   C     0.59895   0.22032   0.04165   0.00000  Uiso   1.00
C103   C     0.58448   0.25190   0.18601   0.00000  Uiso   1.00
C104   C     0.60190   0.33245   0.20742   0.00000  Uiso   1.00
C105   C     0.62006   0.45960   0.30079   0.00000  Uiso   1.00
C106   C     0.64086   0.22073   0.77444   0.00000  Uiso   1.00
C107   C     0.69489   0.15004   0.81394   0.00000  Uiso   1.00
C108   C     0.76715   0.13176   0.74356   0.00000  Uiso   1.00
C109   C     0.80760   0.06452   0.79624   0.00000  Uiso   1.00
C110   C     0.55916   0.18506   0.73637   0.00000  Uiso   1.00
C111   C     0.51729   0.19625   0.60076   0.00000  Uiso   1.00
C112   C     0.44348   0.15850   0.58813   0.00000  Uiso   1.00
C113   C     0.62972   0.26753   0.92286   0.00000  Uiso   1.00
C114   C     0.64715   0.34805   0.94404   0.00000  Uiso   1.00
C115   C     0.63271   0.37974   0.08841   0.00000  Uiso   1.00
H116   H     0.56027   0.09707   0.08562   0.00000  Uiso   1.00
H117   H     0.68065   0.99908   0.07746   0.00000  Uiso   1.00
H118   H     0.43083   0.06357   0.93469   0.00000  Uiso   1.00
H119   H     0.56067   0.21535   0.27791   0.00000  Uiso   1.00
H120   H     0.82767   0.91125   0.01597   0.00000  Uiso   1.00
H121   H     0.30090   0.04725   0.71497   0.00000  Uiso   1.00
H122   H     0.57469   0.36731   0.43872   0.00000  Uiso   1.00
H123   H     0.66481   0.25748   0.68195   0.00000  Uiso   1.00
H124   H     0.79094   0.16830   0.65163   0.00000  Uiso   1.00
H125   H     0.54112   0.23278   0.50886   0.00000  Uiso   1.00
H126   H     0.67096   0.38456   0.85208   0.00000  Uiso   1.00
H127   H     0.91718   0.04859   0.67035   0.00000  Uiso   1.00
H128   H     0.39041   0.18459   0.36935   0.00000  Uiso   1.00
H129   H     0.66420   0.50464   0.09310   0.00000  Uiso   1.00
O130   O     0.95349   0.91834   0.83047   0.00000  Uiso   1.00
O131   O     0.26238   0.09678   0.43558   0.00000  Uiso   1.00
O132   O     0.62159   0.51668   0.38512   0.00000  Uiso   1.00
N133   N     0.83144   0.95582   0.93881   0.00000  Uiso   1.00
N134   N     0.33894   0.08296   0.65738   0.00000  Uiso   1.00
N135   N     0.59489   0.38219   0.33402   0.00000  Uiso   1.00
N136   N     0.87960   0.02972   0.75284   0.00000  Uiso   1.00
N137   N     0.38711   0.15686   0.47141   0.00000  Uiso   1.00
N138   N     0.64306   0.45609   0.14804   0.00000  Uiso   1.00
C139   C     0.41577   0.86618   0.99314   0.00000  Uiso   1.00
C140   C     0.33587   0.89717   0.93274   0.00000  Uiso   1.00
C141   C     0.29552   0.96439   0.98553   0.00000  Uiso   1.00
C142   C     0.22322   0.98277   0.91524   0.00000  Uiso   1.00
C143   C     0.10385   0.03810   0.83946   0.00000  Uiso   1.00
C144   C     0.47160   0.86214   0.85516   0.00000  Uiso   1.00
C145   C     0.54537   0.89991   0.84274   0.00000  Uiso   1.00
C146   C     0.58734   0.88879   0.70714   0.00000  Uiso   1.00
C147   C     0.67872   0.88968   0.51097   0.00000  Uiso   1.00
C148   C     0.40105   0.77968   0.04165   0.00000  Uiso   1.00
C149   C     0.41552   0.74810   0.18601   0.00000  Uiso   1.00
C150   C     0.39810   0.66755   0.20742   0.00000  Uiso   1.00
C151   C     0.37994   0.54040   0.30079   0.00000  Uiso   1.00
C152   C     0.35914   0.77927   0.77444   0.00000  Uiso   1.00
C153   C     0.30511   0.84996   0.81394   0.00000  Uiso   1.00
C154   C     0.23285   0.86824   0.74356   0.00000  Uiso   1.00
C155   C     0.19240   0.93548   0.79624   0.00000  Uiso   1.00
C156   C     0.44084   0.81494   0.73637   0.00000  Uiso   1.00
C157   C     0.48271   0.80375   0.60076   0.00000  Uiso   1.00
C158   C     0.55652   0.84150   0.58813   0.00000  Uiso   1.00
C159   C     0.37028   0.73247   0.92286   0.00000  Uiso   1.00
C160   C     0.35285   0.65195   0.94404   0.00000  Uiso   1.00
C161   C     0.36729   0.62026   0.08841   0.00000  Uiso   1.00
H162   H     0.43973   0.90293   0.08562   0.00000  Uiso   1.00
H163   H     0.31935   0.00092   0.07746   0.00000  Uiso   1.00
H164   H     0.56917   0.93643   0.93469   0.00000  Uiso   1.00
H165   H     0.43933   0.78465   0.27791   0.00000  Uiso   1.00
H166   H     0.17233   0.08875   0.01597   0.00000  Uiso   1.00
H167   H     0.69910   0.95275   0.71497   0.00000  Uiso   1.00
H168   H     0.42531   0.63269   0.43872   0.00000  Uiso   1.00
H169   H     0.33519   0.74252   0.68195   0.00000  Uiso   1.00
H170   H     0.20906   0.83170   0.65163   0.00000  Uiso   1.00
H171   H     0.45888   0.76722   0.50886   0.00000  Uiso   1.00
H172   H     0.32904   0.61544   0.85208   0.00000  Uiso   1.00
H173   H     0.08282   0.95141   0.67035   0.00000  Uiso   1.00
H174   H     0.60959   0.81541   0.36935   0.00000  Uiso   1.00
H175   H     0.33580   0.49536   0.09310   0.00000  Uiso   1.00
O176   O     0.04651   0.08166   0.83047   0.00000  Uiso   1.00
O177   O     0.73762   0.90322   0.43558   0.00000  Uiso   1.00
O178   O     0.37841   0.48332   0.38512   0.00000  Uiso   1.00
N179   N     0.16856   0.04418   0.93881   0.00000  Uiso   1.00
N180   N     0.66106   0.91704   0.65738   0.00000  Uiso   1.00
N181   N     0.40511   0.61781   0.33402   0.00000  Uiso   1.00
N182   N     0.12040   0.97028   0.75284   0.00000  Uiso   1.00
N183   N     0.61289   0.84314   0.47141   0.00000  Uiso   1.00
N184   N     0.35694   0.54391   0.14804   0.00000  Uiso   1.00
