data_job_06063
_audit_creation_date              2018-12-19
_audit_creation_method            'Materials Studio'
_symmetry_space_group_name_H-M    'P1'
_symmetry_Int_Tables_number       1
_symmetry_cell_setting            triclinic
loop_
_symmetry_equiv_pos_as_xyz
  x,y,z
_cell_length_a                    16.0232
_cell_length_b                    16.0764
_cell_length_c                    16.1069
_cell_angle_alpha                 101.5640
_cell_angle_beta                  101.6100
_cell_angle_gamma                 101.5900
loop_
_atom_site_label
_atom_site_type_symbol
_atom_site_fract_x
_atom_site_fract_y
_atom_site_fract_z
_atom_site_U_iso_or_equiv
_atom_site_adp_type
_atom_site_occupancy
C1     C     0.15841   0.61966   0.86217   0.00000  Uiso   1.00
C2     C     0.16049   0.52402   0.85431   0.00000  Uiso   1.00
C3     C     0.14922   0.47793   0.91713   0.00000  Uiso   1.00
C4     C     0.15343   0.39099   0.89751   0.00000  Uiso   1.00
C5     C     0.15443   0.24848   0.89743   0.00000  Uiso   1.00
C6     C     0.24584   0.66551   0.84866   0.00000  Uiso   1.00
C7     C     0.30632   0.73838   0.90673   0.00000  Uiso   1.00
C8     C     0.38238   0.77055   0.88233   0.00000  Uiso   1.00
C9     C     0.51586   0.84774   0.87346   0.00000  Uiso   1.00
C10    C     0.08777   0.61981   0.78310   0.00000  Uiso   1.00
C11    C     0.01534   0.65428   0.78605   0.00000  Uiso   1.00
C12    C     0.95831   0.64799   0.70646   0.00000  Uiso   1.00
C13    C     0.84636   0.65422   0.59580   0.00000  Uiso   1.00
C14    C     0.18593   0.54721   0.71560   0.00000  Uiso   1.00
C15    C     0.17544   0.48467   0.77470   0.00000  Uiso   1.00
C16    C     0.17967   0.39777   0.75497   0.00000  Uiso   1.00
C17    C     0.16840   0.35156   0.81775   0.00000  Uiso   1.00
C18    C     0.26080   0.62616   0.76905   0.00000  Uiso   1.00
C19    C     0.33678   0.65822   0.74456   0.00000  Uiso   1.00
C20    C     0.39736   0.73112   0.80258   0.00000  Uiso   1.00
C21    C     0.10271   0.58045   0.70349   0.00000  Uiso   1.00
C22    C     0.04579   0.57411   0.62388   0.00000  Uiso   1.00
C23    C     0.97329   0.60856   0.62670   0.00000  Uiso   1.00
H24    H     0.14677   0.65031   0.92415   0.00000  Uiso   1.00
H25    H     0.13766   0.50841   0.97874   0.00000  Uiso   1.00
H26    H     0.29473   0.76883   0.96833   0.00000  Uiso   1.00
H27    H     0.00379   0.68473   0.84766   0.00000  Uiso   1.00
H28    H     0.13417   0.33376   0.00416   0.00000  Uiso   1.00
H29    H     0.46536   0.88287   0.98220   0.00000  Uiso   1.00
H30    H     0.85186   0.70554   0.72776   0.00000  Uiso   1.00
H31    H     0.19757   0.51657   0.65362   0.00000  Uiso   1.00
H32    H     0.19124   0.36734   0.69336   0.00000  Uiso   1.00
H33    H     0.34832   0.62775   0.68295   0.00000  Uiso   1.00
H34    H     0.05738   0.54366   0.56229   0.00000  Uiso   1.00
H35    H     0.17767   0.21925   0.77254   0.00000  Uiso   1.00
H36    H     0.50886   0.76837   0.75057   0.00000  Uiso   1.00
H37    H     0.89536   0.59104   0.49613   0.00000  Uiso   1.00
O38    O     0.15087   0.18076   0.91938   0.00000  Uiso   1.00
O39    O     0.58536   0.90118   0.89056   0.00000  Uiso   1.00
O40    O     0.78047   0.66852   0.55675   0.00000  Uiso   1.00
N41    N     0.14526   0.32728   0.94419   0.00000  Uiso   1.00
N42    N     0.45491   0.84067   0.92366   0.00000  Uiso   1.00
N43    N     0.88135   0.67490   0.68578   0.00000  Uiso   1.00
N44    N     0.16867   0.26567   0.81955   0.00000  Uiso   1.00
N45    N     0.47831   0.77905   0.79902   0.00000  Uiso   1.00
N46    N     0.90475   0.61328   0.56114   0.00000  Uiso   1.00
C47    C     0.86259   0.15841   0.61976   0.00000  Uiso   1.00
C48    C     0.85471   0.16049   0.52430   0.00000  Uiso   1.00
C49    C     0.91792   0.14933   0.47839   0.00000  Uiso   1.00
C50    C     0.89820   0.15352   0.39159   0.00000  Uiso   1.00
C51    C     0.89817   0.15455   0.24937   0.00000  Uiso   1.00
C52    C     0.84889   0.24550   0.66544   0.00000  Uiso   1.00
C53    C     0.90719   0.30580   0.73821   0.00000  Uiso   1.00
C54    C     0.88256   0.38154   0.77022   0.00000  Uiso   1.00
C55    C     0.87346   0.51451   0.84716   0.00000  Uiso   1.00
C56    C     0.78315   0.08794   0.61985   0.00000  Uiso   1.00
C57    C     0.78619   0.01578   0.65430   0.00000  Uiso   1.00
C58    C     0.70621   0.95889   0.64795   0.00000  Uiso   1.00
C59    C     0.59505   0.84723   0.65410   0.00000  Uiso   1.00
C60    C     0.71518   0.18570   0.54724   0.00000  Uiso   1.00
C61    C     0.77464   0.17532   0.48491   0.00000  Uiso   1.00
C62    C     0.75482   0.17952   0.39815   0.00000  Uiso   1.00
C63    C     0.81799   0.16837   0.35213   0.00000  Uiso   1.00
C64    C     0.76882   0.26032   0.62605   0.00000  Uiso   1.00
C65    C     0.74410   0.33600   0.65797   0.00000  Uiso   1.00
C66    C     0.80235   0.39640   0.73076   0.00000  Uiso   1.00
C67    C     0.70308   0.10277   0.58045   0.00000  Uiso   1.00
C68    C     0.62309   0.04598   0.57406   0.00000  Uiso   1.00
C69    C     0.62600   0.97374   0.60849   0.00000  Uiso   1.00
H70    H     0.92493   0.14687   0.65043   0.00000  Uiso   1.00
H71    H     0.97988   0.13786   0.50890   0.00000  Uiso   1.00
H72    H     0.96914   0.29430   0.76868   0.00000  Uiso   1.00
H73    H     0.84816   0.00433   0.68478   0.00000  Uiso   1.00
H74    H     0.00551   0.13445   0.33463   0.00000  Uiso   1.00
H75    H     0.98286   0.46430   0.88240   0.00000  Uiso   1.00
H76    H     0.72774   0.85284   0.70548   0.00000  Uiso   1.00
H77    H     0.65284   0.19724   0.51657   0.00000  Uiso   1.00
H78    H     0.69286   0.19100   0.36769   0.00000  Uiso   1.00
H79    H     0.68213   0.34744   0.62747   0.00000  Uiso   1.00
H80    H     0.56114   0.05747   0.54357   0.00000  Uiso   1.00
H81    H     0.77255   0.17758   0.22002   0.00000  Uiso   1.00
H82    H     0.74991   0.50743   0.76780   0.00000  Uiso   1.00
H83    H     0.49478   0.89597   0.59087   0.00000  Uiso   1.00
O84    O     0.92028   0.15103   0.18181   0.00000  Uiso   1.00
O85    O     0.89056   0.58377   0.90048   0.00000  Uiso   1.00
O86    O     0.55585   0.78155   0.66836   0.00000  Uiso   1.00
N87    N     0.94518   0.14544   0.32808   0.00000  Uiso   1.00
N88    N     0.92402   0.45384   0.84021   0.00000  Uiso   1.00
N89    N     0.68550   0.88218   0.67483   0.00000  Uiso   1.00
N90    N     0.81983   0.16865   0.26641   0.00000  Uiso   1.00
N91    N     0.79866   0.47704   0.77854   0.00000  Uiso   1.00
N92    N     0.56014   0.90539   0.61315   0.00000  Uiso   1.00
C93    C     0.61966   0.86233   0.15834   0.00000  Uiso   1.00
C94    C     0.52367   0.85439   0.16030   0.00000  Uiso   1.00
C95    C     0.47743   0.91732   0.14906   0.00000  Uiso   1.00
C96    C     0.39016   0.89759   0.15314   0.00000  Uiso   1.00
C97    C     0.24713   0.89742   0.15398   0.00000  Uiso   1.00
C98    C     0.66559   0.84870   0.24533   0.00000  Uiso   1.00
C99    C     0.73869   0.90685   0.30557   0.00000  Uiso   1.00
C100   C     0.77089   0.88233   0.38123   0.00000  Uiso   1.00
C101   C     0.84823   0.87331   0.51404   0.00000  Uiso   1.00
C102   C     0.61986   0.78320   0.08807   0.00000  Uiso   1.00
C103   C     0.65453   0.78626   0.01610   0.00000  Uiso   1.00
C104   C     0.64826   0.70659   0.95937   0.00000  Uiso   1.00
C105   C     0.65460   0.59586   0.84801   0.00000  Uiso   1.00
C106   C     0.54689   0.71538   0.18558   0.00000  Uiso   1.00
C107   C     0.48414   0.77457   0.17510   0.00000  Uiso   1.00
C108   C     0.39691   0.75474   0.17920   0.00000  Uiso   1.00
C109   C     0.35055   0.81763   0.16796   0.00000  Uiso   1.00
C110   C     0.62607   0.76889   0.26013   0.00000  Uiso   1.00
C111   C     0.65817   0.74427   0.33571   0.00000  Uiso   1.00
C112   C     0.73129   0.80237   0.39605   0.00000  Uiso   1.00
C113   C     0.58033   0.70338   0.10287   0.00000  Uiso   1.00
C114   C     0.57401   0.62368   0.04624   0.00000  Uiso   1.00
C115   C     0.60866   0.62663   0.97419   0.00000  Uiso   1.00
H116   H     0.65044   0.92447   0.14683   0.00000  Uiso   1.00
H117   H     0.50805   0.97908   0.13762   0.00000  Uiso   1.00
H118   H     0.76927   0.96861   0.29410   0.00000  Uiso   1.00
H119   H     0.68512   0.84804   0.00468   0.00000  Uiso   1.00
H120   H     0.33275   0.00445   0.13396   0.00000  Uiso   1.00
H121   H     0.88357   0.98236   0.46390   0.00000  Uiso   1.00
H122   H     0.70613   0.72811   0.85359   0.00000  Uiso   1.00
H123   H     0.51612   0.65324   0.19710   0.00000  Uiso   1.00
H124   H     0.36634   0.69297   0.19065   0.00000  Uiso   1.00
H125   H     0.62757   0.68250   0.34713   0.00000  Uiso   1.00
H126   H     0.54342   0.56193   0.05771   0.00000  Uiso   1.00
H127   H     0.21774   0.77223   0.17701   0.00000  Uiso   1.00
H128   H     0.76856   0.75014   0.50694   0.00000  Uiso   1.00
H129   H     0.59112   0.49589   0.89663   0.00000  Uiso   1.00
O130   O     0.17916   0.91938   0.15036   0.00000  Uiso   1.00
O131   O     0.90181   0.89039   0.58321   0.00000  Uiso   1.00
O132   O     0.66901   0.55683   0.78250   0.00000  Uiso   1.00
N133   N     0.32623   0.94433   0.14496   0.00000  Uiso   1.00
N134   N     0.84120   0.92369   0.45344   0.00000  Uiso   1.00
N135   N     0.67534   0.68599   0.88286   0.00000  Uiso   1.00
N136   N     0.26435   0.81938   0.16812   0.00000  Uiso   1.00
N137   N     0.77932   0.79873   0.47660   0.00000  Uiso   1.00
N138   N     0.61345   0.56103   0.90602   0.00000  Uiso   1.00
C139   C     0.84159   0.38034   0.13783   0.00000  Uiso   1.00
C140   C     0.83951   0.47598   0.14569   0.00000  Uiso   1.00
C141   C     0.85078   0.52207   0.08287   0.00000  Uiso   1.00
C142   C     0.84657   0.60901   0.10249   0.00000  Uiso   1.00
C143   C     0.84557   0.75152   0.10257   0.00000  Uiso   1.00
C144   C     0.75416   0.33449   0.15134   0.00000  Uiso   1.00
C145   C     0.69368   0.26162   0.09327   0.00000  Uiso   1.00
C146   C     0.61762   0.22945   0.11767   0.00000  Uiso   1.00
C147   C     0.48414   0.15226   0.12654   0.00000  Uiso   1.00
C148   C     0.91223   0.38019   0.21690   0.00000  Uiso   1.00
C149   C     0.98466   0.34572   0.21395   0.00000  Uiso   1.00
C150   C     0.04169   0.35201   0.29354   0.00000  Uiso   1.00
C151   C     0.15364   0.34578   0.40420   0.00000  Uiso   1.00
C152   C     0.81407   0.45279   0.28440   0.00000  Uiso   1.00
C153   C     0.82455   0.51533   0.22530   0.00000  Uiso   1.00
C154   C     0.82033   0.60223   0.24503   0.00000  Uiso   1.00
C155   C     0.83160   0.64844   0.18225   0.00000  Uiso   1.00
C156   C     0.73920   0.37384   0.23095   0.00000  Uiso   1.00
C157   C     0.66322   0.34178   0.25544   0.00000  Uiso   1.00
C158   C     0.60264   0.26888   0.19742   0.00000  Uiso   1.00
C159   C     0.89729   0.41955   0.29651   0.00000  Uiso   1.00
C160   C     0.95421   0.42589   0.37612   0.00000  Uiso   1.00
C161   C     0.02671   0.39144   0.37330   0.00000  Uiso   1.00
H162   H     0.85322   0.34969   0.07585   0.00000  Uiso   1.00
H163   H     0.86234   0.49159   0.02126   0.00000  Uiso   1.00
H164   H     0.70527   0.23117   0.03167   0.00000  Uiso   1.00
H165   H     0.99621   0.31527   0.15234   0.00000  Uiso   1.00
H166   H     0.86583   0.66624   0.99584   0.00000  Uiso   1.00
H167   H     0.53464   0.11713   0.01780   0.00000  Uiso   1.00
H168   H     0.14814   0.29446   0.27224   0.00000  Uiso   1.00
H169   H     0.80243   0.48343   0.34638   0.00000  Uiso   1.00
H170   H     0.80876   0.63266   0.30664   0.00000  Uiso   1.00
H171   H     0.65168   0.37225   0.31705   0.00000  Uiso   1.00
H172   H     0.94262   0.45634   0.43771   0.00000  Uiso   1.00
H173   H     0.82233   0.78075   0.22746   0.00000  Uiso   1.00
H174   H     0.49114   0.23163   0.24943   0.00000  Uiso   1.00
H175   H     0.10464   0.40896   0.50387   0.00000  Uiso   1.00
O176   O     0.84913   0.81924   0.08062   0.00000  Uiso   1.00
O177   O     0.41464   0.09882   0.10944   0.00000  Uiso   1.00
O178   O     0.21953   0.33148   0.44325   0.00000  Uiso   1.00
N179   N     0.85474   0.67272   0.05581   0.00000  Uiso   1.00
N180   N     0.54509   0.15933   0.07634   0.00000  Uiso   1.00
N181   N     0.11865   0.32510   0.31422   0.00000  Uiso   1.00
N182   N     0.83133   0.73433   0.18045   0.00000  Uiso   1.00
N183   N     0.52169   0.22095   0.20098   0.00000  Uiso   1.00
N184   N     0.09525   0.38672   0.43886   0.00000  Uiso   1.00
C185   C     0.13741   0.84159   0.38024   0.00000  Uiso   1.00
C186   C     0.14529   0.83951   0.47570   0.00000  Uiso   1.00
C187   C     0.08208   0.85067   0.52161   0.00000  Uiso   1.00
C188   C     0.10180   0.84648   0.60841   0.00000  Uiso   1.00
C189   C     0.10183   0.84545   0.75063   0.00000  Uiso   1.00
C190   C     0.15111   0.75450   0.33456   0.00000  Uiso   1.00
C191   C     0.09281   0.69420   0.26179   0.00000  Uiso   1.00
C192   C     0.11744   0.61846   0.22978   0.00000  Uiso   1.00
C193   C     0.12654   0.48549   0.15284   0.00000  Uiso   1.00
C194   C     0.21685   0.91205   0.38015   0.00000  Uiso   1.00
C195   C     0.21381   0.98422   0.34570   0.00000  Uiso   1.00
C196   C     0.29379   0.04111   0.35205   0.00000  Uiso   1.00
C197   C     0.40495   0.15277   0.34590   0.00000  Uiso   1.00
C198   C     0.28482   0.81430   0.45276   0.00000  Uiso   1.00
C199   C     0.22536   0.82468   0.51509   0.00000  Uiso   1.00
C200   C     0.24518   0.82047   0.60185   0.00000  Uiso   1.00
C201   C     0.18201   0.83163   0.64787   0.00000  Uiso   1.00
C202   C     0.23118   0.73967   0.37395   0.00000  Uiso   1.00
C203   C     0.25590   0.66400   0.34203   0.00000  Uiso   1.00
C204   C     0.19765   0.60360   0.26924   0.00000  Uiso   1.00
C205   C     0.29692   0.89723   0.41955   0.00000  Uiso   1.00
C206   C     0.37691   0.95402   0.42594   0.00000  Uiso   1.00
C207   C     0.37400   0.02626   0.39151   0.00000  Uiso   1.00
H208   H     0.07507   0.85313   0.34957   0.00000  Uiso   1.00
H209   H     0.02012   0.86213   0.49110   0.00000  Uiso   1.00
H210   H     0.03086   0.70570   0.23132   0.00000  Uiso   1.00
H211   H     0.15184   0.99567   0.31522   0.00000  Uiso   1.00
H212   H     0.99449   0.86555   0.66537   0.00000  Uiso   1.00
H213   H     0.01714   0.53570   0.11760   0.00000  Uiso   1.00
H214   H     0.27226   0.14716   0.29451   0.00000  Uiso   1.00
H215   H     0.34716   0.80276   0.48343   0.00000  Uiso   1.00
H216   H     0.30714   0.80900   0.63231   0.00000  Uiso   1.00
H217   H     0.31787   0.65256   0.37253   0.00000  Uiso   1.00
H218   H     0.43886   0.94253   0.45643   0.00000  Uiso   1.00
H219   H     0.22745   0.82242   0.77998   0.00000  Uiso   1.00
H220   H     0.25009   0.49257   0.23220   0.00000  Uiso   1.00
H221   H     0.50522   0.10403   0.40913   0.00000  Uiso   1.00
O222   O     0.07972   0.84897   0.81819   0.00000  Uiso   1.00
O223   O     0.10944   0.41623   0.09952   0.00000  Uiso   1.00
O224   O     0.44415   0.21845   0.33164   0.00000  Uiso   1.00
N225   N     0.05482   0.85456   0.67192   0.00000  Uiso   1.00
N226   N     0.07598   0.54616   0.15979   0.00000  Uiso   1.00
N227   N     0.31450   0.11782   0.32517   0.00000  Uiso   1.00
N228   N     0.18017   0.83135   0.73359   0.00000  Uiso   1.00
N229   N     0.20134   0.52296   0.22146   0.00000  Uiso   1.00
N230   N     0.43986   0.09461   0.38684   0.00000  Uiso   1.00
C231   C     0.38034   0.13767   0.84166   0.00000  Uiso   1.00
C232   C     0.47633   0.14561   0.83970   0.00000  Uiso   1.00
C233   C     0.52257   0.08268   0.85094   0.00000  Uiso   1.00
C234   C     0.60984   0.10241   0.84686   0.00000  Uiso   1.00
C235   C     0.75287   0.10258   0.84602   0.00000  Uiso   1.00
C236   C     0.33441   0.15130   0.75467   0.00000  Uiso   1.00
C237   C     0.26131   0.09315   0.69443   0.00000  Uiso   1.00
C238   C     0.22911   0.11767   0.61877   0.00000  Uiso   1.00
C239   C     0.15177   0.12669   0.48596   0.00000  Uiso   1.00
C240   C     0.38014   0.21680   0.91192   0.00000  Uiso   1.00
C241   C     0.34547   0.21374   0.98390   0.00000  Uiso   1.00
C242   C     0.35174   0.29341   0.04063   0.00000  Uiso   1.00
C243   C     0.34539   0.40414   0.15199   0.00000  Uiso   1.00
C244   C     0.45311   0.28462   0.81442   0.00000  Uiso   1.00
C245   C     0.51586   0.22543   0.82490   0.00000  Uiso   1.00
C246   C     0.60308   0.24526   0.82080   0.00000  Uiso   1.00
C247   C     0.64945   0.18237   0.83204   0.00000  Uiso   1.00
C248   C     0.37393   0.23111   0.73987   0.00000  Uiso   1.00
C249   C     0.34183   0.25572   0.66429   0.00000  Uiso   1.00
C250   C     0.26871   0.19763   0.60395   0.00000  Uiso   1.00
C251   C     0.41967   0.29662   0.89713   0.00000  Uiso   1.00
C252   C     0.42599   0.37632   0.95376   0.00000  Uiso   1.00
C253   C     0.39134   0.37337   0.02581   0.00000  Uiso   1.00
H254   H     0.34956   0.07553   0.85317   0.00000  Uiso   1.00
H255   H     0.49195   0.02092   0.86238   0.00000  Uiso   1.00
H256   H     0.23073   0.03139   0.70590   0.00000  Uiso   1.00
H257   H     0.31488   0.15196   0.99532   0.00000  Uiso   1.00
H258   H     0.66725   0.99555   0.86604   0.00000  Uiso   1.00
H259   H     0.11643   0.01764   0.53610   0.00000  Uiso   1.00
H260   H     0.29387   0.27189   0.14641   0.00000  Uiso   1.00
H261   H     0.48388   0.34676   0.80290   0.00000  Uiso   1.00
H262   H     0.63366   0.30703   0.80935   0.00000  Uiso   1.00
H263   H     0.37243   0.31750   0.65287   0.00000  Uiso   1.00
H264   H     0.45658   0.43807   0.94229   0.00000  Uiso   1.00
H265   H     0.78226   0.22777   0.82299   0.00000  Uiso   1.00
H266   H     0.23144   0.24986   0.49306   0.00000  Uiso   1.00
H267   H     0.40888   0.50411   0.10337   0.00000  Uiso   1.00
O268   O     0.82084   0.08062   0.84964   0.00000  Uiso   1.00
O269   O     0.09819   0.10961   0.41679   0.00000  Uiso   1.00
O270   O     0.33099   0.44317   0.21750   0.00000  Uiso   1.00
N271   N     0.67376   0.05567   0.85504   0.00000  Uiso   1.00
N272   N     0.15880   0.07631   0.54656   0.00000  Uiso   1.00
N273   N     0.32466   0.31401   0.11714   0.00000  Uiso   1.00
N274   N     0.73565   0.18062   0.83188   0.00000  Uiso   1.00
N275   N     0.22068   0.20127   0.52340   0.00000  Uiso   1.00
N276   N     0.38655   0.43897   0.09398   0.00000  Uiso   1.00
