data_job_02069
_audit_creation_date              2018-12-19
_audit_creation_method            'Materials Studio'
_symmetry_space_group_name_H-M    'P1'
_symmetry_Int_Tables_number       1
_symmetry_cell_setting            triclinic
loop_
_symmetry_equiv_pos_as_xyz
  x,y,z
_cell_length_a                    36.9232
_cell_length_b                    13.7440
_cell_length_c                    9.8351
_cell_angle_alpha                 90.0000
_cell_angle_beta                  90.0000
_cell_angle_gamma                 90.0000
loop_
_atom_site_label
_atom_site_type_symbol
_atom_site_fract_x
_atom_site_fract_y
_atom_site_fract_z
_atom_site_U_iso_or_equiv
_atom_site_adp_type
_atom_site_occupancy
C1     C     0.62188   0.95989   0.68480   0.00000  Uiso   1.00
C2     C     0.62235   0.95767   0.52979   0.00000  Uiso   1.00
C3     C     0.63886   0.88718   0.45002   0.00000  Uiso   1.00
C4     C     0.63624   0.89820   0.31005   0.00000  Uiso   1.00
C5     C     0.63979   0.88282   0.07818   0.00000  Uiso   1.00
C6     C     0.63790   0.05790   0.72559   0.00000  Uiso   1.00
C7     C     0.66749   0.07167   0.81046   0.00000  Uiso   1.00
C8     C     0.67795   0.16705   0.83531   0.00000  Uiso   1.00
C9     C     0.70563   0.30727   0.90750   0.00000  Uiso   1.00
C10    C     0.58208   0.96340   0.72586   0.00000  Uiso   1.00
C11    C     0.56473   0.89773   0.81101   0.00000  Uiso   1.00
C12    C     0.52820   0.91356   0.83612   0.00000  Uiso   1.00
C13    C     0.46921   0.90706   0.90875   0.00000  Uiso   1.00
C14    C     0.58785   0.10480   0.57805   0.00000  Uiso   1.00
C15    C     0.60386   0.03639   0.47181   0.00000  Uiso   1.00
C16    C     0.60121   0.04751   0.33191   0.00000  Uiso   1.00
C17    C     0.61772   0.97705   0.25196   0.00000  Uiso   1.00
C18    C     0.61942   0.13661   0.66761   0.00000  Uiso   1.00
C19    C     0.62984   0.23200   0.69235   0.00000  Uiso   1.00
C20    C     0.65944   0.24591   0.77723   0.00000  Uiso   1.00
C21    C     0.56359   0.04211   0.66788   0.00000  Uiso   1.00
C22    C     0.52708   0.05805   0.69289   0.00000  Uiso   1.00
C23    C     0.50968   0.99242   0.77804   0.00000  Uiso   1.00
H24    H     0.63627   0.89861   0.72995   0.00000  Uiso   1.00
H25    H     0.65316   0.82629   0.49494   0.00000  Uiso   1.00
H26    H     0.68178   0.01074   0.85532   0.00000  Uiso   1.00
H27    H     0.57904   0.83683   0.85586   0.00000  Uiso   1.00
H28    H     0.66376   0.78083   0.20881   0.00000  Uiso   1.00
H29    H     0.72409   0.16977   0.96875   0.00000  Uiso   1.00
H30    H     0.50744   0.80303   0.96988   0.00000  Uiso   1.00
H31    H     0.57346   0.16608   0.53291   0.00000  Uiso   1.00
H32    H     0.58691   0.10843   0.28707   0.00000  Uiso   1.00
H33    H     0.61553   0.29289   0.64747   0.00000  Uiso   1.00
H34    H     0.51279   0.11897   0.64800   0.00000  Uiso   1.00
H35    H     0.60998   0.00983   0.04011   0.00000  Uiso   1.00
H36    H     0.67032   0.39877   0.80005   0.00000  Uiso   1.00
H37    H     0.45367   0.03203   0.80117   0.00000  Uiso   1.00
O38    O     0.64686   0.85260   0.96630   0.00000  Uiso   1.00
O39    O     0.72601   0.36287   0.96333   0.00000  Uiso   1.00
O40    O     0.44177   0.88172   0.96480   0.00000  Uiso   1.00
N41    N     0.64925   0.84263   0.20284   0.00000  Uiso   1.00
N42    N     0.70566   0.20626   0.91332   0.00000  Uiso   1.00
N43    N     0.50312   0.86341   0.91441   0.00000  Uiso   1.00
N44    N     0.62031   0.96585   0.11206   0.00000  Uiso   1.00
N45    N     0.67673   0.32948   0.82254   0.00000  Uiso   1.00
N46    N     0.47418   0.98663   0.82363   0.00000  Uiso   1.00
C47    C     0.87812   0.54011   0.68480   0.00000  Uiso   1.00
C48    C     0.87765   0.54233   0.52979   0.00000  Uiso   1.00
C49    C     0.86114   0.61282   0.45002   0.00000  Uiso   1.00
C50    C     0.86376   0.60180   0.31005   0.00000  Uiso   1.00
C51    C     0.86021   0.61718   0.07818   0.00000  Uiso   1.00
C52    C     0.86210   0.44210   0.72559   0.00000  Uiso   1.00
C53    C     0.83251   0.42833   0.81046   0.00000  Uiso   1.00
C54    C     0.82205   0.33295   0.83531   0.00000  Uiso   1.00
C55    C     0.79437   0.19273   0.90750   0.00000  Uiso   1.00
C56    C     0.91792   0.53660   0.72586   0.00000  Uiso   1.00
C57    C     0.93527   0.60227   0.81101   0.00000  Uiso   1.00
C58    C     0.97180   0.58644   0.83612   0.00000  Uiso   1.00
C59    C     0.03079   0.59294   0.90875   0.00000  Uiso   1.00
C60    C     0.91215   0.39520   0.57805   0.00000  Uiso   1.00
C61    C     0.89614   0.46361   0.47181   0.00000  Uiso   1.00
C62    C     0.89879   0.45249   0.33191   0.00000  Uiso   1.00
C63    C     0.88228   0.52295   0.25196   0.00000  Uiso   1.00
C64    C     0.88058   0.36339   0.66761   0.00000  Uiso   1.00
C65    C     0.87016   0.26800   0.69235   0.00000  Uiso   1.00
C66    C     0.84056   0.25409   0.77723   0.00000  Uiso   1.00
C67    C     0.93641   0.45789   0.66788   0.00000  Uiso   1.00
C68    C     0.97292   0.44195   0.69289   0.00000  Uiso   1.00
C69    C     0.99032   0.50758   0.77804   0.00000  Uiso   1.00
H70    H     0.86373   0.60139   0.72995   0.00000  Uiso   1.00
H71    H     0.84684   0.67371   0.49494   0.00000  Uiso   1.00
H72    H     0.81822   0.48926   0.85532   0.00000  Uiso   1.00
H73    H     0.92096   0.66317   0.85586   0.00000  Uiso   1.00
H74    H     0.83624   0.71917   0.20881   0.00000  Uiso   1.00
H75    H     0.77591   0.33023   0.96875   0.00000  Uiso   1.00
H76    H     0.99256   0.69697   0.96988   0.00000  Uiso   1.00
H77    H     0.92654   0.33392   0.53291   0.00000  Uiso   1.00
H78    H     0.91309   0.39157   0.28707   0.00000  Uiso   1.00
H79    H     0.88447   0.20711   0.64747   0.00000  Uiso   1.00
H80    H     0.98721   0.38103   0.64800   0.00000  Uiso   1.00
H81    H     0.89002   0.49017   0.04011   0.00000  Uiso   1.00
H82    H     0.82968   0.10123   0.80005   0.00000  Uiso   1.00
H83    H     0.04633   0.46797   0.80117   0.00000  Uiso   1.00
O84    O     0.85314   0.64740   0.96630   0.00000  Uiso   1.00
O85    O     0.77399   0.13713   0.96333   0.00000  Uiso   1.00
O86    O     0.05823   0.61828   0.96480   0.00000  Uiso   1.00
N87    N     0.85075   0.65737   0.20284   0.00000  Uiso   1.00
N88    N     0.79434   0.29374   0.91332   0.00000  Uiso   1.00
N89    N     0.99688   0.63659   0.91441   0.00000  Uiso   1.00
N90    N     0.87969   0.53415   0.11206   0.00000  Uiso   1.00
N91    N     0.82327   0.17052   0.82254   0.00000  Uiso   1.00
N92    N     0.02582   0.51337   0.82363   0.00000  Uiso   1.00
C93    C     0.37812   0.45989   0.81520   0.00000  Uiso   1.00
C94    C     0.37765   0.45767   0.97021   0.00000  Uiso   1.00
C95    C     0.36114   0.38718   0.04998   0.00000  Uiso   1.00
C96    C     0.36376   0.39820   0.18995   0.00000  Uiso   1.00
C97    C     0.36021   0.38282   0.42182   0.00000  Uiso   1.00
C98    C     0.36210   0.55790   0.77441   0.00000  Uiso   1.00
C99    C     0.33251   0.57167   0.68954   0.00000  Uiso   1.00
C100   C     0.32205   0.66705   0.66469   0.00000  Uiso   1.00
C101   C     0.29437   0.80727   0.59250   0.00000  Uiso   1.00
C102   C     0.41792   0.46340   0.77414   0.00000  Uiso   1.00
C103   C     0.43527   0.39773   0.68899   0.00000  Uiso   1.00
C104   C     0.47180   0.41356   0.66388   0.00000  Uiso   1.00
C105   C     0.53079   0.40706   0.59125   0.00000  Uiso   1.00
C106   C     0.41215   0.60480   0.92195   0.00000  Uiso   1.00
C107   C     0.39614   0.53639   0.02819   0.00000  Uiso   1.00
C108   C     0.39879   0.54751   0.16809   0.00000  Uiso   1.00
C109   C     0.38228   0.47705   0.24804   0.00000  Uiso   1.00
C110   C     0.38058   0.63661   0.83239   0.00000  Uiso   1.00
C111   C     0.37016   0.73200   0.80765   0.00000  Uiso   1.00
C112   C     0.34056   0.74591   0.72277   0.00000  Uiso   1.00
C113   C     0.43641   0.54211   0.83212   0.00000  Uiso   1.00
C114   C     0.47292   0.55805   0.80711   0.00000  Uiso   1.00
C115   C     0.49032   0.49242   0.72196   0.00000  Uiso   1.00
H116   H     0.36373   0.39861   0.77005   0.00000  Uiso   1.00
H117   H     0.34684   0.32629   0.00506   0.00000  Uiso   1.00
H118   H     0.31822   0.51074   0.64468   0.00000  Uiso   1.00
H119   H     0.42096   0.33683   0.64414   0.00000  Uiso   1.00
H120   H     0.33624   0.28083   0.29119   0.00000  Uiso   1.00
H121   H     0.27591   0.66977   0.53125   0.00000  Uiso   1.00
H122   H     0.49256   0.30303   0.53012   0.00000  Uiso   1.00
H123   H     0.42654   0.66608   0.96709   0.00000  Uiso   1.00
H124   H     0.41309   0.60843   0.21293   0.00000  Uiso   1.00
H125   H     0.38447   0.79289   0.85253   0.00000  Uiso   1.00
H126   H     0.48721   0.61897   0.85200   0.00000  Uiso   1.00
H127   H     0.39002   0.50983   0.45989   0.00000  Uiso   1.00
H128   H     0.32968   0.89877   0.69995   0.00000  Uiso   1.00
H129   H     0.54633   0.53203   0.69883   0.00000  Uiso   1.00
O130   O     0.35314   0.35260   0.53370   0.00000  Uiso   1.00
O131   O     0.27399   0.86287   0.53667   0.00000  Uiso   1.00
O132   O     0.55823   0.38172   0.53520   0.00000  Uiso   1.00
N133   N     0.35075   0.34263   0.29716   0.00000  Uiso   1.00
N134   N     0.29434   0.70626   0.58668   0.00000  Uiso   1.00
N135   N     0.49688   0.36341   0.58559   0.00000  Uiso   1.00
N136   N     0.37969   0.46585   0.38794   0.00000  Uiso   1.00
N137   N     0.32327   0.82948   0.67746   0.00000  Uiso   1.00
N138   N     0.52582   0.48663   0.67637   0.00000  Uiso   1.00
C139   C     0.12188   0.04011   0.81520   0.00000  Uiso   1.00
C140   C     0.12235   0.04233   0.97021   0.00000  Uiso   1.00
C141   C     0.13886   0.11282   0.04998   0.00000  Uiso   1.00
C142   C     0.13624   0.10180   0.18995   0.00000  Uiso   1.00
C143   C     0.13979   0.11718   0.42182   0.00000  Uiso   1.00
C144   C     0.13790   0.94210   0.77441   0.00000  Uiso   1.00
C145   C     0.16749   0.92833   0.68954   0.00000  Uiso   1.00
C146   C     0.17795   0.83295   0.66469   0.00000  Uiso   1.00
C147   C     0.20563   0.69273   0.59250   0.00000  Uiso   1.00
C148   C     0.08208   0.03660   0.77414   0.00000  Uiso   1.00
C149   C     0.06473   0.10227   0.68899   0.00000  Uiso   1.00
C150   C     0.02820   0.08644   0.66388   0.00000  Uiso   1.00
C151   C     0.96921   0.09294   0.59125   0.00000  Uiso   1.00
C152   C     0.08785   0.89520   0.92195   0.00000  Uiso   1.00
C153   C     0.10386   0.96361   0.02819   0.00000  Uiso   1.00
C154   C     0.10121   0.95249   0.16809   0.00000  Uiso   1.00
C155   C     0.11772   0.02295   0.24804   0.00000  Uiso   1.00
C156   C     0.11942   0.86339   0.83239   0.00000  Uiso   1.00
C157   C     0.12984   0.76800   0.80765   0.00000  Uiso   1.00
C158   C     0.15944   0.75409   0.72277   0.00000  Uiso   1.00
C159   C     0.06359   0.95789   0.83212   0.00000  Uiso   1.00
C160   C     0.02708   0.94195   0.80711   0.00000  Uiso   1.00
C161   C     0.00968   0.00758   0.72196   0.00000  Uiso   1.00
H162   H     0.13627   0.10139   0.77005   0.00000  Uiso   1.00
H163   H     0.15316   0.17371   0.00506   0.00000  Uiso   1.00
H164   H     0.18178   0.98926   0.64468   0.00000  Uiso   1.00
H165   H     0.07904   0.16317   0.64414   0.00000  Uiso   1.00
H166   H     0.16376   0.21917   0.29119   0.00000  Uiso   1.00
H167   H     0.22409   0.83023   0.53125   0.00000  Uiso   1.00
H168   H     0.00744   0.19697   0.53012   0.00000  Uiso   1.00
H169   H     0.07346   0.83392   0.96709   0.00000  Uiso   1.00
H170   H     0.08691   0.89157   0.21293   0.00000  Uiso   1.00
H171   H     0.11553   0.70711   0.85253   0.00000  Uiso   1.00
H172   H     0.01279   0.88103   0.85200   0.00000  Uiso   1.00
H173   H     0.10998   0.99017   0.45989   0.00000  Uiso   1.00
H174   H     0.17032   0.60123   0.69995   0.00000  Uiso   1.00
H175   H     0.95367   0.96797   0.69883   0.00000  Uiso   1.00
O176   O     0.14686   0.14740   0.53370   0.00000  Uiso   1.00
O177   O     0.22601   0.63713   0.53667   0.00000  Uiso   1.00
O178   O     0.94177   0.11828   0.53520   0.00000  Uiso   1.00
N179   N     0.14925   0.15737   0.29716   0.00000  Uiso   1.00
N180   N     0.20566   0.79374   0.58668   0.00000  Uiso   1.00
N181   N     0.00312   0.13659   0.58559   0.00000  Uiso   1.00
N182   N     0.12031   0.03415   0.38794   0.00000  Uiso   1.00
N183   N     0.17673   0.67052   0.67746   0.00000  Uiso   1.00
N184   N     0.97418   0.01337   0.67637   0.00000  Uiso   1.00
C185   C     0.37812   0.04011   0.31520   0.00000  Uiso   1.00
C186   C     0.37765   0.04233   0.47021   0.00000  Uiso   1.00
C187   C     0.36114   0.11282   0.54998   0.00000  Uiso   1.00
C188   C     0.36376   0.10180   0.68995   0.00000  Uiso   1.00
C189   C     0.36021   0.11718   0.92182   0.00000  Uiso   1.00
C190   C     0.36210   0.94210   0.27441   0.00000  Uiso   1.00
C191   C     0.33251   0.92833   0.18954   0.00000  Uiso   1.00
C192   C     0.32205   0.83295   0.16469   0.00000  Uiso   1.00
C193   C     0.29437   0.69273   0.09250   0.00000  Uiso   1.00
C194   C     0.41792   0.03660   0.27414   0.00000  Uiso   1.00
C195   C     0.43527   0.10227   0.18899   0.00000  Uiso   1.00
C196   C     0.47180   0.08644   0.16388   0.00000  Uiso   1.00
C197   C     0.53079   0.09294   0.09125   0.00000  Uiso   1.00
C198   C     0.41215   0.89520   0.42195   0.00000  Uiso   1.00
C199   C     0.39614   0.96361   0.52819   0.00000  Uiso   1.00
C200   C     0.39879   0.95249   0.66809   0.00000  Uiso   1.00
C201   C     0.38228   0.02295   0.74804   0.00000  Uiso   1.00
C202   C     0.38058   0.86339   0.33239   0.00000  Uiso   1.00
C203   C     0.37016   0.76800   0.30765   0.00000  Uiso   1.00
C204   C     0.34056   0.75409   0.22277   0.00000  Uiso   1.00
C205   C     0.43641   0.95789   0.33212   0.00000  Uiso   1.00
C206   C     0.47292   0.94195   0.30711   0.00000  Uiso   1.00
C207   C     0.49032   0.00758   0.22196   0.00000  Uiso   1.00
H208   H     0.36373   0.10139   0.27005   0.00000  Uiso   1.00
H209   H     0.34684   0.17371   0.50506   0.00000  Uiso   1.00
H210   H     0.31822   0.98926   0.14468   0.00000  Uiso   1.00
H211   H     0.42096   0.16317   0.14414   0.00000  Uiso   1.00
H212   H     0.33624   0.21917   0.79119   0.00000  Uiso   1.00
H213   H     0.27591   0.83023   0.03125   0.00000  Uiso   1.00
H214   H     0.49256   0.19697   0.03012   0.00000  Uiso   1.00
H215   H     0.42654   0.83392   0.46709   0.00000  Uiso   1.00
H216   H     0.41309   0.89157   0.71293   0.00000  Uiso   1.00
H217   H     0.38447   0.70711   0.35253   0.00000  Uiso   1.00
H218   H     0.48721   0.88103   0.35200   0.00000  Uiso   1.00
H219   H     0.39002   0.99017   0.95989   0.00000  Uiso   1.00
H220   H     0.32968   0.60123   0.19995   0.00000  Uiso   1.00
H221   H     0.54633   0.96797   0.19883   0.00000  Uiso   1.00
O222   O     0.35314   0.14740   0.03370   0.00000  Uiso   1.00
O223   O     0.27399   0.63713   0.03667   0.00000  Uiso   1.00
O224   O     0.55823   0.11828   0.03520   0.00000  Uiso   1.00
N225   N     0.35075   0.15737   0.79716   0.00000  Uiso   1.00
N226   N     0.29434   0.79374   0.08668   0.00000  Uiso   1.00
N227   N     0.49688   0.13659   0.08559   0.00000  Uiso   1.00
N228   N     0.37969   0.03415   0.88794   0.00000  Uiso   1.00
N229   N     0.32327   0.67052   0.17746   0.00000  Uiso   1.00
N230   N     0.52582   0.01337   0.17637   0.00000  Uiso   1.00
C231   C     0.12188   0.45989   0.31520   0.00000  Uiso   1.00
C232   C     0.12235   0.45767   0.47021   0.00000  Uiso   1.00
C233   C     0.13886   0.38718   0.54998   0.00000  Uiso   1.00
C234   C     0.13624   0.39820   0.68995   0.00000  Uiso   1.00
C235   C     0.13979   0.38282   0.92182   0.00000  Uiso   1.00
C236   C     0.13790   0.55790   0.27441   0.00000  Uiso   1.00
C237   C     0.16749   0.57167   0.18954   0.00000  Uiso   1.00
C238   C     0.17795   0.66705   0.16469   0.00000  Uiso   1.00
C239   C     0.20563   0.80727   0.09250   0.00000  Uiso   1.00
C240   C     0.08208   0.46340   0.27414   0.00000  Uiso   1.00
C241   C     0.06473   0.39773   0.18899   0.00000  Uiso   1.00
C242   C     0.02820   0.41356   0.16388   0.00000  Uiso   1.00
C243   C     0.96921   0.40706   0.09125   0.00000  Uiso   1.00
C244   C     0.08785   0.60480   0.42195   0.00000  Uiso   1.00
C245   C     0.10386   0.53639   0.52819   0.00000  Uiso   1.00
C246   C     0.10121   0.54751   0.66809   0.00000  Uiso   1.00
C247   C     0.11772   0.47705   0.74804   0.00000  Uiso   1.00
C248   C     0.11942   0.63661   0.33239   0.00000  Uiso   1.00
C249   C     0.12984   0.73200   0.30765   0.00000  Uiso   1.00
C250   C     0.15944   0.74591   0.22277   0.00000  Uiso   1.00
C251   C     0.06359   0.54211   0.33212   0.00000  Uiso   1.00
C252   C     0.02708   0.55805   0.30711   0.00000  Uiso   1.00
C253   C     0.00968   0.49242   0.22196   0.00000  Uiso   1.00
H254   H     0.13627   0.39861   0.27005   0.00000  Uiso   1.00
H255   H     0.15316   0.32629   0.50506   0.00000  Uiso   1.00
H256   H     0.18178   0.51074   0.14468   0.00000  Uiso   1.00
H257   H     0.07904   0.33683   0.14414   0.00000  Uiso   1.00
H258   H     0.16376   0.28083   0.79119   0.00000  Uiso   1.00
H259   H     0.22409   0.66977   0.03125   0.00000  Uiso   1.00
H260   H     0.00744   0.30303   0.03012   0.00000  Uiso   1.00
H261   H     0.07346   0.66608   0.46709   0.00000  Uiso   1.00
H262   H     0.08691   0.60843   0.71293   0.00000  Uiso   1.00
H263   H     0.11553   0.79289   0.35253   0.00000  Uiso   1.00
H264   H     0.01279   0.61897   0.35200   0.00000  Uiso   1.00
H265   H     0.10998   0.50983   0.95989   0.00000  Uiso   1.00
H266   H     0.17032   0.89877   0.19995   0.00000  Uiso   1.00
H267   H     0.95367   0.53203   0.19883   0.00000  Uiso   1.00
O268   O     0.14686   0.35260   0.03370   0.00000  Uiso   1.00
O269   O     0.22601   0.86287   0.03667   0.00000  Uiso   1.00
O270   O     0.94177   0.38172   0.03520   0.00000  Uiso   1.00
N271   N     0.14925   0.34263   0.79716   0.00000  Uiso   1.00
N272   N     0.20566   0.70626   0.08668   0.00000  Uiso   1.00
N273   N     0.00312   0.36341   0.08559   0.00000  Uiso   1.00
N274   N     0.12031   0.46585   0.88794   0.00000  Uiso   1.00
N275   N     0.17673   0.82948   0.17746   0.00000  Uiso   1.00
N276   N     0.97418   0.48663   0.17637   0.00000  Uiso   1.00
C277   C     0.62188   0.54011   0.18480   0.00000  Uiso   1.00
C278   C     0.62235   0.54233   0.02979   0.00000  Uiso   1.00
C279   C     0.63886   0.61282   0.95002   0.00000  Uiso   1.00
C280   C     0.63624   0.60180   0.81005   0.00000  Uiso   1.00
C281   C     0.63979   0.61718   0.57818   0.00000  Uiso   1.00
C282   C     0.63790   0.44210   0.22559   0.00000  Uiso   1.00
C283   C     0.66749   0.42833   0.31046   0.00000  Uiso   1.00
C284   C     0.67795   0.33295   0.33531   0.00000  Uiso   1.00
C285   C     0.70563   0.19273   0.40750   0.00000  Uiso   1.00
C286   C     0.58208   0.53660   0.22586   0.00000  Uiso   1.00
C287   C     0.56473   0.60227   0.31101   0.00000  Uiso   1.00
C288   C     0.52820   0.58644   0.33612   0.00000  Uiso   1.00
C289   C     0.46921   0.59294   0.40875   0.00000  Uiso   1.00
C290   C     0.58785   0.39520   0.07805   0.00000  Uiso   1.00
C291   C     0.60386   0.46361   0.97181   0.00000  Uiso   1.00
C292   C     0.60121   0.45249   0.83191   0.00000  Uiso   1.00
C293   C     0.61772   0.52295   0.75196   0.00000  Uiso   1.00
C294   C     0.61942   0.36339   0.16761   0.00000  Uiso   1.00
C295   C     0.62984   0.26800   0.19235   0.00000  Uiso   1.00
C296   C     0.65944   0.25409   0.27723   0.00000  Uiso   1.00
C297   C     0.56359   0.45789   0.16788   0.00000  Uiso   1.00
C298   C     0.52708   0.44195   0.19289   0.00000  Uiso   1.00
C299   C     0.50968   0.50758   0.27804   0.00000  Uiso   1.00
H300   H     0.63627   0.60139   0.22995   0.00000  Uiso   1.00
H301   H     0.65316   0.67371   0.99494   0.00000  Uiso   1.00
H302   H     0.68178   0.48926   0.35532   0.00000  Uiso   1.00
H303   H     0.57904   0.66317   0.35586   0.00000  Uiso   1.00
H304   H     0.66376   0.71917   0.70881   0.00000  Uiso   1.00
H305   H     0.72409   0.33023   0.46875   0.00000  Uiso   1.00
H306   H     0.50744   0.69697   0.46988   0.00000  Uiso   1.00
H307   H     0.57346   0.33392   0.03291   0.00000  Uiso   1.00
H308   H     0.58691   0.39157   0.78707   0.00000  Uiso   1.00
H309   H     0.61553   0.20711   0.14747   0.00000  Uiso   1.00
H310   H     0.51279   0.38103   0.14800   0.00000  Uiso   1.00
H311   H     0.60998   0.49017   0.54011   0.00000  Uiso   1.00
H312   H     0.67032   0.10123   0.30005   0.00000  Uiso   1.00
H313   H     0.45367   0.46797   0.30117   0.00000  Uiso   1.00
O314   O     0.64686   0.64740   0.46630   0.00000  Uiso   1.00
O315   O     0.72601   0.13713   0.46333   0.00000  Uiso   1.00
O316   O     0.44177   0.61828   0.46480   0.00000  Uiso   1.00
N317   N     0.64925   0.65737   0.70284   0.00000  Uiso   1.00
N318   N     0.70566   0.29374   0.41332   0.00000  Uiso   1.00
N319   N     0.50312   0.63659   0.41441   0.00000  Uiso   1.00
N320   N     0.62031   0.53415   0.61206   0.00000  Uiso   1.00
N321   N     0.67673   0.17052   0.32254   0.00000  Uiso   1.00
N322   N     0.47418   0.51337   0.32363   0.00000  Uiso   1.00
C323   C     0.87812   0.95989   0.18480   0.00000  Uiso   1.00
C324   C     0.87765   0.95767   0.02979   0.00000  Uiso   1.00
C325   C     0.86114   0.88718   0.95002   0.00000  Uiso   1.00
C326   C     0.86376   0.89820   0.81005   0.00000  Uiso   1.00
C327   C     0.86021   0.88282   0.57818   0.00000  Uiso   1.00
C328   C     0.86210   0.05790   0.22559   0.00000  Uiso   1.00
C329   C     0.83251   0.07167   0.31046   0.00000  Uiso   1.00
C330   C     0.82205   0.16705   0.33531   0.00000  Uiso   1.00
C331   C     0.79437   0.30727   0.40750   0.00000  Uiso   1.00
C332   C     0.91792   0.96340   0.22586   0.00000  Uiso   1.00
C333   C     0.93527   0.89773   0.31101   0.00000  Uiso   1.00
C334   C     0.97180   0.91356   0.33612   0.00000  Uiso   1.00
C335   C     0.03079   0.90706   0.40875   0.00000  Uiso   1.00
C336   C     0.91215   0.10480   0.07805   0.00000  Uiso   1.00
C337   C     0.89614   0.03639   0.97181   0.00000  Uiso   1.00
C338   C     0.89879   0.04751   0.83191   0.00000  Uiso   1.00
C339   C     0.88228   0.97705   0.75196   0.00000  Uiso   1.00
C340   C     0.88058   0.13661   0.16761   0.00000  Uiso   1.00
C341   C     0.87016   0.23200   0.19235   0.00000  Uiso   1.00
C342   C     0.84056   0.24591   0.27723   0.00000  Uiso   1.00
C343   C     0.93641   0.04211   0.16788   0.00000  Uiso   1.00
C344   C     0.97292   0.05805   0.19289   0.00000  Uiso   1.00
C345   C     0.99032   0.99242   0.27804   0.00000  Uiso   1.00
H346   H     0.86373   0.89861   0.22995   0.00000  Uiso   1.00
H347   H     0.84684   0.82629   0.99494   0.00000  Uiso   1.00
H348   H     0.81822   0.01074   0.35532   0.00000  Uiso   1.00
H349   H     0.92096   0.83683   0.35586   0.00000  Uiso   1.00
H350   H     0.83624   0.78083   0.70881   0.00000  Uiso   1.00
H351   H     0.77591   0.16977   0.46875   0.00000  Uiso   1.00
H352   H     0.99256   0.80303   0.46988   0.00000  Uiso   1.00
H353   H     0.92654   0.16608   0.03291   0.00000  Uiso   1.00
H354   H     0.91309   0.10843   0.78707   0.00000  Uiso   1.00
H355   H     0.88447   0.29289   0.14747   0.00000  Uiso   1.00
H356   H     0.98721   0.11897   0.14800   0.00000  Uiso   1.00
H357   H     0.89002   0.00983   0.54011   0.00000  Uiso   1.00
H358   H     0.82968   0.39877   0.30005   0.00000  Uiso   1.00
H359   H     0.04633   0.03203   0.30117   0.00000  Uiso   1.00
O360   O     0.85314   0.85260   0.46630   0.00000  Uiso   1.00
O361   O     0.77399   0.36287   0.46333   0.00000  Uiso   1.00
O362   O     0.05823   0.88172   0.46480   0.00000  Uiso   1.00
N363   N     0.85075   0.84263   0.70284   0.00000  Uiso   1.00
N364   N     0.79434   0.20626   0.41332   0.00000  Uiso   1.00
N365   N     0.99688   0.86341   0.41441   0.00000  Uiso   1.00
N366   N     0.87969   0.96585   0.61206   0.00000  Uiso   1.00
N367   N     0.82327   0.32948   0.32254   0.00000  Uiso   1.00
N368   N     0.02582   0.98663   0.32363   0.00000  Uiso   1.00
