data_job_05362
_audit_creation_date              2018-12-19
_audit_creation_method            'Materials Studio'
_symmetry_space_group_name_H-M    'P1'
_symmetry_Int_Tables_number       1
_symmetry_cell_setting            triclinic
loop_
_symmetry_equiv_pos_as_xyz
  x,y,z
_cell_length_a                    17.3624
_cell_length_b                    13.2875
_cell_length_c                    10.6846
_cell_angle_alpha                 90.0000
_cell_angle_beta                  88.5471
_cell_angle_gamma                 90.0000
loop_
_atom_site_label
_atom_site_type_symbol
_atom_site_fract_x
_atom_site_fract_y
_atom_site_fract_z
_atom_site_U_iso_or_equiv
_atom_site_adp_type
_atom_site_occupancy
C1     C     0.25422   0.17156   0.98917   0.00000  Uiso   1.00
C2     C     0.24988   0.08276   0.89922   0.00000  Uiso   1.00
C3     C     0.26824   0.08533   0.77209   0.00000  Uiso   1.00
C4     C     0.26044   0.99609   0.70601   0.00000  Uiso   1.00
C5     C     0.25750   0.87168   0.55735   0.00000  Uiso   1.00
C6     C     0.17403   0.18192   0.04932   0.00000  Uiso   1.00
C7     C     0.12863   0.26787   0.04841   0.00000  Uiso   1.00
C8     C     0.05698   0.26211   0.10870   0.00000  Uiso   1.00
C9     C     0.93630   0.29168   0.19315   0.00000  Uiso   1.00
C10    C     0.30689   0.13828   0.09347   0.00000  Uiso   1.00
C11    C     0.37318   0.18754   0.12971   0.00000  Uiso   1.00
C12    C     0.41338   0.14505   0.22720   0.00000  Uiso   1.00
C13    C     0.49899   0.10685   0.38020   0.00000  Uiso   1.00
C14    C     0.20771   0.00851   0.09789   0.00000  Uiso   1.00
C15    C     0.22461   0.99420   0.95828   0.00000  Uiso   1.00
C16    C     0.21678   0.90493   0.89238   0.00000  Uiso   1.00
C17    C     0.23514   0.90737   0.76517   0.00000  Uiso   1.00
C18    C     0.14876   0.09336   0.10837   0.00000  Uiso   1.00
C19    C     0.07717   0.08748   0.16869   0.00000  Uiso   1.00
C20    C     0.03167   0.17339   0.16786   0.00000  Uiso   1.00
C21    C     0.28163   0.04971   0.15253   0.00000  Uiso   1.00
C22    C     0.32173   0.00714   0.24999   0.00000  Uiso   1.00
C23    C     0.38807   0.05633   0.28636   0.00000  Uiso   1.00
H24    H     0.27389   0.24051   0.94320   0.00000  Uiso   1.00
H25    H     0.28779   0.15388   0.72643   0.00000  Uiso   1.00
H26    H     0.14820   0.33639   0.00271   0.00000  Uiso   1.00
H27    H     0.39272   0.25607   0.08399   0.00000  Uiso   1.00
H28    H     0.29202   0.01879   0.51212   0.00000  Uiso   1.00
H29    H     0.99770   0.40364   0.09472   0.00000  Uiso   1.00
H30    H     0.51332   0.23427   0.26613   0.00000  Uiso   1.00
H31    H     0.18804   0.93956   0.14387   0.00000  Uiso   1.00
H32    H     0.19723   0.83641   0.93810   0.00000  Uiso   1.00
H33    H     0.05764   0.01893   0.21438   0.00000  Uiso   1.00
H34    H     0.30216   0.93861   0.29566   0.00000  Uiso   1.00
H35    H     0.21852   0.76112   0.68392   0.00000  Uiso   1.00
H36    H     0.92420   0.14598   0.26653   0.00000  Uiso   1.00
H37    H     0.43982   0.97660   0.43793   0.00000  Uiso   1.00
O38    O     0.26284   0.82753   0.45903   0.00000  Uiso   1.00
O39    O     0.87671   0.33245   0.22340   0.00000  Uiso   1.00
O40    O     0.55319   0.11024   0.44827   0.00000  Uiso   1.00
N41    N     0.27348   0.97229   0.58080   0.00000  Uiso   1.00
N42    N     0.99830   0.33210   0.12548   0.00000  Uiso   1.00
N43    N     0.48035   0.17377   0.28575   0.00000  Uiso   1.00
N44    N     0.23393   0.83364   0.67324   0.00000  Uiso   1.00
N45    N     0.95875   0.19346   0.21792   0.00000  Uiso   1.00
N46    N     0.44080   0.03512   0.37819   0.00000  Uiso   1.00
C47    C     0.74578   0.67156   0.51083   0.00000  Uiso   1.00
C48    C     0.75012   0.58276   0.60078   0.00000  Uiso   1.00
C49    C     0.73176   0.58533   0.72791   0.00000  Uiso   1.00
C50    C     0.73956   0.49609   0.79399   0.00000  Uiso   1.00
C51    C     0.74250   0.37168   0.94265   0.00000  Uiso   1.00
C52    C     0.82597   0.68192   0.45068   0.00000  Uiso   1.00
C53    C     0.87137   0.76787   0.45159   0.00000  Uiso   1.00
C54    C     0.94302   0.76211   0.39130   0.00000  Uiso   1.00
C55    C     0.06370   0.79168   0.30685   0.00000  Uiso   1.00
C56    C     0.69311   0.63828   0.40653   0.00000  Uiso   1.00
C57    C     0.62682   0.68754   0.37029   0.00000  Uiso   1.00
C58    C     0.58662   0.64505   0.27280   0.00000  Uiso   1.00
C59    C     0.50101   0.60685   0.11980   0.00000  Uiso   1.00
C60    C     0.79229   0.50851   0.40211   0.00000  Uiso   1.00
C61    C     0.77539   0.49420   0.54172   0.00000  Uiso   1.00
C62    C     0.78322   0.40493   0.60762   0.00000  Uiso   1.00
C63    C     0.76486   0.40737   0.73483   0.00000  Uiso   1.00
C64    C     0.85124   0.59336   0.39163   0.00000  Uiso   1.00
C65    C     0.92283   0.58748   0.33131   0.00000  Uiso   1.00
C66    C     0.96833   0.67339   0.33214   0.00000  Uiso   1.00
C67    C     0.71837   0.54971   0.34747   0.00000  Uiso   1.00
C68    C     0.67827   0.50714   0.25001   0.00000  Uiso   1.00
C69    C     0.61193   0.55633   0.21364   0.00000  Uiso   1.00
H70    H     0.72611   0.74051   0.55680   0.00000  Uiso   1.00
H71    H     0.71221   0.65388   0.77357   0.00000  Uiso   1.00
H72    H     0.85180   0.83639   0.49729   0.00000  Uiso   1.00
H73    H     0.60728   0.75607   0.41601   0.00000  Uiso   1.00
H74    H     0.70798   0.51879   0.98788   0.00000  Uiso   1.00
H75    H     0.00230   0.90364   0.40528   0.00000  Uiso   1.00
H76    H     0.48668   0.73427   0.23387   0.00000  Uiso   1.00
H77    H     0.81196   0.43956   0.35613   0.00000  Uiso   1.00
H78    H     0.80277   0.33641   0.56190   0.00000  Uiso   1.00
H79    H     0.94236   0.51893   0.28562   0.00000  Uiso   1.00
H80    H     0.69784   0.43861   0.20434   0.00000  Uiso   1.00
H81    H     0.78148   0.26112   0.81608   0.00000  Uiso   1.00
H82    H     0.07580   0.64598   0.23347   0.00000  Uiso   1.00
H83    H     0.56018   0.47660   0.06207   0.00000  Uiso   1.00
O84    O     0.73716   0.32753   0.04097   0.00000  Uiso   1.00
O85    O     0.12329   0.83245   0.27660   0.00000  Uiso   1.00
O86    O     0.44681   0.61024   0.05173   0.00000  Uiso   1.00
N87    N     0.72652   0.47229   0.91920   0.00000  Uiso   1.00
N88    N     0.00170   0.83210   0.37452   0.00000  Uiso   1.00
N89    N     0.51965   0.67377   0.21425   0.00000  Uiso   1.00
N90    N     0.76607   0.33364   0.82676   0.00000  Uiso   1.00
N91    N     0.04125   0.69346   0.28208   0.00000  Uiso   1.00
N92    N     0.55920   0.53512   0.12181   0.00000  Uiso   1.00
C93    C     0.74578   0.82844   0.01083   0.00000  Uiso   1.00
C94    C     0.75012   0.91724   0.10078   0.00000  Uiso   1.00
C95    C     0.73176   0.91467   0.22791   0.00000  Uiso   1.00
C96    C     0.73956   0.00391   0.29399   0.00000  Uiso   1.00
C97    C     0.74250   0.12832   0.44265   0.00000  Uiso   1.00
C98    C     0.82597   0.81808   0.95068   0.00000  Uiso   1.00
C99    C     0.87137   0.73213   0.95159   0.00000  Uiso   1.00
C100   C     0.94302   0.73789   0.89130   0.00000  Uiso   1.00
C101   C     0.06370   0.70832   0.80685   0.00000  Uiso   1.00
C102   C     0.69311   0.86172   0.90653   0.00000  Uiso   1.00
C103   C     0.62682   0.81246   0.87029   0.00000  Uiso   1.00
C104   C     0.58662   0.85495   0.77280   0.00000  Uiso   1.00
C105   C     0.50101   0.89315   0.61980   0.00000  Uiso   1.00
C106   C     0.79229   0.99149   0.90211   0.00000  Uiso   1.00
C107   C     0.77539   0.00580   0.04172   0.00000  Uiso   1.00
C108   C     0.78322   0.09507   0.10762   0.00000  Uiso   1.00
C109   C     0.76486   0.09263   0.23483   0.00000  Uiso   1.00
C110   C     0.85124   0.90664   0.89163   0.00000  Uiso   1.00
C111   C     0.92283   0.91252   0.83131   0.00000  Uiso   1.00
C112   C     0.96833   0.82661   0.83214   0.00000  Uiso   1.00
C113   C     0.71837   0.95029   0.84747   0.00000  Uiso   1.00
C114   C     0.67827   0.99286   0.75001   0.00000  Uiso   1.00
C115   C     0.61193   0.94367   0.71364   0.00000  Uiso   1.00
H116   H     0.72611   0.75949   0.05680   0.00000  Uiso   1.00
H117   H     0.71221   0.84612   0.27357   0.00000  Uiso   1.00
H118   H     0.85180   0.66361   0.99729   0.00000  Uiso   1.00
H119   H     0.60728   0.74393   0.91601   0.00000  Uiso   1.00
H120   H     0.70798   0.98121   0.48788   0.00000  Uiso   1.00
H121   H     0.00230   0.59636   0.90528   0.00000  Uiso   1.00
H122   H     0.48668   0.76573   0.73387   0.00000  Uiso   1.00
H123   H     0.81196   0.06044   0.85613   0.00000  Uiso   1.00
H124   H     0.80277   0.16359   0.06190   0.00000  Uiso   1.00
H125   H     0.94236   0.98107   0.78562   0.00000  Uiso   1.00
H126   H     0.69784   0.06139   0.70434   0.00000  Uiso   1.00
H127   H     0.78148   0.23888   0.31608   0.00000  Uiso   1.00
H128   H     0.07580   0.85402   0.73347   0.00000  Uiso   1.00
H129   H     0.56018   0.02340   0.56207   0.00000  Uiso   1.00
O130   O     0.73716   0.17247   0.54097   0.00000  Uiso   1.00
O131   O     0.12329   0.66755   0.77660   0.00000  Uiso   1.00
O132   O     0.44681   0.88976   0.55173   0.00000  Uiso   1.00
N133   N     0.72652   0.02771   0.41920   0.00000  Uiso   1.00
N134   N     0.00170   0.66790   0.87452   0.00000  Uiso   1.00
N135   N     0.51965   0.82623   0.71425   0.00000  Uiso   1.00
N136   N     0.76607   0.16636   0.32676   0.00000  Uiso   1.00
N137   N     0.04125   0.80654   0.78208   0.00000  Uiso   1.00
N138   N     0.55920   0.96488   0.62181   0.00000  Uiso   1.00
C139   C     0.25422   0.32844   0.48917   0.00000  Uiso   1.00
C140   C     0.24988   0.41724   0.39922   0.00000  Uiso   1.00
C141   C     0.26824   0.41467   0.27209   0.00000  Uiso   1.00
C142   C     0.26044   0.50391   0.20601   0.00000  Uiso   1.00
C143   C     0.25750   0.62832   0.05735   0.00000  Uiso   1.00
C144   C     0.17403   0.31808   0.54932   0.00000  Uiso   1.00
C145   C     0.12863   0.23213   0.54841   0.00000  Uiso   1.00
C146   C     0.05698   0.23789   0.60870   0.00000  Uiso   1.00
C147   C     0.93630   0.20832   0.69315   0.00000  Uiso   1.00
C148   C     0.30689   0.36172   0.59347   0.00000  Uiso   1.00
C149   C     0.37318   0.31246   0.62971   0.00000  Uiso   1.00
C150   C     0.41338   0.35495   0.72720   0.00000  Uiso   1.00
C151   C     0.49899   0.39315   0.88020   0.00000  Uiso   1.00
C152   C     0.20771   0.49149   0.59789   0.00000  Uiso   1.00
C153   C     0.22461   0.50580   0.45828   0.00000  Uiso   1.00
C154   C     0.21678   0.59507   0.39238   0.00000  Uiso   1.00
C155   C     0.23514   0.59263   0.26517   0.00000  Uiso   1.00
C156   C     0.14876   0.40664   0.60837   0.00000  Uiso   1.00
C157   C     0.07717   0.41252   0.66869   0.00000  Uiso   1.00
C158   C     0.03167   0.32661   0.66786   0.00000  Uiso   1.00
C159   C     0.28163   0.45029   0.65253   0.00000  Uiso   1.00
C160   C     0.32173   0.49286   0.74999   0.00000  Uiso   1.00
C161   C     0.38807   0.44367   0.78636   0.00000  Uiso   1.00
H162   H     0.27389   0.25949   0.44320   0.00000  Uiso   1.00
H163   H     0.28779   0.34612   0.22643   0.00000  Uiso   1.00
H164   H     0.14820   0.16361   0.50271   0.00000  Uiso   1.00
H165   H     0.39272   0.24393   0.58399   0.00000  Uiso   1.00
H166   H     0.29202   0.48121   0.01212   0.00000  Uiso   1.00
H167   H     0.99770   0.09636   0.59472   0.00000  Uiso   1.00
H168   H     0.51332   0.26573   0.76613   0.00000  Uiso   1.00
H169   H     0.18804   0.56044   0.64387   0.00000  Uiso   1.00
H170   H     0.19723   0.66359   0.43810   0.00000  Uiso   1.00
H171   H     0.05764   0.48107   0.71438   0.00000  Uiso   1.00
H172   H     0.30216   0.56139   0.79566   0.00000  Uiso   1.00
H173   H     0.21852   0.73888   0.18392   0.00000  Uiso   1.00
H174   H     0.92420   0.35402   0.76653   0.00000  Uiso   1.00
H175   H     0.43982   0.52340   0.93793   0.00000  Uiso   1.00
O176   O     0.26284   0.67247   0.95903   0.00000  Uiso   1.00
O177   O     0.87671   0.16755   0.72340   0.00000  Uiso   1.00
O178   O     0.55319   0.38976   0.94827   0.00000  Uiso   1.00
N179   N     0.27348   0.52771   0.08080   0.00000  Uiso   1.00
N180   N     0.99830   0.16790   0.62548   0.00000  Uiso   1.00
N181   N     0.48035   0.32623   0.78575   0.00000  Uiso   1.00
N182   N     0.23393   0.66636   0.17324   0.00000  Uiso   1.00
N183   N     0.95875   0.30654   0.71792   0.00000  Uiso   1.00
N184   N     0.44080   0.46488   0.87819   0.00000  Uiso   1.00
