data_job_01455
_audit_creation_date              2018-12-19
_audit_creation_method            'Materials Studio'
_symmetry_space_group_name_H-M    'P1'
_symmetry_Int_Tables_number       1
_symmetry_cell_setting            triclinic
loop_
_symmetry_equiv_pos_as_xyz
  x,y,z
_cell_length_a                    7.6269
_cell_length_b                    22.8722
_cell_length_c                    25.9866
_cell_angle_alpha                 90.0000
_cell_angle_beta                  116.0050
_cell_angle_gamma                 90.0000
loop_
_atom_site_label
_atom_site_type_symbol
_atom_site_fract_x
_atom_site_fract_y
_atom_site_fract_z
_atom_site_U_iso_or_equiv
_atom_site_adp_type
_atom_site_occupancy
C1     C     0.41197   0.10651   0.36826   0.00000  Uiso   1.00
C2     C     0.35345   0.15231   0.32098   0.00000  Uiso   1.00
C3     C     0.19365   0.18936   0.30381   0.00000  Uiso   1.00
C4     C     0.16509   0.22818   0.25976   0.00000  Uiso   1.00
C5     C     0.05489   0.29903   0.19026   0.00000  Uiso   1.00
C6     C     0.42104   0.04848   0.34063   0.00000  Uiso   1.00
C7     C     0.31809   0.99824   0.34000   0.00000  Uiso   1.00
C8     C     0.34646   0.94965   0.31251   0.00000  Uiso   1.00
C9     C     0.34129   0.85929   0.27356   0.00000  Uiso   1.00
C10    C     0.62138   0.12083   0.41047   0.00000  Uiso   1.00
C11    C     0.68691   0.13140   0.46857   0.00000  Uiso   1.00
C12    C     0.88397   0.14371   0.49988   0.00000  Uiso   1.00
C13    C     0.18988   0.16568   0.56938   0.00000  Uiso   1.00
C14    C     0.64542   0.10956   0.32055   0.00000  Uiso   1.00
C15    C     0.48025   0.15396   0.29506   0.00000  Uiso   1.00
C16    C     0.45194   0.19274   0.25103   0.00000  Uiso   1.00
C17    C     0.29213   0.22985   0.23380   0.00000  Uiso   1.00
C18    C     0.54783   0.05014   0.31472   0.00000  Uiso   1.00
C19    C     0.57637   0.00161   0.28722   0.00000  Uiso   1.00
C20    C     0.47349   0.95131   0.28655   0.00000  Uiso   1.00
C21    C     0.74819   0.12249   0.38456   0.00000  Uiso   1.00
C22    C     0.94519   0.13478   0.41579   0.00000  Uiso   1.00
C23    C     0.01100   0.14537   0.47392   0.00000  Uiso   1.00
H24    H     0.31325   0.10521   0.38843   0.00000  Uiso   1.00
H25    H     0.09554   0.18806   0.32387   0.00000  Uiso   1.00
H26    H     0.21999   0.99696   0.36006   0.00000  Uiso   1.00
H27    H     0.58874   0.13011   0.48861   0.00000  Uiso   1.00
H28    H     0.91006   0.28063   0.24085   0.00000  Uiso   1.00
H29    H     0.17250   0.87769   0.31718   0.00000  Uiso   1.00
H30    H     0.95010   0.15845   0.58825   0.00000  Uiso   1.00
H31    H     0.74414   0.11085   0.30038   0.00000  Uiso   1.00
H32    H     0.55009   0.19401   0.23098   0.00000  Uiso   1.00
H33    H     0.67452   0.00291   0.26718   0.00000  Uiso   1.00
H34    H     0.04328   0.13606   0.39572   0.00000  Uiso   1.00
H35    H     0.27898   0.28546   0.16546   0.00000  Uiso   1.00
H36    H     0.54142   0.88251   0.24179   0.00000  Uiso   1.00
H37    H     0.31902   0.16328   0.51286   0.00000  Uiso   1.00
O38    O     0.95905   0.33764   0.15908   0.00000  Uiso   1.00
O39    O     0.30339   0.80898   0.25924   0.00000  Uiso   1.00
O40    O     0.32357   0.17734   0.61486   0.00000  Uiso   1.00
N41    N     0.02354   0.27036   0.23264   0.00000  Uiso   1.00
N42    N     0.26888   0.89363   0.30400   0.00000  Uiso   1.00
N43    N     0.99588   0.15611   0.55742   0.00000  Uiso   1.00
N44    N     0.22205   0.27296   0.19207   0.00000  Uiso   1.00
N45    N     0.46739   0.89623   0.26343   0.00000  Uiso   1.00
N46    N     0.19439   0.15871   0.51686   0.00000  Uiso   1.00
C47    C     0.58803   0.60651   0.13174   0.00000  Uiso   1.00
C48    C     0.64655   0.65231   0.17902   0.00000  Uiso   1.00
C49    C     0.80635   0.68936   0.19619   0.00000  Uiso   1.00
C50    C     0.83491   0.72818   0.24024   0.00000  Uiso   1.00
C51    C     0.94511   0.79903   0.30974   0.00000  Uiso   1.00
C52    C     0.57896   0.54848   0.15937   0.00000  Uiso   1.00
C53    C     0.68191   0.49824   0.16000   0.00000  Uiso   1.00
C54    C     0.65354   0.44965   0.18749   0.00000  Uiso   1.00
C55    C     0.65871   0.35929   0.22644   0.00000  Uiso   1.00
C56    C     0.37862   0.62083   0.08953   0.00000  Uiso   1.00
C57    C     0.31309   0.63140   0.03143   0.00000  Uiso   1.00
C58    C     0.11603   0.64371   0.00012   0.00000  Uiso   1.00
C59    C     0.81012   0.66568   0.93062   0.00000  Uiso   1.00
C60    C     0.35458   0.60956   0.17945   0.00000  Uiso   1.00
C61    C     0.51975   0.65396   0.20494   0.00000  Uiso   1.00
C62    C     0.54806   0.69274   0.24897   0.00000  Uiso   1.00
C63    C     0.70787   0.72985   0.26620   0.00000  Uiso   1.00
C64    C     0.45217   0.55014   0.18528   0.00000  Uiso   1.00
C65    C     0.42363   0.50161   0.21278   0.00000  Uiso   1.00
C66    C     0.52651   0.45131   0.21345   0.00000  Uiso   1.00
C67    C     0.25181   0.62249   0.11544   0.00000  Uiso   1.00
C68    C     0.05481   0.63478   0.08421   0.00000  Uiso   1.00
C69    C     0.98900   0.64537   0.02608   0.00000  Uiso   1.00
H70    H     0.68675   0.60521   0.11157   0.00000  Uiso   1.00
H71    H     0.90446   0.68806   0.17613   0.00000  Uiso   1.00
H72    H     0.78001   0.49696   0.13994   0.00000  Uiso   1.00
H73    H     0.41126   0.63011   0.01139   0.00000  Uiso   1.00
H74    H     0.08994   0.78063   0.25915   0.00000  Uiso   1.00
H75    H     0.82750   0.37769   0.18282   0.00000  Uiso   1.00
H76    H     0.04990   0.65845   0.91175   0.00000  Uiso   1.00
H77    H     0.25586   0.61085   0.19962   0.00000  Uiso   1.00
H78    H     0.44991   0.69401   0.26902   0.00000  Uiso   1.00
H79    H     0.32548   0.50291   0.23282   0.00000  Uiso   1.00
H80    H     0.95672   0.63606   0.10428   0.00000  Uiso   1.00
H81    H     0.72102   0.78546   0.33454   0.00000  Uiso   1.00
H82    H     0.45858   0.38251   0.25821   0.00000  Uiso   1.00
H83    H     0.68098   0.66328   0.98714   0.00000  Uiso   1.00
O84    O     0.04095   0.83764   0.34092   0.00000  Uiso   1.00
O85    O     0.69661   0.30898   0.24076   0.00000  Uiso   1.00
O86    O     0.67643   0.67734   0.88514   0.00000  Uiso   1.00
N87    N     0.97646   0.77036   0.26736   0.00000  Uiso   1.00
N88    N     0.73112   0.39363   0.19600   0.00000  Uiso   1.00
N89    N     0.00412   0.65611   0.94258   0.00000  Uiso   1.00
N90    N     0.77795   0.77296   0.30793   0.00000  Uiso   1.00
N91    N     0.53261   0.39623   0.23657   0.00000  Uiso   1.00
N92    N     0.80561   0.65871   0.98314   0.00000  Uiso   1.00
C93    C     0.58803   0.89349   0.63174   0.00000  Uiso   1.00
C94    C     0.64655   0.84769   0.67902   0.00000  Uiso   1.00
C95    C     0.80635   0.81064   0.69619   0.00000  Uiso   1.00
C96    C     0.83491   0.77182   0.74024   0.00000  Uiso   1.00
C97    C     0.94511   0.70097   0.80974   0.00000  Uiso   1.00
C98    C     0.57896   0.95152   0.65937   0.00000  Uiso   1.00
C99    C     0.68191   0.00176   0.66000   0.00000  Uiso   1.00
C100   C     0.65354   0.05035   0.68749   0.00000  Uiso   1.00
C101   C     0.65871   0.14071   0.72644   0.00000  Uiso   1.00
C102   C     0.37862   0.87917   0.58953   0.00000  Uiso   1.00
C103   C     0.31309   0.86860   0.53143   0.00000  Uiso   1.00
C104   C     0.11603   0.85629   0.50012   0.00000  Uiso   1.00
C105   C     0.81012   0.83432   0.43062   0.00000  Uiso   1.00
C106   C     0.35458   0.89044   0.67945   0.00000  Uiso   1.00
C107   C     0.51975   0.84604   0.70494   0.00000  Uiso   1.00
C108   C     0.54806   0.80726   0.74897   0.00000  Uiso   1.00
C109   C     0.70787   0.77015   0.76620   0.00000  Uiso   1.00
C110   C     0.45217   0.94986   0.68528   0.00000  Uiso   1.00
C111   C     0.42363   0.99839   0.71278   0.00000  Uiso   1.00
C112   C     0.52651   0.04869   0.71345   0.00000  Uiso   1.00
C113   C     0.25181   0.87751   0.61544   0.00000  Uiso   1.00
C114   C     0.05481   0.86522   0.58421   0.00000  Uiso   1.00
C115   C     0.98900   0.85463   0.52608   0.00000  Uiso   1.00
H116   H     0.68675   0.89479   0.61157   0.00000  Uiso   1.00
H117   H     0.90446   0.81194   0.67613   0.00000  Uiso   1.00
H118   H     0.78001   0.00304   0.63994   0.00000  Uiso   1.00
H119   H     0.41126   0.86989   0.51139   0.00000  Uiso   1.00
H120   H     0.08994   0.71937   0.75915   0.00000  Uiso   1.00
H121   H     0.82750   0.12231   0.68282   0.00000  Uiso   1.00
H122   H     0.04990   0.84155   0.41175   0.00000  Uiso   1.00
H123   H     0.25586   0.88915   0.69962   0.00000  Uiso   1.00
H124   H     0.44991   0.80599   0.76902   0.00000  Uiso   1.00
H125   H     0.32548   0.99709   0.73282   0.00000  Uiso   1.00
H126   H     0.95672   0.86394   0.60428   0.00000  Uiso   1.00
H127   H     0.72102   0.71454   0.83454   0.00000  Uiso   1.00
H128   H     0.45858   0.11749   0.75821   0.00000  Uiso   1.00
H129   H     0.68098   0.83672   0.48714   0.00000  Uiso   1.00
O130   O     0.04095   0.66236   0.84092   0.00000  Uiso   1.00
O131   O     0.69661   0.19102   0.74076   0.00000  Uiso   1.00
O132   O     0.67643   0.82266   0.38514   0.00000  Uiso   1.00
N133   N     0.97646   0.72964   0.76736   0.00000  Uiso   1.00
N134   N     0.73112   0.10637   0.69600   0.00000  Uiso   1.00
N135   N     0.00412   0.84389   0.44258   0.00000  Uiso   1.00
N136   N     0.77795   0.72704   0.80793   0.00000  Uiso   1.00
N137   N     0.53261   0.10377   0.73657   0.00000  Uiso   1.00
N138   N     0.80561   0.84129   0.48314   0.00000  Uiso   1.00
C139   C     0.41197   0.39349   0.86826   0.00000  Uiso   1.00
C140   C     0.35345   0.34769   0.82098   0.00000  Uiso   1.00
C141   C     0.19365   0.31064   0.80381   0.00000  Uiso   1.00
C142   C     0.16509   0.27182   0.75976   0.00000  Uiso   1.00
C143   C     0.05489   0.20097   0.69026   0.00000  Uiso   1.00
C144   C     0.42104   0.45152   0.84063   0.00000  Uiso   1.00
C145   C     0.31809   0.50176   0.84000   0.00000  Uiso   1.00
C146   C     0.34646   0.55035   0.81251   0.00000  Uiso   1.00
C147   C     0.34129   0.64071   0.77356   0.00000  Uiso   1.00
C148   C     0.62138   0.37917   0.91047   0.00000  Uiso   1.00
C149   C     0.68691   0.36860   0.96857   0.00000  Uiso   1.00
C150   C     0.88397   0.35629   0.99988   0.00000  Uiso   1.00
C151   C     0.18988   0.33432   0.06938   0.00000  Uiso   1.00
C152   C     0.64542   0.39044   0.82055   0.00000  Uiso   1.00
C153   C     0.48025   0.34604   0.79506   0.00000  Uiso   1.00
C154   C     0.45194   0.30726   0.75103   0.00000  Uiso   1.00
C155   C     0.29213   0.27015   0.73380   0.00000  Uiso   1.00
C156   C     0.54783   0.44986   0.81472   0.00000  Uiso   1.00
C157   C     0.57637   0.49839   0.78722   0.00000  Uiso   1.00
C158   C     0.47349   0.54869   0.78655   0.00000  Uiso   1.00
C159   C     0.74819   0.37751   0.88456   0.00000  Uiso   1.00
C160   C     0.94519   0.36522   0.91579   0.00000  Uiso   1.00
C161   C     0.01100   0.35463   0.97392   0.00000  Uiso   1.00
H162   H     0.31325   0.39479   0.88843   0.00000  Uiso   1.00
H163   H     0.09554   0.31194   0.82387   0.00000  Uiso   1.00
H164   H     0.21999   0.50304   0.86006   0.00000  Uiso   1.00
H165   H     0.58874   0.36989   0.98861   0.00000  Uiso   1.00
H166   H     0.91006   0.21937   0.74085   0.00000  Uiso   1.00
H167   H     0.17250   0.62231   0.81718   0.00000  Uiso   1.00
H168   H     0.95010   0.34155   0.08825   0.00000  Uiso   1.00
H169   H     0.74414   0.38915   0.80038   0.00000  Uiso   1.00
H170   H     0.55009   0.30599   0.73098   0.00000  Uiso   1.00
H171   H     0.67452   0.49709   0.76718   0.00000  Uiso   1.00
H172   H     0.04328   0.36394   0.89572   0.00000  Uiso   1.00
H173   H     0.27898   0.21454   0.66546   0.00000  Uiso   1.00
H174   H     0.54142   0.61749   0.74179   0.00000  Uiso   1.00
H175   H     0.31902   0.33672   0.01286   0.00000  Uiso   1.00
O176   O     0.95905   0.16236   0.65908   0.00000  Uiso   1.00
O177   O     0.30339   0.69102   0.75924   0.00000  Uiso   1.00
O178   O     0.32357   0.32266   0.11486   0.00000  Uiso   1.00
N179   N     0.02354   0.22964   0.73264   0.00000  Uiso   1.00
N180   N     0.26888   0.60637   0.80400   0.00000  Uiso   1.00
N181   N     0.99588   0.34389   0.05742   0.00000  Uiso   1.00
N182   N     0.22205   0.22704   0.69207   0.00000  Uiso   1.00
N183   N     0.46739   0.60377   0.76343   0.00000  Uiso   1.00
N184   N     0.19439   0.34129   0.01686   0.00000  Uiso   1.00
