data_job_03422
_audit_creation_date              2018-12-19
_audit_creation_method            'Materials Studio'
_symmetry_space_group_name_H-M    'P1'
_symmetry_Int_Tables_number       1
_symmetry_cell_setting            triclinic
loop_
_symmetry_equiv_pos_as_xyz
  x,y,z
_cell_length_a                    7.5105
_cell_length_b                    14.9066
_cell_length_c                    27.7953
_cell_angle_alpha                 90.0000
_cell_angle_beta                  97.7681
_cell_angle_gamma                 90.0000
loop_
_atom_site_label
_atom_site_type_symbol
_atom_site_fract_x
_atom_site_fract_y
_atom_site_fract_z
_atom_site_U_iso_or_equiv
_atom_site_adp_type
_atom_site_occupancy
C1     C     0.17999   0.90481   0.26251   0.00000  Uiso   1.00
C2     C     0.01199   0.85801   0.27526   0.00000  Uiso   1.00
C3     C     0.00755   0.77542   0.29811   0.00000  Uiso   1.00
C4     C     0.84045   0.74412   0.30656   0.00000  Uiso   1.00
C5     C     0.60344   0.66389   0.32846   0.00000  Uiso   1.00
C6     C     0.14596   0.92226   0.20798   0.00000  Uiso   1.00
C7     C     0.25419   0.89369   0.17426   0.00000  Uiso   1.00
C8     C     0.19988   0.91648   0.12608   0.00000  Uiso   1.00
C9     C     0.17094   0.93604   0.04353   0.00000  Uiso   1.00
C10    C     0.18407   0.99672   0.28672   0.00000  Uiso   1.00
C11    C     0.32437   0.03078   0.31921   0.00000  Uiso   1.00
C12    C     0.30216   0.11627   0.33731   0.00000  Uiso   1.00
C13    C     0.33240   0.25145   0.37702   0.00000  Uiso   1.00
C14    C     0.89113   0.99609   0.23689   0.00000  Uiso   1.00
C15    C     0.85509   0.90759   0.26134   0.00000  Uiso   1.00
C16    C     0.68795   0.87641   0.26976   0.00000  Uiso   1.00
C17    C     0.68327   0.79379   0.29262   0.00000  Uiso   1.00
C18    C     0.98907   0.97183   0.19406   0.00000  Uiso   1.00
C19    C     0.93459   0.99467   0.14592   0.00000  Uiso   1.00
C20    C     0.04270   0.96615   0.11214   0.00000  Uiso   1.00
C21    C     0.02717   0.04630   0.27281   0.00000  Uiso   1.00
C22    C     0.00476   0.13176   0.29086   0.00000  Uiso   1.00
C23    C     0.14498   0.16594   0.32337   0.00000  Uiso   1.00
H24    H     0.30215   0.86622   0.27334   0.00000  Uiso   1.00
H25    H     0.12900   0.73707   0.30887   0.00000  Uiso   1.00
H26    H     0.37561   0.85533   0.18505   0.00000  Uiso   1.00
H27    H     0.44576   0.99239   0.32997   0.00000  Uiso   1.00
H28    H     0.86783   0.61574   0.34211   0.00000  Uiso   1.00
H29    H     0.38785   0.86512   0.08102   0.00000  Uiso   1.00
H30    H     0.53580   0.15414   0.38662   0.00000  Uiso   1.00
H31    H     0.76897   0.03469   0.22605   0.00000  Uiso   1.00
H32    H     0.56655   0.91479   0.25899   0.00000  Uiso   1.00
H33    H     0.81317   0.03304   0.13516   0.00000  Uiso   1.00
H34    H     0.88332   0.17010   0.28008   0.00000  Uiso   1.00
H35    H     0.41133   0.75998   0.30162   0.00000  Uiso   1.00
H36    H     0.93136   0.00936   0.04053   0.00000  Uiso   1.00
H37    H     0.07929   0.29838   0.34613   0.00000  Uiso   1.00
O38    O     0.51604   0.60593   0.34437   0.00000  Uiso   1.00
O39    O     0.19831   0.93312   0.00183   0.00000  Uiso   1.00
O40    O     0.39240   0.31231   0.40277   0.00000  Uiso   1.00
N41    N     0.78818   0.66615   0.32807   0.00000  Uiso   1.00
N42    N     0.27435   0.89929   0.08396   0.00000  Uiso   1.00
N43    N     0.41269   0.16951   0.36966   0.00000  Uiso   1.00
N44    N     0.54254   0.74376   0.30628   0.00000  Uiso   1.00
N45    N     0.02871   0.97691   0.06218   0.00000  Uiso   1.00
N46    N     0.16705   0.24713   0.34788   0.00000  Uiso   1.00
C47    C     0.82001   0.40481   0.23749   0.00000  Uiso   1.00
C48    C     0.98801   0.35801   0.22474   0.00000  Uiso   1.00
C49    C     0.99245   0.27542   0.20189   0.00000  Uiso   1.00
C50    C     0.15955   0.24412   0.19344   0.00000  Uiso   1.00
C51    C     0.39656   0.16389   0.17154   0.00000  Uiso   1.00
C52    C     0.85404   0.42226   0.29202   0.00000  Uiso   1.00
C53    C     0.74581   0.39369   0.32574   0.00000  Uiso   1.00
C54    C     0.80012   0.41648   0.37392   0.00000  Uiso   1.00
C55    C     0.82906   0.43604   0.45647   0.00000  Uiso   1.00
C56    C     0.81593   0.49672   0.21328   0.00000  Uiso   1.00
C57    C     0.67563   0.53078   0.18079   0.00000  Uiso   1.00
C58    C     0.69784   0.61627   0.16269   0.00000  Uiso   1.00
C59    C     0.66760   0.75145   0.12298   0.00000  Uiso   1.00
C60    C     0.10887   0.49609   0.26311   0.00000  Uiso   1.00
C61    C     0.14491   0.40759   0.23866   0.00000  Uiso   1.00
C62    C     0.31205   0.37641   0.23024   0.00000  Uiso   1.00
C63    C     0.31673   0.29379   0.20738   0.00000  Uiso   1.00
C64    C     0.01093   0.47183   0.30594   0.00000  Uiso   1.00
C65    C     0.06541   0.49467   0.35408   0.00000  Uiso   1.00
C66    C     0.95730   0.46615   0.38786   0.00000  Uiso   1.00
C67    C     0.97283   0.54630   0.22719   0.00000  Uiso   1.00
C68    C     0.99524   0.63176   0.20914   0.00000  Uiso   1.00
C69    C     0.85502   0.66594   0.17663   0.00000  Uiso   1.00
H70    H     0.69785   0.36622   0.22666   0.00000  Uiso   1.00
H71    H     0.87100   0.23707   0.19113   0.00000  Uiso   1.00
H72    H     0.62439   0.35533   0.31495   0.00000  Uiso   1.00
H73    H     0.55424   0.49239   0.17003   0.00000  Uiso   1.00
H74    H     0.13217   0.11574   0.15789   0.00000  Uiso   1.00
H75    H     0.61215   0.36512   0.41898   0.00000  Uiso   1.00
H76    H     0.46420   0.65414   0.11338   0.00000  Uiso   1.00
H77    H     0.23103   0.53469   0.27395   0.00000  Uiso   1.00
H78    H     0.43345   0.41479   0.24101   0.00000  Uiso   1.00
H79    H     0.18683   0.53304   0.36484   0.00000  Uiso   1.00
H80    H     0.11668   0.67010   0.21992   0.00000  Uiso   1.00
H81    H     0.58867   0.25998   0.19838   0.00000  Uiso   1.00
H82    H     0.06864   0.50936   0.45947   0.00000  Uiso   1.00
H83    H     0.92071   0.79838   0.15387   0.00000  Uiso   1.00
O84    O     0.48396   0.10593   0.15563   0.00000  Uiso   1.00
O85    O     0.80169   0.43312   0.49817   0.00000  Uiso   1.00
O86    O     0.60760   0.81231   0.09723   0.00000  Uiso   1.00
N87    N     0.21182   0.16615   0.17193   0.00000  Uiso   1.00
N88    N     0.72565   0.39929   0.41604   0.00000  Uiso   1.00
N89    N     0.58731   0.66951   0.13034   0.00000  Uiso   1.00
N90    N     0.45746   0.24376   0.19372   0.00000  Uiso   1.00
N91    N     0.97129   0.47691   0.43782   0.00000  Uiso   1.00
N92    N     0.83295   0.74713   0.15212   0.00000  Uiso   1.00
C93    C     0.82001   0.09519   0.73749   0.00000  Uiso   1.00
C94    C     0.98801   0.14199   0.72474   0.00000  Uiso   1.00
C95    C     0.99245   0.22458   0.70189   0.00000  Uiso   1.00
C96    C     0.15955   0.25588   0.69344   0.00000  Uiso   1.00
C97    C     0.39656   0.33611   0.67154   0.00000  Uiso   1.00
C98    C     0.85404   0.07774   0.79202   0.00000  Uiso   1.00
C99    C     0.74581   0.10631   0.82574   0.00000  Uiso   1.00
C100   C     0.80012   0.08352   0.87392   0.00000  Uiso   1.00
C101   C     0.82906   0.06396   0.95647   0.00000  Uiso   1.00
C102   C     0.81593   0.00328   0.71328   0.00000  Uiso   1.00
C103   C     0.67563   0.96922   0.68079   0.00000  Uiso   1.00
C104   C     0.69784   0.88373   0.66269   0.00000  Uiso   1.00
C105   C     0.66760   0.74855   0.62298   0.00000  Uiso   1.00
C106   C     0.10887   0.00391   0.76311   0.00000  Uiso   1.00
C107   C     0.14491   0.09241   0.73866   0.00000  Uiso   1.00
C108   C     0.31205   0.12359   0.73024   0.00000  Uiso   1.00
C109   C     0.31673   0.20621   0.70738   0.00000  Uiso   1.00
C110   C     0.01093   0.02817   0.80594   0.00000  Uiso   1.00
C111   C     0.06541   0.00533   0.85408   0.00000  Uiso   1.00
C112   C     0.95730   0.03385   0.88786   0.00000  Uiso   1.00
C113   C     0.97283   0.95370   0.72719   0.00000  Uiso   1.00
C114   C     0.99524   0.86824   0.70914   0.00000  Uiso   1.00
C115   C     0.85502   0.83406   0.67663   0.00000  Uiso   1.00
H116   H     0.69785   0.13378   0.72666   0.00000  Uiso   1.00
H117   H     0.87100   0.26293   0.69113   0.00000  Uiso   1.00
H118   H     0.62439   0.14467   0.81495   0.00000  Uiso   1.00
H119   H     0.55424   0.00761   0.67003   0.00000  Uiso   1.00
H120   H     0.13217   0.38426   0.65789   0.00000  Uiso   1.00
H121   H     0.61215   0.13488   0.91898   0.00000  Uiso   1.00
H122   H     0.46420   0.84586   0.61338   0.00000  Uiso   1.00
H123   H     0.23103   0.96531   0.77395   0.00000  Uiso   1.00
H124   H     0.43345   0.08521   0.74101   0.00000  Uiso   1.00
H125   H     0.18683   0.96696   0.86484   0.00000  Uiso   1.00
H126   H     0.11668   0.82990   0.71992   0.00000  Uiso   1.00
H127   H     0.58867   0.24002   0.69838   0.00000  Uiso   1.00
H128   H     0.06864   0.99064   0.95947   0.00000  Uiso   1.00
H129   H     0.92071   0.70162   0.65387   0.00000  Uiso   1.00
O130   O     0.48396   0.39407   0.65563   0.00000  Uiso   1.00
O131   O     0.80169   0.06688   0.99817   0.00000  Uiso   1.00
O132   O     0.60760   0.68769   0.59723   0.00000  Uiso   1.00
N133   N     0.21182   0.33385   0.67193   0.00000  Uiso   1.00
N134   N     0.72565   0.10071   0.91604   0.00000  Uiso   1.00
N135   N     0.58731   0.83049   0.63034   0.00000  Uiso   1.00
N136   N     0.45746   0.25624   0.69372   0.00000  Uiso   1.00
N137   N     0.97129   0.02309   0.93782   0.00000  Uiso   1.00
N138   N     0.83295   0.75287   0.65212   0.00000  Uiso   1.00
C139   C     0.17999   0.59519   0.76251   0.00000  Uiso   1.00
C140   C     0.01199   0.64199   0.77526   0.00000  Uiso   1.00
C141   C     0.00755   0.72458   0.79811   0.00000  Uiso   1.00
C142   C     0.84045   0.75588   0.80656   0.00000  Uiso   1.00
C143   C     0.60344   0.83611   0.82846   0.00000  Uiso   1.00
C144   C     0.14596   0.57774   0.70798   0.00000  Uiso   1.00
C145   C     0.25419   0.60631   0.67426   0.00000  Uiso   1.00
C146   C     0.19988   0.58352   0.62608   0.00000  Uiso   1.00
C147   C     0.17094   0.56396   0.54353   0.00000  Uiso   1.00
C148   C     0.18407   0.50328   0.78672   0.00000  Uiso   1.00
C149   C     0.32437   0.46922   0.81921   0.00000  Uiso   1.00
C150   C     0.30216   0.38373   0.83731   0.00000  Uiso   1.00
C151   C     0.33240   0.24855   0.87702   0.00000  Uiso   1.00
C152   C     0.89113   0.50391   0.73689   0.00000  Uiso   1.00
C153   C     0.85509   0.59241   0.76134   0.00000  Uiso   1.00
C154   C     0.68795   0.62359   0.76976   0.00000  Uiso   1.00
C155   C     0.68327   0.70621   0.79262   0.00000  Uiso   1.00
C156   C     0.98907   0.52817   0.69406   0.00000  Uiso   1.00
C157   C     0.93459   0.50533   0.64592   0.00000  Uiso   1.00
C158   C     0.04270   0.53385   0.61214   0.00000  Uiso   1.00
C159   C     0.02717   0.45370   0.77281   0.00000  Uiso   1.00
C160   C     0.00476   0.36824   0.79086   0.00000  Uiso   1.00
C161   C     0.14498   0.33406   0.82337   0.00000  Uiso   1.00
H162   H     0.30215   0.63378   0.77334   0.00000  Uiso   1.00
H163   H     0.12900   0.76293   0.80887   0.00000  Uiso   1.00
H164   H     0.37561   0.64467   0.68505   0.00000  Uiso   1.00
H165   H     0.44576   0.50761   0.82997   0.00000  Uiso   1.00
H166   H     0.86783   0.88426   0.84211   0.00000  Uiso   1.00
H167   H     0.38785   0.63488   0.58102   0.00000  Uiso   1.00
H168   H     0.53580   0.34586   0.88662   0.00000  Uiso   1.00
H169   H     0.76897   0.46531   0.72605   0.00000  Uiso   1.00
H170   H     0.56655   0.58521   0.75899   0.00000  Uiso   1.00
H171   H     0.81317   0.46696   0.63516   0.00000  Uiso   1.00
H172   H     0.88332   0.32990   0.78008   0.00000  Uiso   1.00
H173   H     0.41133   0.74002   0.80162   0.00000  Uiso   1.00
H174   H     0.93136   0.49064   0.54053   0.00000  Uiso   1.00
H175   H     0.07929   0.20162   0.84613   0.00000  Uiso   1.00
O176   O     0.51604   0.89407   0.84437   0.00000  Uiso   1.00
O177   O     0.19831   0.56688   0.50183   0.00000  Uiso   1.00
O178   O     0.39240   0.18769   0.90277   0.00000  Uiso   1.00
N179   N     0.78818   0.83385   0.82807   0.00000  Uiso   1.00
N180   N     0.27435   0.60071   0.58396   0.00000  Uiso   1.00
N181   N     0.41269   0.33049   0.86966   0.00000  Uiso   1.00
N182   N     0.54254   0.75624   0.80628   0.00000  Uiso   1.00
N183   N     0.02871   0.52309   0.56218   0.00000  Uiso   1.00
N184   N     0.16705   0.25287   0.84788   0.00000  Uiso   1.00
