data_job_06704
_audit_creation_date              2018-12-19
_audit_creation_method            'Materials Studio'
_symmetry_space_group_name_H-M    'P1'
_symmetry_Int_Tables_number       1
_symmetry_cell_setting            triclinic
loop_
_symmetry_equiv_pos_as_xyz
  x,y,z
_cell_length_a                    18.6256
_cell_length_b                    20.4687
_cell_length_c                    21.4174
_cell_angle_alpha                 116.8002
_cell_angle_beta                  108.4955
_cell_angle_gamma                 82.2314
loop_
_atom_site_label
_atom_site_type_symbol
_atom_site_fract_x
_atom_site_fract_y
_atom_site_fract_z
_atom_site_U_iso_or_equiv
_atom_site_adp_type
_atom_site_occupancy
C1     C     0.47909   0.26714   0.92721   0.00000  Uiso   1.00
C2     C     0.41178   0.30691   0.95409   0.00000  Uiso   1.00
C3     C     0.36903   0.36006   0.93569   0.00000  Uiso   1.00
C4     C     0.30977   0.38985   0.96601   0.00000  Uiso   1.00
C5     C     0.20768   0.45506   0.00062   0.00000  Uiso   1.00
C6     C     0.54526   0.28033   0.99561   0.00000  Uiso   1.00
C7     C     0.61474   0.31112   0.01211   0.00000  Uiso   1.00
C8     C     0.66784   0.31853   0.07739   0.00000  Uiso   1.00
C9     C     0.77300   0.34243   0.17644   0.00000  Uiso   1.00
C10    C     0.46023   0.18569   0.89127   0.00000  Uiso   1.00
C11    C     0.45823   0.13689   0.82004   0.00000  Uiso   1.00
C12    C     0.43977   0.06461   0.79747   0.00000  Uiso   1.00
C13    C     0.41291   0.94156   0.73451   0.00000  Uiso   1.00
C14    C     0.44987   0.22555   0.01378   0.00000  Uiso   1.00
C15    C     0.39591   0.28432   0.00111   0.00000  Uiso   1.00
C16    C     0.33670   0.31404   0.03147   0.00000  Uiso   1.00
C17    C     0.29386   0.36722   0.01311   0.00000  Uiso   1.00
C18    C     0.52938   0.25774   0.04263   0.00000  Uiso   1.00
C19    C     0.58240   0.26511   0.10789   0.00000  Uiso   1.00
C20    C     0.65194   0.29590   0.12450   0.00000  Uiso   1.00
C21    C     0.44435   0.16310   0.93829   0.00000  Uiso   1.00
C22    C     0.42590   0.09088   0.91582   0.00000  Uiso   1.00
C23    C     0.42387   0.04198   0.84458   0.00000  Uiso   1.00
H24    H     0.49146   0.28473   0.89061   0.00000  Uiso   1.00
H25    H     0.38134   0.37753   0.89930   0.00000  Uiso   1.00
H26    H     0.62700   0.32859   0.97571   0.00000  Uiso   1.00
H27    H     0.47052   0.15439   0.78367   0.00000  Uiso   1.00
H28    H     0.25226   0.47047   0.92970   0.00000  Uiso   1.00
H29    H     0.77028   0.36726   0.09081   0.00000  Uiso   1.00
H30    H     0.44031   0.99993   0.68585   0.00000  Uiso   1.00
H31    H     0.43751   0.20796   0.05039   0.00000  Uiso   1.00
H32    H     0.32443   0.29655   0.06785   0.00000  Uiso   1.00
H33    H     0.57010   0.24761   0.14427   0.00000  Uiso   1.00
H34    H     0.41362   0.07341   0.95222   0.00000  Uiso   1.00
H35    H     0.20608   0.40474   0.06651   0.00000  Uiso   1.00
H36    H     0.72409   0.30153   0.22761   0.00000  Uiso   1.00
H37    H     0.39412   0.93420   0.82265   0.00000  Uiso   1.00
O38    O     0.15577   0.49728   0.00673   0.00000  Uiso   1.00
O39    O     0.83539   0.36186   0.21808   0.00000  Uiso   1.00
O40    O     0.40247   0.87993   0.68679   0.00000  Uiso   1.00
N41    N     0.25690   0.44283   0.95949   0.00000  Uiso   1.00
N42    N     0.74121   0.34635   0.11012   0.00000  Uiso   1.00
N43    N     0.43274   0.00292   0.73152   0.00000  Uiso   1.00
N44    N     0.23205   0.40746   0.03310   0.00000  Uiso   1.00
N45    N     0.71636   0.31098   0.18373   0.00000  Uiso   1.00
N46    N     0.40788   0.96755   0.80514   0.00000  Uiso   1.00
C47    C     0.13180   0.30160   0.78186   0.00000  Uiso   1.00
C48    C     0.14518   0.33583   0.73627   0.00000  Uiso   1.00
C49    C     0.19809   0.39012   0.76056   0.00000  Uiso   1.00
C50    C     0.20154   0.41417   0.71044   0.00000  Uiso   1.00
C51    C     0.22956   0.47180   0.65058   0.00000  Uiso   1.00
C52    C     0.04818   0.31268   0.77814   0.00000  Uiso   1.00
C53    C     0.01953   0.34749   0.83764   0.00000  Uiso   1.00
C54    C     0.94132   0.35204   0.82276   0.00000  Uiso   1.00
C55    C     0.81875   0.37368   0.82790   0.00000  Uiso   1.00
C56    C     0.14176   0.21940   0.74058   0.00000  Uiso   1.00
C57    C     0.19177   0.17577   0.76850   0.00000  Uiso   1.00
C58    C     0.19233   0.10178   0.72201   0.00000  Uiso   1.00
C59    C     0.21504   0.97858   0.66884   0.00000  Uiso   1.00
C60    C     0.04385   0.24776   0.64965   0.00000  Uiso   1.00
C61    C     0.09741   0.30659   0.66446   0.00000  Uiso   1.00
C62    C     0.10078   0.33056   0.61428   0.00000  Uiso   1.00
C63    C     0.15368   0.38488   0.63850   0.00000  Uiso   1.00
C64    C     0.00041   0.28344   0.70633   0.00000  Uiso   1.00
C65    C     0.92222   0.28793   0.69136   0.00000  Uiso   1.00
C66    C     0.89346   0.32275   0.75081   0.00000  Uiso   1.00
C67    C     0.09398   0.19016   0.66876   0.00000  Uiso   1.00
C68    C     0.09446   0.11622   0.62222   0.00000  Uiso   1.00
C69    C     0.14447   0.07249   0.65006   0.00000  Uiso   1.00
H70    H     0.16899   0.32436   0.83778   0.00000  Uiso   1.00
H71    H     0.23504   0.41274   0.81615   0.00000  Uiso   1.00
H72    H     0.05652   0.37011   0.89321   0.00000  Uiso   1.00
H73    H     0.22873   0.19842   0.82408   0.00000  Uiso   1.00
H74    H     0.28719   0.49785   0.76051   0.00000  Uiso   1.00
H75    H     0.91076   0.40794   0.92299   0.00000  Uiso   1.00
H76    H     0.27390   0.04589   0.77723   0.00000  Uiso   1.00
H77    H     0.00665   0.22500   0.59374   0.00000  Uiso   1.00
H78    H     0.06380   0.30793   0.55871   0.00000  Uiso   1.00
H79    H     0.88527   0.26530   0.63577   0.00000  Uiso   1.00
H80    H     0.05748   0.09361   0.56665   0.00000  Uiso   1.00
H81    H     0.14820   0.41278   0.55156   0.00000  Uiso   1.00
H82    H     0.77176   0.32286   0.71405   0.00000  Uiso   1.00
H83    H     0.13491   0.96082   0.56828   0.00000  Uiso   1.00
O84    O     0.25820   0.51167   0.63740   0.00000  Uiso   1.00
O85    O     0.76434   0.39370   0.85058   0.00000  Uiso   1.00
O86    O     0.24078   0.91871   0.65934   0.00000  Uiso   1.00
N87    N     0.24665   0.46643   0.71613   0.00000  Uiso   1.00
N88    N     0.89470   0.38238   0.86805   0.00000  Uiso   1.00
N89    N     0.23420   0.04390   0.73178   0.00000  Uiso   1.00
N90    N     0.17186   0.42066   0.60370   0.00000  Uiso   1.00
N91    N     0.81991   0.33661   0.75561   0.00000  Uiso   1.00
N92    N     0.15941   0.99812   0.61935   0.00000  Uiso   1.00
C93    C     0.38362   0.29697   0.64399   0.00000  Uiso   1.00
C94    C     0.44450   0.32665   0.71752   0.00000  Uiso   1.00
C95    C     0.43355   0.37797   0.78344   0.00000  Uiso   1.00
C96    C     0.49646   0.39803   0.84457   0.00000  Uiso   1.00
C97    C     0.58016   0.44874   0.95945   0.00000  Uiso   1.00
C98    C     0.41218   0.31213   0.59242   0.00000  Uiso   1.00
C99    C     0.37405   0.35123   0.55317   0.00000  Uiso   1.00
C100   C     0.40975   0.35905   0.50899   0.00000  Uiso   1.00
C101   C     0.44325   0.38718   0.42962   0.00000  Uiso   1.00
C102   C     0.38408   0.21400   0.61608   0.00000  Uiso   1.00
C103   C     0.32232   0.17059   0.59670   0.00000  Uiso   1.00
C104   C     0.33435   0.09579   0.57242   0.00000  Uiso   1.00
C105   C     0.32422   0.97156   0.52978   0.00000  Uiso   1.00
C106   C     0.51482   0.24133   0.63532   0.00000  Uiso   1.00
C107   C     0.51576   0.29643   0.71281   0.00000  Uiso   1.00
C108   C     0.57870   0.31641   0.77385   0.00000  Uiso   1.00
C109   C     0.56785   0.36775   0.83986   0.00000  Uiso   1.00
C110   C     0.48344   0.28191   0.58772   0.00000  Uiso   1.00
C111   C     0.51920   0.28967   0.54358   0.00000  Uiso   1.00
C112   C     0.48114   0.32878   0.50427   0.00000  Uiso   1.00
C113   C     0.45534   0.18378   0.61138   0.00000  Uiso   1.00
C114   C     0.46747   0.10904   0.58711   0.00000  Uiso   1.00
C115   C     0.40574   0.06552   0.56770   0.00000  Uiso   1.00
H116   H     0.32814   0.32050   0.64765   0.00000  Uiso   1.00
H117   H     0.37839   0.40135   0.78706   0.00000  Uiso   1.00
H118   H     0.31890   0.37460   0.55682   0.00000  Uiso   1.00
H119   H     0.26718   0.19400   0.60035   0.00000  Uiso   1.00
H120   H     0.46554   0.47768   0.93954   0.00000  Uiso   1.00
H121   H     0.34009   0.42127   0.45404   0.00000  Uiso   1.00
H122   H     0.23102   0.04042   0.54583   0.00000  Uiso   1.00
H123   H     0.57030   0.21780   0.63165   0.00000  Uiso   1.00
H124   H     0.63384   0.29302   0.77019   0.00000  Uiso   1.00
H125   H     0.57435   0.26628   0.53995   0.00000  Uiso   1.00
H126   H     0.52263   0.08567   0.58348   0.00000  Uiso   1.00
H127   H     0.67288   0.38976   0.92585   0.00000  Uiso   1.00
H128   H     0.54742   0.33334   0.44035   0.00000  Uiso   1.00
H129   H     0.43835   0.95250   0.53214   0.00000  Uiso   1.00
O130   O     0.60665   0.48507   0.02411   0.00000  Uiso   1.00
O131   O     0.44205   0.41105   0.38715   0.00000  Uiso   1.00
O132   O     0.29895   0.91138   0.50758   0.00000  Uiso   1.00
N133   N     0.50561   0.44665   0.91731   0.00000  Uiso   1.00
N134   N     0.38833   0.39392   0.46341   0.00000  Uiso   1.00
N135   N     0.28635   0.03786   0.54920   0.00000  Uiso   1.00
N136   N     0.61718   0.39934   0.90994   0.00000  Uiso   1.00
N137   N     0.49989   0.34661   0.45604   0.00000  Uiso   1.00
N138   N     0.39792   0.99055   0.54184   0.00000  Uiso   1.00
C139   C     0.75677   0.73274   0.77124   0.00000  Uiso   1.00
C140   C     0.76940   0.78325   0.85229   0.00000  Uiso   1.00
C141   C     0.83720   0.81754   0.90148   0.00000  Uiso   1.00
C142   C     0.83711   0.86161   0.97326   0.00000  Uiso   1.00
C143   C     0.86669   0.93863   0.09579   0.00000  Uiso   1.00
C144   C     0.69203   0.76589   0.73037   0.00000  Uiso   1.00
C145   C     0.69477   0.78557   0.67705   0.00000  Uiso   1.00
C146   C     0.62955   0.81501   0.64619   0.00000  Uiso   1.00
C147   C     0.53899   0.86503   0.57940   0.00000  Uiso   1.00
C148   C     0.72615   0.66094   0.75848   0.00000  Uiso   1.00
C149   C     0.75757   0.59237   0.72877   0.00000  Uiso   1.00
C150   C     0.72106   0.53345   0.72156   0.00000  Uiso   1.00
C151   C     0.68348   0.42053   0.69841   0.00000  Uiso   1.00
C152   C     0.63605   0.75003   0.81123   0.00000  Uiso   1.00
C153   C     0.70383   0.79264   0.87400   0.00000  Uiso   1.00
C154   C     0.70364   0.83667   0.94573   0.00000  Uiso   1.00
C155   C     0.77143   0.87101   0.99502   0.00000  Uiso   1.00
C156   C     0.62646   0.77528   0.75209   0.00000  Uiso   1.00
C157   C     0.56122   0.80470   0.72130   0.00000  Uiso   1.00
C158   C     0.56386   0.82442   0.66795   0.00000  Uiso   1.00
C159   C     0.66058   0.67033   0.78020   0.00000  Uiso   1.00
C160   C     0.62401   0.61151   0.77302   0.00000  Uiso   1.00
C161   C     0.65537   0.54286   0.74332   0.00000  Uiso   1.00
H162   H     0.80782   0.72543   0.75433   0.00000  Uiso   1.00
H163   H     0.88793   0.81026   0.88465   0.00000  Uiso   1.00
H164   H     0.74552   0.77829   0.66025   0.00000  Uiso   1.00
H165   H     0.80831   0.58513   0.71197   0.00000  Uiso   1.00
H166   H     0.94783   0.90847   0.03871   0.00000  Uiso   1.00
H167   H     0.64754   0.84103   0.56553   0.00000  Uiso   1.00
H168   H     0.77995   0.43371   0.67459   0.00000  Uiso   1.00
H169   H     0.58500   0.75735   0.82814   0.00000  Uiso   1.00
H170   H     0.65289   0.84393   0.96252   0.00000  Uiso   1.00
H171   H     0.51048   0.81195   0.73812   0.00000  Uiso   1.00
H172   H     0.57327   0.61879   0.78984   0.00000  Uiso   1.00
H173   H     0.75706   0.93580   0.10191   0.00000  Uiso   1.00
H174   H     0.45678   0.86835   0.62873   0.00000  Uiso   1.00
H175   H     0.58918   0.46104   0.73779   0.00000  Uiso   1.00
O176   O     0.90112   0.97854   0.15737   0.00000  Uiso   1.00
O177   O     0.50715   0.89004   0.53657   0.00000  Uiso   1.00
O178   O     0.68087   0.35565   0.67965   0.00000  Uiso   1.00
N179   N     0.89362   0.90301   0.03514   0.00000  Uiso   1.00
N180   N     0.61287   0.83997   0.59276   0.00000  Uiso   1.00
N181   N     0.73665   0.45916   0.69470   0.00000  Uiso   1.00
N182   N     0.79097   0.91771   0.06915   0.00000  Uiso   1.00
N183   N     0.51022   0.85467   0.62677   0.00000  Uiso   1.00
N184   N     0.63400   0.47386   0.72871   0.00000  Uiso   1.00
C185   C     0.10287   0.87012   0.09761   0.00000  Uiso   1.00
C186   C     0.17719   0.88931   0.09379   0.00000  Uiso   1.00
C187   C     0.18729   0.94371   0.07549   0.00000  Uiso   1.00
C188   C     0.25969   0.95271   0.07511   0.00000  Uiso   1.00
C189   C     0.36596   0.98921   0.06657   0.00000  Uiso   1.00
C190   C     0.11847   0.87674   0.17458   0.00000  Uiso   1.00
C191   C     0.07918   0.92056   0.22421   0.00000  Uiso   1.00
C192   C     0.10214   0.91897   0.29184   0.00000  Uiso   1.00
C193   C     0.11720   0.93591   0.40872   0.00000  Uiso   1.00
C194   C     0.08875   0.78895   0.04631   0.00000  Uiso   1.00
C195   C     0.02447   0.75896   0.98810   0.00000  Uiso   1.00
C196   C     0.02239   0.68345   0.94774   0.00000  Uiso   1.00
C197   C     0.99131   0.56409   0.86545   0.00000  Uiso   1.00
C198   C     0.21347   0.78934   0.12946   0.00000  Uiso   1.00
C199   C     0.23727   0.84543   0.11109   0.00000  Uiso   1.00
C200   C     0.30966   0.85434   0.11073   0.00000  Uiso   1.00
C201   C     0.31987   0.90875   0.09243   0.00000  Uiso   1.00
C202   C     0.17854   0.83286   0.19188   0.00000  Uiso   1.00
C203   C     0.20155   0.83119   0.25945   0.00000  Uiso   1.00
C204   C     0.16232   0.87501   0.30917   0.00000  Uiso   1.00
C205   C     0.14882   0.74507   0.06360   0.00000  Uiso   1.00
C206   C     0.14684   0.66959   0.02333   0.00000  Uiso   1.00
C207   C     0.08258   0.63949   0.96507   0.00000  Uiso   1.00
H208   H     0.05610   0.90427   0.08415   0.00000  Uiso   1.00
H209   H     0.14079   0.97766   0.06212   0.00000  Uiso   1.00
H210   H     0.03269   0.95451   0.21081   0.00000  Uiso   1.00
H211   H     0.97799   0.79293   0.97473   0.00000  Uiso   1.00
H212   H     0.26118   0.03969   0.04534   0.00000  Uiso   1.00
H213   H     0.03324   0.99085   0.35886   0.00000  Uiso   1.00
H214   H     0.91788   0.65014   0.86104   0.00000  Uiso   1.00
H215   H     0.26025   0.75518   0.14293   0.00000  Uiso   1.00
H216   H     0.35614   0.82038   0.12412   0.00000  Uiso   1.00
H217   H     0.24805   0.79723   0.27281   0.00000  Uiso   1.00
H218   H     0.19334   0.63566   0.03673   0.00000  Uiso   1.00
H219   H     0.43598   0.91204   0.09567   0.00000  Uiso   1.00
H220   H     0.20803   0.86320   0.40918   0.00000  Uiso   1.00
H221   H     0.09268   0.52249   0.91136   0.00000  Uiso   1.00
O222   O     0.40798   0.02147   0.05709   0.00000  Uiso   1.00
O223   O     0.10892   0.95738   0.46841   0.00000  Uiso   1.00
O224   O     0.95758   0.51038   0.81528   0.00000  Uiso   1.00
N225   N     0.28916   0.00069   0.05975   0.00000  Uiso   1.00
N226   N     0.07605   0.95504   0.35288   0.00000  Uiso   1.00
N227   N     0.96819   0.63650   0.88747   0.00000  Uiso   1.00
N228   N     0.38321   0.93200   0.08683   0.00000  Uiso   1.00
N229   N     0.17010   0.88635   0.37996   0.00000  Uiso   1.00
N230   N     0.06225   0.56781   0.91455   0.00000  Uiso   1.00
C231   C     0.97588   0.78341   0.76000   0.00000  Uiso   1.00
C232   C     0.91784   0.82866   0.72806   0.00000  Uiso   1.00
C233   C     0.86478   0.87462   0.75996   0.00000  Uiso   1.00
C234   C     0.81674   0.91124   0.72207   0.00000  Uiso   1.00
C235   C     0.72591   0.98291   0.68276   0.00000  Uiso   1.00
C236   C     0.05304   0.80584   0.76494   0.00000  Uiso   1.00
C237   C     0.11365   0.83261   0.82784   0.00000  Uiso   1.00
C238   C     0.17941   0.85001   0.82099   0.00000  Uiso   1.00
C239   C     0.29849   0.88620   0.83891   0.00000  Uiso   1.00
C240   C     0.96294   0.70428   0.70201   0.00000  Uiso   1.00
C241   C     0.94781   0.64566   0.71199   0.00000  Uiso   1.00
C242   C     0.93773   0.57756   0.65216   0.00000  Uiso   1.00
C243   C     0.91692   0.45607   0.57236   0.00000  Uiso   1.00
C244   C     0.98490   0.76670   0.63599   0.00000  Uiso   1.00
C245   C     0.92275   0.81958   0.66071   0.00000  Uiso   1.00
C246   C     0.87477   0.85614   0.62276   0.00000  Uiso   1.00
C247   C     0.82164   0.90215   0.65460   0.00000  Uiso   1.00
C248   C     0.05794   0.79677   0.69759   0.00000  Uiso   1.00
C249   C     0.12363   0.81413   0.69064   0.00000  Uiso   1.00
C250   C     0.18432   0.84092   0.75352   0.00000  Uiso   1.00
C251   C     0.96784   0.69521   0.63465   0.00000  Uiso   1.00
C252   C     0.95779   0.62718   0.57479   0.00000  Uiso   1.00
C253   C     0.94265   0.56847   0.58468   0.00000  Uiso   1.00
H254   H     0.97206   0.79047   0.81243   0.00000  Uiso   1.00
H255   H     0.86101   0.88163   0.81209   0.00000  Uiso   1.00
H256   H     0.10984   0.83961   0.87995   0.00000  Uiso   1.00
H257   H     0.94402   0.65270   0.76412   0.00000  Uiso   1.00
H258   H     0.74007   0.97872   0.78201   0.00000  Uiso   1.00
H259   H     0.26474   0.89010   0.92511   0.00000  Uiso   1.00
H260   H     0.91509   0.49596   0.68085   0.00000  Uiso   1.00
H261   H     0.98872   0.75964   0.58355   0.00000  Uiso   1.00
H262   H     0.87857   0.84911   0.57064   0.00000  Uiso   1.00
H263   H     0.12740   0.80710   0.63851   0.00000  Uiso   1.00
H264   H     0.96159   0.62018   0.52268   0.00000  Uiso   1.00
H265   H     0.75433   0.95233   0.58605   0.00000  Uiso   1.00
H266   H     0.27900   0.86371   0.72914   0.00000  Uiso   1.00
H267   H     0.92935   0.46957   0.48488   0.00000  Uiso   1.00
O268   O     0.67446   0.02496   0.67968   0.00000  Uiso   1.00
O269   O     0.36281   0.90868   0.86741   0.00000  Uiso   1.00
O270   O     0.90407   0.39157   0.54695   0.00000  Uiso   1.00
N271   N     0.75853   0.96022   0.73766   0.00000  Uiso   1.00
N272   N     0.24906   0.87738   0.87145   0.00000  Uiso   1.00
N273   N     0.92219   0.50888   0.64309   0.00000  Uiso   1.00
N274   N     0.76620   0.94602   0.63221   0.00000  Uiso   1.00
N275   N     0.25673   0.86318   0.76600   0.00000  Uiso   1.00
N276   N     0.92986   0.49468   0.53764   0.00000  Uiso   1.00
C277   C     0.52091   0.73286   0.07279   0.00000  Uiso   1.00
C278   C     0.58822   0.69309   0.04591   0.00000  Uiso   1.00
C279   C     0.63097   0.63994   0.06431   0.00000  Uiso   1.00
C280   C     0.69023   0.61015   0.03399   0.00000  Uiso   1.00
C281   C     0.79232   0.54494   0.99938   0.00000  Uiso   1.00
C282   C     0.45474   0.71967   0.00439   0.00000  Uiso   1.00
C283   C     0.38526   0.68888   0.98789   0.00000  Uiso   1.00
C284   C     0.33216   0.68147   0.92261   0.00000  Uiso   1.00
C285   C     0.22700   0.65757   0.82356   0.00000  Uiso   1.00
C286   C     0.53977   0.81431   0.10873   0.00000  Uiso   1.00
C287   C     0.54177   0.86311   0.17996   0.00000  Uiso   1.00
C288   C     0.56023   0.93539   0.20253   0.00000  Uiso   1.00
C289   C     0.58709   0.05844   0.26549   0.00000  Uiso   1.00
C290   C     0.55013   0.77445   0.98622   0.00000  Uiso   1.00
C291   C     0.60409   0.71568   0.99889   0.00000  Uiso   1.00
C292   C     0.66331   0.68596   0.96853   0.00000  Uiso   1.00
C293   C     0.70614   0.63278   0.98689   0.00000  Uiso   1.00
C294   C     0.47062   0.74226   0.95737   0.00000  Uiso   1.00
C295   C     0.41760   0.73489   0.89211   0.00000  Uiso   1.00
C296   C     0.34806   0.70410   0.87550   0.00000  Uiso   1.00
C297   C     0.55565   0.83690   0.06171   0.00000  Uiso   1.00
C298   C     0.57410   0.90912   0.08418   0.00000  Uiso   1.00
C299   C     0.57613   0.95802   0.15542   0.00000  Uiso   1.00
H300   H     0.50854   0.71527   0.10939   0.00000  Uiso   1.00
H301   H     0.61866   0.62247   0.10070   0.00000  Uiso   1.00
H302   H     0.37300   0.67141   0.02429   0.00000  Uiso   1.00
H303   H     0.52948   0.84561   0.21633   0.00000  Uiso   1.00
H304   H     0.74774   0.52953   0.07030   0.00000  Uiso   1.00
H305   H     0.22972   0.63274   0.90919   0.00000  Uiso   1.00
H306   H     0.55969   0.00007   0.31415   0.00000  Uiso   1.00
H307   H     0.56249   0.79204   0.94961   0.00000  Uiso   1.00
H308   H     0.67557   0.70345   0.93215   0.00000  Uiso   1.00
H309   H     0.42990   0.75239   0.85573   0.00000  Uiso   1.00
H310   H     0.58638   0.92659   0.04778   0.00000  Uiso   1.00
H311   H     0.79392   0.59526   0.93349   0.00000  Uiso   1.00
H312   H     0.27591   0.69847   0.77239   0.00000  Uiso   1.00
H313   H     0.60588   0.06580   0.17735   0.00000  Uiso   1.00
O314   O     0.84423   0.50272   0.99327   0.00000  Uiso   1.00
O315   O     0.16461   0.63814   0.78192   0.00000  Uiso   1.00
O316   O     0.59753   0.12007   0.31321   0.00000  Uiso   1.00
N317   N     0.74310   0.55717   0.04051   0.00000  Uiso   1.00
N318   N     0.25879   0.65365   0.88988   0.00000  Uiso   1.00
N319   N     0.56726   0.99708   0.26848   0.00000  Uiso   1.00
N320   N     0.76795   0.59254   0.96690   0.00000  Uiso   1.00
N321   N     0.28364   0.68902   0.81627   0.00000  Uiso   1.00
N322   N     0.59212   0.03245   0.19486   0.00000  Uiso   1.00
C323   C     0.86820   0.69840   0.21814   0.00000  Uiso   1.00
C324   C     0.85482   0.66417   0.26373   0.00000  Uiso   1.00
C325   C     0.80191   0.60988   0.23944   0.00000  Uiso   1.00
C326   C     0.79846   0.58583   0.28956   0.00000  Uiso   1.00
C327   C     0.77044   0.52820   0.34942   0.00000  Uiso   1.00
C328   C     0.95182   0.68732   0.22186   0.00000  Uiso   1.00
C329   C     0.98047   0.65251   0.16236   0.00000  Uiso   1.00
C330   C     0.05868   0.64796   0.17724   0.00000  Uiso   1.00
C331   C     0.18125   0.62632   0.17210   0.00000  Uiso   1.00
C332   C     0.85824   0.78060   0.25942   0.00000  Uiso   1.00
C333   C     0.80823   0.82423   0.23150   0.00000  Uiso   1.00
C334   C     0.80767   0.89822   0.27799   0.00000  Uiso   1.00
C335   C     0.78496   0.02142   0.33116   0.00000  Uiso   1.00
C336   C     0.95615   0.75224   0.35035   0.00000  Uiso   1.00
C337   C     0.90259   0.69341   0.33554   0.00000  Uiso   1.00
C338   C     0.89922   0.66944   0.38572   0.00000  Uiso   1.00
C339   C     0.84632   0.61512   0.36150   0.00000  Uiso   1.00
C340   C     0.99959   0.71656   0.29367   0.00000  Uiso   1.00
C341   C     0.07778   0.71207   0.30864   0.00000  Uiso   1.00
C342   C     0.10654   0.67725   0.24919   0.00000  Uiso   1.00
C343   C     0.90602   0.80984   0.33124   0.00000  Uiso   1.00
C344   C     0.90554   0.88378   0.37778   0.00000  Uiso   1.00
C345   C     0.85553   0.92751   0.34994   0.00000  Uiso   1.00
H346   H     0.83101   0.67564   0.16222   0.00000  Uiso   1.00
H347   H     0.76496   0.58726   0.18385   0.00000  Uiso   1.00
H348   H     0.94348   0.62989   0.10679   0.00000  Uiso   1.00
H349   H     0.77127   0.80158   0.17592   0.00000  Uiso   1.00
H350   H     0.71281   0.50215   0.23949   0.00000  Uiso   1.00
H351   H     0.08924   0.59206   0.07701   0.00000  Uiso   1.00
H352   H     0.72610   0.95411   0.22277   0.00000  Uiso   1.00
H353   H     0.99335   0.77500   0.40626   0.00000  Uiso   1.00
H354   H     0.93620   0.69207   0.44129   0.00000  Uiso   1.00
H355   H     0.11473   0.73470   0.36423   0.00000  Uiso   1.00
H356   H     0.94252   0.90639   0.43335   0.00000  Uiso   1.00
H357   H     0.85180   0.58722   0.44844   0.00000  Uiso   1.00
H358   H     0.22824   0.67714   0.28595   0.00000  Uiso   1.00
H359   H     0.86509   0.03918   0.43172   0.00000  Uiso   1.00
O360   O     0.74180   0.48833   0.36260   0.00000  Uiso   1.00
O361   O     0.23566   0.60630   0.14942   0.00000  Uiso   1.00
O362   O     0.75922   0.08129   0.34066   0.00000  Uiso   1.00
N363   N     0.75335   0.53357   0.28387   0.00000  Uiso   1.00
N364   N     0.10530   0.61762   0.13195   0.00000  Uiso   1.00
N365   N     0.76580   0.95610   0.26822   0.00000  Uiso   1.00
N366   N     0.82814   0.57934   0.39630   0.00000  Uiso   1.00
N367   N     0.18009   0.66339   0.24439   0.00000  Uiso   1.00
N368   N     0.84059   0.00188   0.38065   0.00000  Uiso   1.00
C369   C     0.61638   0.70303   0.35601   0.00000  Uiso   1.00
C370   C     0.55550   0.67335   0.28248   0.00000  Uiso   1.00
C371   C     0.56645   0.62203   0.21656   0.00000  Uiso   1.00
C372   C     0.50354   0.60197   0.15543   0.00000  Uiso   1.00
C373   C     0.41984   0.55126   0.04055   0.00000  Uiso   1.00
C374   C     0.58782   0.68787   0.40758   0.00000  Uiso   1.00
C375   C     0.62595   0.64877   0.44683   0.00000  Uiso   1.00
C376   C     0.59025   0.64095   0.49101   0.00000  Uiso   1.00
C377   C     0.55675   0.61282   0.57038   0.00000  Uiso   1.00
C378   C     0.61592   0.78600   0.38392   0.00000  Uiso   1.00
C379   C     0.67768   0.82941   0.40330   0.00000  Uiso   1.00
C380   C     0.66565   0.90421   0.42758   0.00000  Uiso   1.00
C381   C     0.67578   0.02844   0.47022   0.00000  Uiso   1.00
C382   C     0.48518   0.75867   0.36468   0.00000  Uiso   1.00
C383   C     0.48424   0.70357   0.28719   0.00000  Uiso   1.00
C384   C     0.42130   0.68359   0.22615   0.00000  Uiso   1.00
C385   C     0.43215   0.63225   0.16014   0.00000  Uiso   1.00
C386   C     0.51656   0.71809   0.41228   0.00000  Uiso   1.00
C387   C     0.48080   0.71033   0.45642   0.00000  Uiso   1.00
C388   C     0.51886   0.67122   0.49573   0.00000  Uiso   1.00
C389   C     0.54466   0.81622   0.38862   0.00000  Uiso   1.00
C390   C     0.53253   0.89096   0.41289   0.00000  Uiso   1.00
C391   C     0.59426   0.93448   0.43230   0.00000  Uiso   1.00
H392   H     0.67186   0.67950   0.35235   0.00000  Uiso   1.00
H393   H     0.62161   0.59865   0.21294   0.00000  Uiso   1.00
H394   H     0.68110   0.62540   0.44318   0.00000  Uiso   1.00
H395   H     0.73282   0.80600   0.39965   0.00000  Uiso   1.00
H396   H     0.53446   0.52232   0.06046   0.00000  Uiso   1.00
H397   H     0.65991   0.57873   0.54596   0.00000  Uiso   1.00
H398   H     0.76898   0.95958   0.45417   0.00000  Uiso   1.00
H399   H     0.42970   0.78220   0.36835   0.00000  Uiso   1.00
H400   H     0.36616   0.70698   0.22981   0.00000  Uiso   1.00
H401   H     0.42565   0.73372   0.46005   0.00000  Uiso   1.00
H402   H     0.47737   0.91433   0.41652   0.00000  Uiso   1.00
H403   H     0.32712   0.61024   0.07415   0.00000  Uiso   1.00
H404   H     0.45258   0.66666   0.55965   0.00000  Uiso   1.00
H405   H     0.56165   0.04750   0.46786   0.00000  Uiso   1.00
O406   O     0.39335   0.51493   0.97589   0.00000  Uiso   1.00
O407   O     0.55795   0.58895   0.61285   0.00000  Uiso   1.00
O408   O     0.70105   0.08862   0.49242   0.00000  Uiso   1.00
N409   N     0.49439   0.55335   0.08269   0.00000  Uiso   1.00
N410   N     0.61167   0.60608   0.53659   0.00000  Uiso   1.00
N411   N     0.71365   0.96214   0.45080   0.00000  Uiso   1.00
N412   N     0.38282   0.60066   0.09006   0.00000  Uiso   1.00
N413   N     0.50011   0.65339   0.54396   0.00000  Uiso   1.00
N414   N     0.60208   0.00945   0.45816   0.00000  Uiso   1.00
C415   C     0.24323   0.26726   0.22876   0.00000  Uiso   1.00
C416   C     0.23060   0.21675   0.14771   0.00000  Uiso   1.00
C417   C     0.16280   0.18246   0.09852   0.00000  Uiso   1.00
C418   C     0.16289   0.13839   0.02674   0.00000  Uiso   1.00
C419   C     0.13331   0.06137   0.90421   0.00000  Uiso   1.00
C420   C     0.30797   0.23411   0.26963   0.00000  Uiso   1.00
C421   C     0.30523   0.21443   0.32295   0.00000  Uiso   1.00
C422   C     0.37045   0.18499   0.35381   0.00000  Uiso   1.00
C423   C     0.46101   0.13497   0.42060   0.00000  Uiso   1.00
C424   C     0.27385   0.33906   0.24152   0.00000  Uiso   1.00
C425   C     0.24243   0.40763   0.27123   0.00000  Uiso   1.00
C426   C     0.27894   0.46655   0.27844   0.00000  Uiso   1.00
C427   C     0.31652   0.57947   0.30159   0.00000  Uiso   1.00
C428   C     0.36395   0.24997   0.18877   0.00000  Uiso   1.00
C429   C     0.29617   0.20736   0.12600   0.00000  Uiso   1.00
C430   C     0.29636   0.16333   0.05427   0.00000  Uiso   1.00
C431   C     0.22857   0.12899   0.00498   0.00000  Uiso   1.00
C432   C     0.37354   0.22472   0.24791   0.00000  Uiso   1.00
C433   C     0.43878   0.19530   0.27870   0.00000  Uiso   1.00
C434   C     0.43614   0.17558   0.33205   0.00000  Uiso   1.00
C435   C     0.33942   0.32967   0.21980   0.00000  Uiso   1.00
C436   C     0.37599   0.38849   0.22698   0.00000  Uiso   1.00
C437   C     0.34463   0.45714   0.25668   0.00000  Uiso   1.00
H438   H     0.19218   0.27457   0.24567   0.00000  Uiso   1.00
H439   H     0.11207   0.18974   0.11535   0.00000  Uiso   1.00
H440   H     0.25448   0.22171   0.33975   0.00000  Uiso   1.00
H441   H     0.19169   0.41487   0.28803   0.00000  Uiso   1.00
H442   H     0.05217   0.09153   0.96129   0.00000  Uiso   1.00
H443   H     0.35246   0.15897   0.43447   0.00000  Uiso   1.00
H444   H     0.22005   0.56629   0.32541   0.00000  Uiso   1.00
H445   H     0.41500   0.24265   0.17186   0.00000  Uiso   1.00
H446   H     0.34711   0.15607   0.03748   0.00000  Uiso   1.00
H447   H     0.48952   0.18805   0.26188   0.00000  Uiso   1.00
H448   H     0.42673   0.38121   0.21016   0.00000  Uiso   1.00
H449   H     0.24294   0.06420   0.89809   0.00000  Uiso   1.00
H450   H     0.54322   0.13165   0.37127   0.00000  Uiso   1.00
H451   H     0.41082   0.53896   0.26221   0.00000  Uiso   1.00
O452   O     0.09888   0.02146   0.84263   0.00000  Uiso   1.00
O453   O     0.49285   0.10996   0.46343   0.00000  Uiso   1.00
O454   O     0.31913   0.64435   0.32035   0.00000  Uiso   1.00
N455   N     0.10638   0.09699   0.96486   0.00000  Uiso   1.00
N456   N     0.38713   0.16003   0.40724   0.00000  Uiso   1.00
N457   N     0.26335   0.54084   0.30530   0.00000  Uiso   1.00
N458   N     0.20903   0.08229   0.93085   0.00000  Uiso   1.00
N459   N     0.48978   0.14533   0.37323   0.00000  Uiso   1.00
N460   N     0.36600   0.52614   0.27129   0.00000  Uiso   1.00
C461   C     0.89713   0.12988   0.90239   0.00000  Uiso   1.00
C462   C     0.82281   0.11069   0.90621   0.00000  Uiso   1.00
C463   C     0.81271   0.05629   0.92451   0.00000  Uiso   1.00
C464   C     0.74031   0.04729   0.92489   0.00000  Uiso   1.00
C465   C     0.63404   0.01079   0.93343   0.00000  Uiso   1.00
C466   C     0.88153   0.12326   0.82542   0.00000  Uiso   1.00
C467   C     0.92082   0.07944   0.77579   0.00000  Uiso   1.00
C468   C     0.89786   0.08103   0.70816   0.00000  Uiso   1.00
C469   C     0.88280   0.06409   0.59128   0.00000  Uiso   1.00
C470   C     0.91125   0.21105   0.95369   0.00000  Uiso   1.00
C471   C     0.97553   0.24104   0.01190   0.00000  Uiso   1.00
C472   C     0.97761   0.31655   0.05226   0.00000  Uiso   1.00
C473   C     0.00869   0.43591   0.13455   0.00000  Uiso   1.00
C474   C     0.78653   0.21066   0.87054   0.00000  Uiso   1.00
C475   C     0.76273   0.15457   0.88891   0.00000  Uiso   1.00
C476   C     0.69034   0.14566   0.88927   0.00000  Uiso   1.00
C477   C     0.68013   0.09125   0.90757   0.00000  Uiso   1.00
C478   C     0.82146   0.16714   0.80812   0.00000  Uiso   1.00
C479   C     0.79845   0.16881   0.74055   0.00000  Uiso   1.00
C480   C     0.83768   0.12499   0.69083   0.00000  Uiso   1.00
C481   C     0.85118   0.25493   0.93640   0.00000  Uiso   1.00
C482   C     0.85316   0.33041   0.97667   0.00000  Uiso   1.00
C483   C     0.91742   0.36051   0.03493   0.00000  Uiso   1.00
H484   H     0.94390   0.09573   0.91585   0.00000  Uiso   1.00
H485   H     0.85921   0.02234   0.93788   0.00000  Uiso   1.00
H486   H     0.96731   0.04549   0.78919   0.00000  Uiso   1.00
H487   H     0.02201   0.20707   0.02527   0.00000  Uiso   1.00
H488   H     0.73882   0.96031   0.95466   0.00000  Uiso   1.00
H489   H     0.96676   0.00915   0.64114   0.00000  Uiso   1.00
H490   H     0.08212   0.34986   0.13896   0.00000  Uiso   1.00
H491   H     0.73975   0.24482   0.85707   0.00000  Uiso   1.00
H492   H     0.64386   0.17962   0.87588   0.00000  Uiso   1.00
H493   H     0.75195   0.20277   0.72719   0.00000  Uiso   1.00
H494   H     0.80666   0.36434   0.96327   0.00000  Uiso   1.00
H495   H     0.56402   0.08796   0.90433   0.00000  Uiso   1.00
H496   H     0.79197   0.13680   0.59082   0.00000  Uiso   1.00
H497   H     0.90732   0.47751   0.08864   0.00000  Uiso   1.00
O498   O     0.59202   0.97853   0.94291   0.00000  Uiso   1.00
O499   O     0.89108   0.04262   0.53159   0.00000  Uiso   1.00
O500   O     0.04242   0.48962   0.18472   0.00000  Uiso   1.00
N501   N     0.71084   0.99931   0.94025   0.00000  Uiso   1.00
N502   N     0.92395   0.04496   0.64712   0.00000  Uiso   1.00
N503   N     0.03181   0.36350   0.11253   0.00000  Uiso   1.00
N504   N     0.61679   0.06800   0.91317   0.00000  Uiso   1.00
N505   N     0.82990   0.11365   0.62004   0.00000  Uiso   1.00
N506   N     0.93775   0.43219   0.08545   0.00000  Uiso   1.00
C507   C     0.02412   0.21659   0.24000   0.00000  Uiso   1.00
C508   C     0.08216   0.17134   0.27194   0.00000  Uiso   1.00
C509   C     0.13522   0.12538   0.24004   0.00000  Uiso   1.00
C510   C     0.18326   0.08876   0.27793   0.00000  Uiso   1.00
C511   C     0.27409   0.01709   0.31724   0.00000  Uiso   1.00
C512   C     0.94696   0.19416   0.23506   0.00000  Uiso   1.00
C513   C     0.88635   0.16739   0.17216   0.00000  Uiso   1.00
C514   C     0.82059   0.14999   0.17901   0.00000  Uiso   1.00
C515   C     0.70151   0.11380   0.16109   0.00000  Uiso   1.00
C516   C     0.03706   0.29572   0.29799   0.00000  Uiso   1.00
C517   C     0.05219   0.35434   0.28801   0.00000  Uiso   1.00
C518   C     0.06227   0.42244   0.34784   0.00000  Uiso   1.00
C519   C     0.08308   0.54393   0.42764   0.00000  Uiso   1.00
C520   C     0.01510   0.23330   0.36401   0.00000  Uiso   1.00
C521   C     0.07725   0.18042   0.33929   0.00000  Uiso   1.00
C522   C     0.12523   0.14386   0.37724   0.00000  Uiso   1.00
C523   C     0.17836   0.09785   0.34540   0.00000  Uiso   1.00
C524   C     0.94206   0.20323   0.30241   0.00000  Uiso   1.00
C525   C     0.87637   0.18587   0.30936   0.00000  Uiso   1.00
C526   C     0.81568   0.15908   0.24648   0.00000  Uiso   1.00
C527   C     0.03216   0.30479   0.36535   0.00000  Uiso   1.00
C528   C     0.04221   0.37282   0.42521   0.00000  Uiso   1.00
C529   C     0.05735   0.43153   0.41532   0.00000  Uiso   1.00
H530   H     0.02794   0.20953   0.18757   0.00000  Uiso   1.00
H531   H     0.13899   0.11837   0.18791   0.00000  Uiso   1.00
H532   H     0.89016   0.16039   0.12005   0.00000  Uiso   1.00
H533   H     0.05598   0.34730   0.23588   0.00000  Uiso   1.00
H534   H     0.25993   0.02128   0.21799   0.00000  Uiso   1.00
H535   H     0.73526   0.10990   0.07489   0.00000  Uiso   1.00
H536   H     0.08491   0.50404   0.31915   0.00000  Uiso   1.00
H537   H     0.01128   0.24036   0.41645   0.00000  Uiso   1.00
H538   H     0.12143   0.15089   0.42936   0.00000  Uiso   1.00
H539   H     0.87260   0.19290   0.36149   0.00000  Uiso   1.00
H540   H     0.03841   0.37982   0.47732   0.00000  Uiso   1.00
H541   H     0.24567   0.04767   0.41395   0.00000  Uiso   1.00
H542   H     0.72100   0.13629   0.27086   0.00000  Uiso   1.00
H543   H     0.07065   0.53043   0.51512   0.00000  Uiso   1.00
O544   O     0.32554   0.97504   0.32032   0.00000  Uiso   1.00
O545   O     0.63719   0.09132   0.13259   0.00000  Uiso   1.00
O546   O     0.09593   0.60843   0.45305   0.00000  Uiso   1.00
N547   N     0.24147   0.03978   0.26234   0.00000  Uiso   1.00
N548   N     0.75094   0.12262   0.12855   0.00000  Uiso   1.00
N549   N     0.07781   0.49112   0.35691   0.00000  Uiso   1.00
N550   N     0.23380   0.05398   0.36779   0.00000  Uiso   1.00
N551   N     0.74327   0.13682   0.23400   0.00000  Uiso   1.00
N552   N     0.07014   0.50532   0.46236   0.00000  Uiso   1.00
