data_job_06430
_audit_creation_date              2018-12-19
_audit_creation_method            'Materials Studio'
_symmetry_space_group_name_H-M    'P1'
_symmetry_Int_Tables_number       1
_symmetry_cell_setting            triclinic
loop_
_symmetry_equiv_pos_as_xyz
  x,y,z
_cell_length_a                    17.1829
_cell_length_b                    17.1816
_cell_length_c                    17.1803
_cell_angle_alpha                 89.0591
_cell_angle_beta                  89.0614
_cell_angle_gamma                 89.0638
loop_
_atom_site_label
_atom_site_type_symbol
_atom_site_fract_x
_atom_site_fract_y
_atom_site_fract_z
_atom_site_U_iso_or_equiv
_atom_site_adp_type
_atom_site_occupancy
C1     C     0.62281   0.03129   0.03147   0.00000  Uiso   1.00
C2     C     0.62907   0.01778   0.11911   0.00000  Uiso   1.00
C3     C     0.68310   0.96937   0.15571   0.00000  Uiso   1.00
C4     C     0.67922   0.96493   0.23644   0.00000  Uiso   1.00
C5     C     0.69743   0.93746   0.36605   0.00000  Uiso   1.00
C6     C     0.53971   0.01074   0.01090   0.00000  Uiso   1.00
C7     C     0.51861   0.95643   0.95651   0.00000  Uiso   1.00
C8     C     0.43951   0.94608   0.94615   0.00000  Uiso   1.00
C9     C     0.31898   0.90773   0.90772   0.00000  Uiso   1.00
C10    C     0.62908   0.11892   0.01805   0.00000  Uiso   1.00
C11    C     0.68311   0.15557   0.96966   0.00000  Uiso   1.00
C12    C     0.67923   0.23631   0.96529   0.00000  Uiso   1.00
C13    C     0.69747   0.36593   0.93796   0.00000  Uiso   1.00
C14    C     0.51985   0.10949   0.10975   0.00000  Uiso   1.00
C15    C     0.57315   0.06025   0.16162   0.00000  Uiso   1.00
C16    C     0.56919   0.05589   0.24232   0.00000  Uiso   1.00
C17    C     0.62320   0.00748   0.27904   0.00000  Uiso   1.00
C18    C     0.48379   0.05322   0.05341   0.00000  Uiso   1.00
C19    C     0.40470   0.04295   0.04312   0.00000  Uiso   1.00
C20    C     0.38348   0.98863   0.98874   0.00000  Uiso   1.00
C21    C     0.57316   0.16140   0.06056   0.00000  Uiso   1.00
C22    C     0.56920   0.24209   0.05627   0.00000  Uiso   1.00
C23    C     0.62321   0.27886   0.00789   0.00000  Uiso   1.00
H24    H     0.66635   0.99822   0.99836   0.00000  Uiso   1.00
H25    H     0.72637   0.93650   0.12279   0.00000  Uiso   1.00
H26    H     0.56190   0.92357   0.92362   0.00000  Uiso   1.00
H27    H     0.72638   0.12269   0.93676   0.00000  Uiso   1.00
H28    H     0.76823   0.88679   0.27948   0.00000  Uiso   1.00
H29    H     0.42145   0.85954   0.85950   0.00000  Uiso   1.00
H30    H     0.76827   0.27942   0.88722   0.00000  Uiso   1.00
H31    H     0.47631   0.14256   0.14285   0.00000  Uiso   1.00
H32    H     0.52590   0.08876   0.27520   0.00000  Uiso   1.00
H33    H     0.36144   0.07583   0.07603   0.00000  Uiso   1.00
H34    H     0.52591   0.27495   0.08918   0.00000  Uiso   1.00
H35    H     0.60552   0.01037   0.40319   0.00000  Uiso   1.00
H36    H     0.25874   0.98312   0.98320   0.00000  Uiso   1.00
H37    H     0.60557   0.40299   0.01092   0.00000  Uiso   1.00
O38    O     0.72292   0.91056   0.42579   0.00000  Uiso   1.00
O39    O     0.26795   0.87483   0.87478   0.00000  Uiso   1.00
O40    O     0.72298   0.42569   0.91115   0.00000  Uiso   1.00
N41    N     0.72314   0.92327   0.29043   0.00000  Uiso   1.00
N42    N     0.39892   0.89778   0.89778   0.00000  Uiso   1.00
N43    N     0.72316   0.29033   0.92368   0.00000  Uiso   1.00
N44    N     0.63559   0.98976   0.35700   0.00000  Uiso   1.00
N45    N     0.31137   0.96428   0.96435   0.00000  Uiso   1.00
N46    N     0.63561   0.35683   0.99025   0.00000  Uiso   1.00
C47    C     0.03149   0.62281   0.03129   0.00000  Uiso   1.00
C48    C     0.11911   0.62908   0.01778   0.00000  Uiso   1.00
C49    C     0.15571   0.68311   0.96937   0.00000  Uiso   1.00
C50    C     0.23643   0.67924   0.96493   0.00000  Uiso   1.00
C51    C     0.36602   0.69745   0.93746   0.00000  Uiso   1.00
C52    C     0.01092   0.53971   0.01075   0.00000  Uiso   1.00
C53    C     0.95654   0.51861   0.95643   0.00000  Uiso   1.00
C54    C     0.94617   0.43950   0.94608   0.00000  Uiso   1.00
C55    C     0.90775   0.31896   0.90773   0.00000  Uiso   1.00
C56    C     0.01807   0.62908   0.11894   0.00000  Uiso   1.00
C57    C     0.96969   0.68311   0.15558   0.00000  Uiso   1.00
C58    C     0.96533   0.67923   0.23632   0.00000  Uiso   1.00
C59    C     0.93801   0.69746   0.36595   0.00000  Uiso   1.00
C60    C     0.10975   0.51984   0.10951   0.00000  Uiso   1.00
C61    C     0.16162   0.57315   0.06026   0.00000  Uiso   1.00
C62    C     0.24231   0.56919   0.05590   0.00000  Uiso   1.00
C63    C     0.27902   0.62321   0.00749   0.00000  Uiso   1.00
C64    C     0.05343   0.48378   0.05323   0.00000  Uiso   1.00
C65    C     0.04313   0.40468   0.04296   0.00000  Uiso   1.00
C66    C     0.98876   0.38346   0.98864   0.00000  Uiso   1.00
C67    C     0.06058   0.57315   0.16142   0.00000  Uiso   1.00
C68    C     0.05629   0.56919   0.24212   0.00000  Uiso   1.00
C69    C     0.00792   0.62320   0.27888   0.00000  Uiso   1.00
H70    H     0.99839   0.66635   0.99822   0.00000  Uiso   1.00
H71    H     0.12279   0.72638   0.93649   0.00000  Uiso   1.00
H72    H     0.92365   0.56190   0.92357   0.00000  Uiso   1.00
H73    H     0.93680   0.72638   0.12269   0.00000  Uiso   1.00
H74    H     0.27946   0.76826   0.88678   0.00000  Uiso   1.00
H75    H     0.85954   0.42144   0.85954   0.00000  Uiso   1.00
H76    H     0.88727   0.76827   0.27943   0.00000  Uiso   1.00
H77    H     0.14285   0.47629   0.14258   0.00000  Uiso   1.00
H78    H     0.27519   0.52590   0.08878   0.00000  Uiso   1.00
H79    H     0.07604   0.36142   0.07585   0.00000  Uiso   1.00
H80    H     0.08919   0.52590   0.27497   0.00000  Uiso   1.00
H81    H     0.40315   0.60553   0.01038   0.00000  Uiso   1.00
H82    H     0.98322   0.25871   0.98314   0.00000  Uiso   1.00
H83    H     0.01095   0.60555   0.40303   0.00000  Uiso   1.00
O84    O     0.42575   0.72294   0.91056   0.00000  Uiso   1.00
O85    O     0.87481   0.26793   0.87484   0.00000  Uiso   1.00
O86    O     0.91120   0.72297   0.42572   0.00000  Uiso   1.00
N87    N     0.29041   0.72316   0.92326   0.00000  Uiso   1.00
N88    N     0.89781   0.39891   0.89779   0.00000  Uiso   1.00
N89    N     0.92372   0.72315   0.29035   0.00000  Uiso   1.00
N90    N     0.35697   0.63560   0.98977   0.00000  Uiso   1.00
N91    N     0.96437   0.31135   0.96429   0.00000  Uiso   1.00
N92    N     0.99028   0.63560   0.35685   0.00000  Uiso   1.00
C93    C     0.03127   0.03147   0.62281   0.00000  Uiso   1.00
C94    C     0.01777   0.11910   0.62907   0.00000  Uiso   1.00
C95    C     0.96936   0.15570   0.68311   0.00000  Uiso   1.00
C96    C     0.96493   0.23643   0.67923   0.00000  Uiso   1.00
C97    C     0.93746   0.36602   0.69744   0.00000  Uiso   1.00
C98    C     0.01073   0.01090   0.53970   0.00000  Uiso   1.00
C99    C     0.95642   0.95652   0.51860   0.00000  Uiso   1.00
C100   C     0.94607   0.94616   0.43948   0.00000  Uiso   1.00
C101   C     0.90772   0.90773   0.31894   0.00000  Uiso   1.00
C102   C     0.11891   0.01805   0.62908   0.00000  Uiso   1.00
C103   C     0.15555   0.96967   0.68311   0.00000  Uiso   1.00
C104   C     0.23627   0.96531   0.67924   0.00000  Uiso   1.00
C105   C     0.36588   0.93799   0.69747   0.00000  Uiso   1.00
C106   C     0.10947   0.10975   0.51983   0.00000  Uiso   1.00
C107   C     0.06024   0.16162   0.57313   0.00000  Uiso   1.00
C108   C     0.05588   0.24231   0.56917   0.00000  Uiso   1.00
C109   C     0.00748   0.27902   0.62320   0.00000  Uiso   1.00
C110   C     0.05320   0.05342   0.48377   0.00000  Uiso   1.00
C111   C     0.04294   0.04313   0.40466   0.00000  Uiso   1.00
C112   C     0.98862   0.98875   0.38344   0.00000  Uiso   1.00
C113   C     0.16138   0.06057   0.57315   0.00000  Uiso   1.00
C114   C     0.24207   0.05628   0.56918   0.00000  Uiso   1.00
C115   C     0.27883   0.00790   0.62320   0.00000  Uiso   1.00
H116   H     0.99820   0.99837   0.66635   0.00000  Uiso   1.00
H117   H     0.93649   0.12278   0.72638   0.00000  Uiso   1.00
H118   H     0.92356   0.92362   0.56190   0.00000  Uiso   1.00
H119   H     0.12266   0.93678   0.72639   0.00000  Uiso   1.00
H120   H     0.88679   0.27946   0.76825   0.00000  Uiso   1.00
H121   H     0.85954   0.85951   0.42142   0.00000  Uiso   1.00
H122   H     0.27937   0.88724   0.76829   0.00000  Uiso   1.00
H123   H     0.14254   0.14285   0.47628   0.00000  Uiso   1.00
H124   H     0.08876   0.27519   0.52588   0.00000  Uiso   1.00
H125   H     0.07582   0.07604   0.36139   0.00000  Uiso   1.00
H126   H     0.27492   0.08919   0.52589   0.00000  Uiso   1.00
H127   H     0.01037   0.40316   0.60551   0.00000  Uiso   1.00
H128   H     0.98312   0.98321   0.25869   0.00000  Uiso   1.00
H129   H     0.40295   0.01094   0.60555   0.00000  Uiso   1.00
O130   O     0.91057   0.42576   0.72292   0.00000  Uiso   1.00
O131   O     0.87483   0.87479   0.26790   0.00000  Uiso   1.00
O132   O     0.42564   0.91118   0.72299   0.00000  Uiso   1.00
N133   N     0.92327   0.29041   0.72315   0.00000  Uiso   1.00
N134   N     0.89778   0.89779   0.39889   0.00000  Uiso   1.00
N135   N     0.29029   0.92370   0.72317   0.00000  Uiso   1.00
N136   N     0.98977   0.35698   0.63559   0.00000  Uiso   1.00
N137   N     0.96428   0.96436   0.31132   0.00000  Uiso   1.00
N138   N     0.35679   0.99027   0.63560   0.00000  Uiso   1.00
C139   C     0.12281   0.53148   0.53129   0.00000  Uiso   1.00
C140   C     0.12908   0.61911   0.51778   0.00000  Uiso   1.00
C141   C     0.18311   0.65572   0.46937   0.00000  Uiso   1.00
C142   C     0.17923   0.73644   0.46493   0.00000  Uiso   1.00
C143   C     0.19744   0.86604   0.43746   0.00000  Uiso   1.00
C144   C     0.03971   0.51091   0.51075   0.00000  Uiso   1.00
C145   C     0.01861   0.45653   0.45643   0.00000  Uiso   1.00
C146   C     0.93951   0.44616   0.44608   0.00000  Uiso   1.00
C147   C     0.81898   0.40773   0.40773   0.00000  Uiso   1.00
C148   C     0.12908   0.51806   0.61894   0.00000  Uiso   1.00
C149   C     0.18311   0.46967   0.65559   0.00000  Uiso   1.00
C150   C     0.17923   0.46531   0.73633   0.00000  Uiso   1.00
C151   C     0.19746   0.43798   0.86596   0.00000  Uiso   1.00
C152   C     0.01985   0.60975   0.60950   0.00000  Uiso   1.00
C153   C     0.07315   0.66162   0.56026   0.00000  Uiso   1.00
C154   C     0.06919   0.74231   0.55590   0.00000  Uiso   1.00
C155   C     0.12321   0.77903   0.50749   0.00000  Uiso   1.00
C156   C     0.98379   0.55342   0.55323   0.00000  Uiso   1.00
C157   C     0.90470   0.54313   0.54296   0.00000  Uiso   1.00
C158   C     0.88348   0.48875   0.48864   0.00000  Uiso   1.00
C159   C     0.07316   0.56057   0.66142   0.00000  Uiso   1.00
C160   C     0.06919   0.55628   0.74212   0.00000  Uiso   1.00
C161   C     0.12320   0.50790   0.77888   0.00000  Uiso   1.00
H162   H     0.16635   0.49838   0.49822   0.00000  Uiso   1.00
H163   H     0.22637   0.62279   0.43650   0.00000  Uiso   1.00
H164   H     0.06190   0.42363   0.42357   0.00000  Uiso   1.00
H165   H     0.22637   0.43678   0.62270   0.00000  Uiso   1.00
H166   H     0.26824   0.77948   0.38678   0.00000  Uiso   1.00
H167   H     0.92145   0.35952   0.35954   0.00000  Uiso   1.00
H168   H     0.26827   0.38724   0.77944   0.00000  Uiso   1.00
H169   H     0.97631   0.64285   0.64258   0.00000  Uiso   1.00
H170   H     0.02591   0.77520   0.58878   0.00000  Uiso   1.00
H171   H     0.86144   0.57603   0.57585   0.00000  Uiso   1.00
H172   H     0.02591   0.58918   0.77497   0.00000  Uiso   1.00
H173   H     0.10553   0.90317   0.51037   0.00000  Uiso   1.00
H174   H     0.75874   0.48321   0.48313   0.00000  Uiso   1.00
H175   H     0.10556   0.51094   0.90303   0.00000  Uiso   1.00
O176   O     0.22293   0.92578   0.41056   0.00000  Uiso   1.00
O177   O     0.76795   0.37480   0.37483   0.00000  Uiso   1.00
O178   O     0.22297   0.41117   0.92573   0.00000  Uiso   1.00
N179   N     0.22315   0.79043   0.42326   0.00000  Uiso   1.00
N180   N     0.89892   0.39780   0.39779   0.00000  Uiso   1.00
N181   N     0.22315   0.42370   0.79035   0.00000  Uiso   1.00
N182   N     0.13560   0.85699   0.48977   0.00000  Uiso   1.00
N183   N     0.81137   0.46436   0.46429   0.00000  Uiso   1.00
N184   N     0.13560   0.49026   0.85686   0.00000  Uiso   1.00
C185   C     0.53148   0.53128   0.12281   0.00000  Uiso   1.00
C186   C     0.61911   0.51777   0.12908   0.00000  Uiso   1.00
C187   C     0.65571   0.46937   0.18311   0.00000  Uiso   1.00
C188   C     0.73642   0.46493   0.17924   0.00000  Uiso   1.00
C189   C     0.86601   0.43746   0.19745   0.00000  Uiso   1.00
C190   C     0.51092   0.51074   0.03970   0.00000  Uiso   1.00
C191   C     0.45654   0.45642   0.01860   0.00000  Uiso   1.00
C192   C     0.44617   0.44607   0.93948   0.00000  Uiso   1.00
C193   C     0.40775   0.40773   0.81894   0.00000  Uiso   1.00
C194   C     0.51807   0.61892   0.12908   0.00000  Uiso   1.00
C195   C     0.46969   0.65556   0.18311   0.00000  Uiso   1.00
C196   C     0.46533   0.73630   0.17923   0.00000  Uiso   1.00
C197   C     0.43801   0.86592   0.19746   0.00000  Uiso   1.00
C198   C     0.60975   0.60949   0.01983   0.00000  Uiso   1.00
C199   C     0.66162   0.56025   0.07314   0.00000  Uiso   1.00
C200   C     0.74230   0.55589   0.06918   0.00000  Uiso   1.00
C201   C     0.77901   0.50749   0.12320   0.00000  Uiso   1.00
C202   C     0.55342   0.55322   0.98377   0.00000  Uiso   1.00
C203   C     0.54313   0.54295   0.90466   0.00000  Uiso   1.00
C204   C     0.48876   0.48863   0.88345   0.00000  Uiso   1.00
C205   C     0.56058   0.66140   0.07315   0.00000  Uiso   1.00
C206   C     0.55629   0.74209   0.06918   0.00000  Uiso   1.00
C207   C     0.50792   0.77885   0.12320   0.00000  Uiso   1.00
H208   H     0.49838   0.49821   0.16635   0.00000  Uiso   1.00
H209   H     0.62279   0.43649   0.22639   0.00000  Uiso   1.00
H210   H     0.42364   0.42356   0.06190   0.00000  Uiso   1.00
H211   H     0.43680   0.62267   0.22639   0.00000  Uiso   1.00
H212   H     0.77945   0.38678   0.26826   0.00000  Uiso   1.00
H213   H     0.35953   0.35954   0.92143   0.00000  Uiso   1.00
H214   H     0.38726   0.77940   0.26828   0.00000  Uiso   1.00
H215   H     0.64285   0.64256   0.97628   0.00000  Uiso   1.00
H216   H     0.77519   0.58877   0.02589   0.00000  Uiso   1.00
H217   H     0.57604   0.57584   0.86140   0.00000  Uiso   1.00
H218   H     0.58919   0.77495   0.02589   0.00000  Uiso   1.00
H219   H     0.90315   0.51038   0.10552   0.00000  Uiso   1.00
H220   H     0.48322   0.48313   0.75869   0.00000  Uiso   1.00
H221   H     0.51096   0.90299   0.10555   0.00000  Uiso   1.00
O222   O     0.92575   0.41057   0.22294   0.00000  Uiso   1.00
O223   O     0.37481   0.37484   0.76790   0.00000  Uiso   1.00
O224   O     0.41120   0.92568   0.22298   0.00000  Uiso   1.00
N225   N     0.79041   0.42327   0.22316   0.00000  Uiso   1.00
N226   N     0.39781   0.39778   0.89889   0.00000  Uiso   1.00
N227   N     0.42372   0.79031   0.22316   0.00000  Uiso   1.00
N228   N     0.85696   0.48977   0.13560   0.00000  Uiso   1.00
N229   N     0.46437   0.46429   0.81133   0.00000  Uiso   1.00
N230   N     0.49028   0.85682   0.13560   0.00000  Uiso   1.00
C231   C     0.53128   0.12281   0.53146   0.00000  Uiso   1.00
C232   C     0.51777   0.12907   0.61910   0.00000  Uiso   1.00
C233   C     0.46937   0.18310   0.65571   0.00000  Uiso   1.00
C234   C     0.46493   0.17922   0.73644   0.00000  Uiso   1.00
C235   C     0.43746   0.19743   0.86604   0.00000  Uiso   1.00
C236   C     0.51073   0.03971   0.51089   0.00000  Uiso   1.00
C237   C     0.45642   0.01860   0.45651   0.00000  Uiso   1.00
C238   C     0.44607   0.93949   0.44614   0.00000  Uiso   1.00
C239   C     0.40772   0.81896   0.40772   0.00000  Uiso   1.00
C240   C     0.61891   0.12908   0.51804   0.00000  Uiso   1.00
C241   C     0.65555   0.18311   0.46965   0.00000  Uiso   1.00
C242   C     0.73628   0.17924   0.46529   0.00000  Uiso   1.00
C243   C     0.86589   0.19747   0.43796   0.00000  Uiso   1.00
C244   C     0.60947   0.01984   0.60974   0.00000  Uiso   1.00
C245   C     0.56024   0.07314   0.66162   0.00000  Uiso   1.00
C246   C     0.55588   0.06918   0.74231   0.00000  Uiso   1.00
C247   C     0.50748   0.12320   0.77903   0.00000  Uiso   1.00
C248   C     0.55320   0.98378   0.55341   0.00000  Uiso   1.00
C249   C     0.54294   0.90468   0.54312   0.00000  Uiso   1.00
C250   C     0.48862   0.88346   0.48874   0.00000  Uiso   1.00
C251   C     0.66138   0.07315   0.56056   0.00000  Uiso   1.00
C252   C     0.74207   0.06919   0.55627   0.00000  Uiso   1.00
C253   C     0.77883   0.12321   0.50789   0.00000  Uiso   1.00
H254   H     0.49821   0.16635   0.49836   0.00000  Uiso   1.00
H255   H     0.43650   0.22637   0.62278   0.00000  Uiso   1.00
H256   H     0.42357   0.06190   0.42361   0.00000  Uiso   1.00
H257   H     0.62267   0.22639   0.43676   0.00000  Uiso   1.00
H258   H     0.38679   0.26824   0.77947   0.00000  Uiso   1.00
H259   H     0.35954   0.92143   0.35949   0.00000  Uiso   1.00
H260   H     0.77938   0.26829   0.38721   0.00000  Uiso   1.00
H261   H     0.64254   0.97629   0.64285   0.00000  Uiso   1.00
H262   H     0.58876   0.02589   0.77520   0.00000  Uiso   1.00
H263   H     0.57582   0.86141   0.57603   0.00000  Uiso   1.00
H264   H     0.77492   0.02590   0.58918   0.00000  Uiso   1.00
H265   H     0.51036   0.10551   0.90318   0.00000  Uiso   1.00
H266   H     0.48311   0.75871   0.48320   0.00000  Uiso   1.00
H267   H     0.90296   0.10556   0.51093   0.00000  Uiso   1.00
O268   O     0.41057   0.22291   0.92579   0.00000  Uiso   1.00
O269   O     0.37483   0.76793   0.37478   0.00000  Uiso   1.00
O270   O     0.92565   0.22299   0.41115   0.00000  Uiso   1.00
N271   N     0.42327   0.22314   0.79042   0.00000  Uiso   1.00
N272   N     0.39778   0.89890   0.39778   0.00000  Uiso   1.00
N273   N     0.79030   0.22317   0.42368   0.00000  Uiso   1.00
N274   N     0.48976   0.13558   0.85699   0.00000  Uiso   1.00
N275   N     0.46428   0.81134   0.46435   0.00000  Uiso   1.00
N276   N     0.85679   0.13561   0.49025   0.00000  Uiso   1.00
