data_job_01163
_audit_creation_date              2018-12-19
_audit_creation_method            'Materials Studio'
_symmetry_space_group_name_H-M    'P1'
_symmetry_Int_Tables_number       1
_symmetry_cell_setting            triclinic
loop_
_symmetry_equiv_pos_as_xyz
  x,y,z
_cell_length_a                    7.0983
_cell_length_b                    42.0739
_cell_length_c                    23.8863
_cell_angle_alpha                 90.0000
_cell_angle_beta                  90.0000
_cell_angle_gamma                 90.0000
loop_
_atom_site_label
_atom_site_type_symbol
_atom_site_fract_x
_atom_site_fract_y
_atom_site_fract_z
_atom_site_U_iso_or_equiv
_atom_site_adp_type
_atom_site_occupancy
C1     C     0.01294   0.40459   0.83672   0.00000  Uiso   1.00
C2     C     0.94502   0.42763   0.79175   0.00000  Uiso   1.00
C3     C     0.04818   0.43756   0.74561   0.00000  Uiso   1.00
C4     C     0.96098   0.45873   0.70932   0.00000  Uiso   1.00
C5     C     0.88351   0.49286   0.63806   0.00000  Uiso   1.00
C6     C     0.99288   0.42211   0.89228   0.00000  Uiso   1.00
C7     C     0.13629   0.42740   0.93066   0.00000  Uiso   1.00
C8     C     0.08936   0.44393   0.97901   0.00000  Uiso   1.00
C9     C     0.08617   0.46948   0.06384   0.00000  Uiso   1.00
C10    C     0.86906   0.37769   0.83819   0.00000  Uiso   1.00
C11    C     0.90835   0.34563   0.83111   0.00000  Uiso   1.00
C12    C     0.75717   0.32475   0.83393   0.00000  Uiso   1.00
C13    C     0.56173   0.28133   0.83478   0.00000  Uiso   1.00
C14    C     0.67461   0.42452   0.85434   0.00000  Uiso   1.00
C15    C     0.76126   0.43845   0.80133   0.00000  Uiso   1.00
C16    C     0.67386   0.45961   0.76510   0.00000  Uiso   1.00
C17    C     0.77688   0.46957   0.71891   0.00000  Uiso   1.00
C18    C     0.80913   0.43294   0.90185   0.00000  Uiso   1.00
C19    C     0.76197   0.44945   0.95016   0.00000  Uiso   1.00
C20    C     0.90526   0.45477   0.98860   0.00000  Uiso   1.00
C21    C     0.68529   0.38851   0.84776   0.00000  Uiso   1.00
C22    C     0.53403   0.36768   0.85060   0.00000  Uiso   1.00
C23    C     0.57308   0.33559   0.84352   0.00000  Uiso   1.00
H24    H     0.15601   0.39616   0.82927   0.00000  Uiso   1.00
H25    H     0.19040   0.42918   0.73822   0.00000  Uiso   1.00
H26    H     0.27848   0.41902   0.92325   0.00000  Uiso   1.00
H27    H     0.05057   0.33726   0.82371   0.00000  Uiso   1.00
H28    H     0.14751   0.47057   0.64150   0.00000  Uiso   1.00
H29    H     0.33322   0.44914   0.03165   0.00000  Uiso   1.00
H30    H     0.85264   0.27673   0.82176   0.00000  Uiso   1.00
H31    H     0.53154   0.43295   0.86179   0.00000  Uiso   1.00
H32    H     0.53166   0.46798   0.77252   0.00000  Uiso   1.00
H33    H     0.61974   0.45783   0.95755   0.00000  Uiso   1.00
H34    H     0.39184   0.37606   0.85801   0.00000  Uiso   1.00
H35    H     0.61286   0.50206   0.66934   0.00000  Uiso   1.00
H36    H     0.79857   0.48064   0.05950   0.00000  Uiso   1.00
H37    H     0.31799   0.30822   0.84960   0.00000  Uiso   1.00
O38    O     0.89156   0.50871   0.59612   0.00000  Uiso   1.00
O39    O     0.13519   0.48059   0.10799   0.00000  Uiso   1.00
O40    O     0.50469   0.25439   0.83260   0.00000  Uiso   1.00
N41    N     0.02165   0.47317   0.66030   0.00000  Uiso   1.00
N42    N     0.19528   0.45314   0.02506   0.00000  Uiso   1.00
N43    N     0.74599   0.29195   0.82884   0.00000  Uiso   1.00
N44    N     0.73396   0.49011   0.67528   0.00000  Uiso   1.00
N45    N     0.90759   0.47009   0.04004   0.00000  Uiso   1.00
N46    N     0.45830   0.30889   0.84382   0.00000  Uiso   1.00
C47    C     0.48706   0.09541   0.83672   0.00000  Uiso   1.00
C48    C     0.55498   0.07237   0.79175   0.00000  Uiso   1.00
C49    C     0.45182   0.06244   0.74561   0.00000  Uiso   1.00
C50    C     0.53902   0.04127   0.70932   0.00000  Uiso   1.00
C51    C     0.61649   0.00714   0.63806   0.00000  Uiso   1.00
C52    C     0.50712   0.07789   0.89228   0.00000  Uiso   1.00
C53    C     0.36371   0.07260   0.93066   0.00000  Uiso   1.00
C54    C     0.41064   0.05607   0.97901   0.00000  Uiso   1.00
C55    C     0.41383   0.03052   0.06384   0.00000  Uiso   1.00
C56    C     0.63094   0.12231   0.83819   0.00000  Uiso   1.00
C57    C     0.59165   0.15437   0.83111   0.00000  Uiso   1.00
C58    C     0.74283   0.17525   0.83393   0.00000  Uiso   1.00
C59    C     0.93827   0.21867   0.83478   0.00000  Uiso   1.00
C60    C     0.82539   0.07548   0.85434   0.00000  Uiso   1.00
C61    C     0.73874   0.06155   0.80133   0.00000  Uiso   1.00
C62    C     0.82614   0.04039   0.76510   0.00000  Uiso   1.00
C63    C     0.72312   0.03043   0.71891   0.00000  Uiso   1.00
C64    C     0.69087   0.06706   0.90185   0.00000  Uiso   1.00
C65    C     0.73803   0.05055   0.95016   0.00000  Uiso   1.00
C66    C     0.59474   0.04523   0.98860   0.00000  Uiso   1.00
C67    C     0.81471   0.11149   0.84776   0.00000  Uiso   1.00
C68    C     0.96597   0.13232   0.85060   0.00000  Uiso   1.00
C69    C     0.92692   0.16441   0.84352   0.00000  Uiso   1.00
H70    H     0.34399   0.10384   0.82927   0.00000  Uiso   1.00
H71    H     0.30960   0.07082   0.73822   0.00000  Uiso   1.00
H72    H     0.22152   0.08098   0.92325   0.00000  Uiso   1.00
H73    H     0.44943   0.16274   0.82371   0.00000  Uiso   1.00
H74    H     0.35249   0.02943   0.64150   0.00000  Uiso   1.00
H75    H     0.16678   0.05086   0.03165   0.00000  Uiso   1.00
H76    H     0.64736   0.22327   0.82176   0.00000  Uiso   1.00
H77    H     0.96846   0.06705   0.86179   0.00000  Uiso   1.00
H78    H     0.96834   0.03202   0.77252   0.00000  Uiso   1.00
H79    H     0.88026   0.04217   0.95755   0.00000  Uiso   1.00
H80    H     0.10816   0.12394   0.85801   0.00000  Uiso   1.00
H81    H     0.88714   0.99794   0.66934   0.00000  Uiso   1.00
H82    H     0.70143   0.01936   0.05950   0.00000  Uiso   1.00
H83    H     0.18201   0.19178   0.84960   0.00000  Uiso   1.00
O84    O     0.60844   0.99129   0.59612   0.00000  Uiso   1.00
O85    O     0.36481   0.01941   0.10799   0.00000  Uiso   1.00
O86    O     0.99531   0.24561   0.83260   0.00000  Uiso   1.00
N87    N     0.47835   0.02683   0.66030   0.00000  Uiso   1.00
N88    N     0.30472   0.04686   0.02506   0.00000  Uiso   1.00
N89    N     0.75401   0.20805   0.82884   0.00000  Uiso   1.00
N90    N     0.76604   0.00989   0.67528   0.00000  Uiso   1.00
N91    N     0.59241   0.02991   0.04004   0.00000  Uiso   1.00
N92    N     0.04170   0.19111   0.84382   0.00000  Uiso   1.00
C93    C     0.98706   0.90459   0.66328   0.00000  Uiso   1.00
C94    C     0.05498   0.92763   0.70825   0.00000  Uiso   1.00
C95    C     0.95182   0.93756   0.75439   0.00000  Uiso   1.00
C96    C     0.03902   0.95873   0.79068   0.00000  Uiso   1.00
C97    C     0.11649   0.99286   0.86194   0.00000  Uiso   1.00
C98    C     0.00712   0.92211   0.60772   0.00000  Uiso   1.00
C99    C     0.86371   0.92740   0.56934   0.00000  Uiso   1.00
C100   C     0.91064   0.94393   0.52099   0.00000  Uiso   1.00
C101   C     0.91383   0.96948   0.43616   0.00000  Uiso   1.00
C102   C     0.13094   0.87769   0.66181   0.00000  Uiso   1.00
C103   C     0.09165   0.84563   0.66889   0.00000  Uiso   1.00
C104   C     0.24283   0.82475   0.66607   0.00000  Uiso   1.00
C105   C     0.43827   0.78133   0.66522   0.00000  Uiso   1.00
C106   C     0.32539   0.92452   0.64566   0.00000  Uiso   1.00
C107   C     0.23874   0.93845   0.69867   0.00000  Uiso   1.00
C108   C     0.32614   0.95961   0.73490   0.00000  Uiso   1.00
C109   C     0.22312   0.96957   0.78109   0.00000  Uiso   1.00
C110   C     0.19087   0.93294   0.59815   0.00000  Uiso   1.00
C111   C     0.23803   0.94945   0.54984   0.00000  Uiso   1.00
C112   C     0.09474   0.95477   0.51140   0.00000  Uiso   1.00
C113   C     0.31471   0.88851   0.65224   0.00000  Uiso   1.00
C114   C     0.46597   0.86768   0.64940   0.00000  Uiso   1.00
C115   C     0.42692   0.83559   0.65648   0.00000  Uiso   1.00
H116   H     0.84399   0.89616   0.67073   0.00000  Uiso   1.00
H117   H     0.80960   0.92918   0.76178   0.00000  Uiso   1.00
H118   H     0.72152   0.91902   0.57675   0.00000  Uiso   1.00
H119   H     0.94943   0.83726   0.67629   0.00000  Uiso   1.00
H120   H     0.85249   0.97057   0.85850   0.00000  Uiso   1.00
H121   H     0.66678   0.94914   0.46835   0.00000  Uiso   1.00
H122   H     0.14736   0.77673   0.67824   0.00000  Uiso   1.00
H123   H     0.46846   0.93295   0.63821   0.00000  Uiso   1.00
H124   H     0.46834   0.96798   0.72748   0.00000  Uiso   1.00
H125   H     0.38026   0.95783   0.54245   0.00000  Uiso   1.00
H126   H     0.60816   0.87606   0.64199   0.00000  Uiso   1.00
H127   H     0.38714   0.00206   0.83066   0.00000  Uiso   1.00
H128   H     0.20143   0.98064   0.44050   0.00000  Uiso   1.00
H129   H     0.68201   0.80822   0.65040   0.00000  Uiso   1.00
O130   O     0.10844   0.00871   0.90388   0.00000  Uiso   1.00
O131   O     0.86481   0.98059   0.39201   0.00000  Uiso   1.00
O132   O     0.49531   0.75439   0.66740   0.00000  Uiso   1.00
N133   N     0.97835   0.97317   0.83970   0.00000  Uiso   1.00
N134   N     0.80472   0.95314   0.47494   0.00000  Uiso   1.00
N135   N     0.25401   0.79195   0.67116   0.00000  Uiso   1.00
N136   N     0.26604   0.99011   0.82472   0.00000  Uiso   1.00
N137   N     0.09241   0.97009   0.45996   0.00000  Uiso   1.00
N138   N     0.54170   0.80889   0.65618   0.00000  Uiso   1.00
C139   C     0.51294   0.59541   0.66328   0.00000  Uiso   1.00
C140   C     0.44502   0.57237   0.70825   0.00000  Uiso   1.00
C141   C     0.54818   0.56244   0.75439   0.00000  Uiso   1.00
C142   C     0.46098   0.54127   0.79068   0.00000  Uiso   1.00
C143   C     0.38351   0.50714   0.86194   0.00000  Uiso   1.00
C144   C     0.49288   0.57789   0.60772   0.00000  Uiso   1.00
C145   C     0.63629   0.57260   0.56934   0.00000  Uiso   1.00
C146   C     0.58936   0.55607   0.52099   0.00000  Uiso   1.00
C147   C     0.58617   0.53052   0.43616   0.00000  Uiso   1.00
C148   C     0.36906   0.62231   0.66181   0.00000  Uiso   1.00
C149   C     0.40835   0.65437   0.66889   0.00000  Uiso   1.00
C150   C     0.25717   0.67525   0.66607   0.00000  Uiso   1.00
C151   C     0.06173   0.71867   0.66522   0.00000  Uiso   1.00
C152   C     0.17461   0.57548   0.64566   0.00000  Uiso   1.00
C153   C     0.26126   0.56155   0.69867   0.00000  Uiso   1.00
C154   C     0.17386   0.54039   0.73490   0.00000  Uiso   1.00
C155   C     0.27688   0.53043   0.78109   0.00000  Uiso   1.00
C156   C     0.30913   0.56706   0.59815   0.00000  Uiso   1.00
C157   C     0.26197   0.55055   0.54984   0.00000  Uiso   1.00
C158   C     0.40526   0.54523   0.51140   0.00000  Uiso   1.00
C159   C     0.18529   0.61149   0.65224   0.00000  Uiso   1.00
C160   C     0.03403   0.63232   0.64940   0.00000  Uiso   1.00
C161   C     0.07308   0.66441   0.65648   0.00000  Uiso   1.00
H162   H     0.65601   0.60384   0.67073   0.00000  Uiso   1.00
H163   H     0.69040   0.57082   0.76178   0.00000  Uiso   1.00
H164   H     0.77848   0.58098   0.57675   0.00000  Uiso   1.00
H165   H     0.55057   0.66274   0.67629   0.00000  Uiso   1.00
H166   H     0.64751   0.52943   0.85850   0.00000  Uiso   1.00
H167   H     0.83322   0.55086   0.46835   0.00000  Uiso   1.00
H168   H     0.35264   0.72327   0.67824   0.00000  Uiso   1.00
H169   H     0.03154   0.56705   0.63821   0.00000  Uiso   1.00
H170   H     0.03166   0.53202   0.72748   0.00000  Uiso   1.00
H171   H     0.11974   0.54217   0.54245   0.00000  Uiso   1.00
H172   H     0.89184   0.62394   0.64199   0.00000  Uiso   1.00
H173   H     0.11286   0.49794   0.83066   0.00000  Uiso   1.00
H174   H     0.29857   0.51936   0.44050   0.00000  Uiso   1.00
H175   H     0.81799   0.69178   0.65040   0.00000  Uiso   1.00
O176   O     0.39156   0.49129   0.90388   0.00000  Uiso   1.00
O177   O     0.63519   0.51941   0.39201   0.00000  Uiso   1.00
O178   O     0.00469   0.74561   0.66740   0.00000  Uiso   1.00
N179   N     0.52165   0.52683   0.83970   0.00000  Uiso   1.00
N180   N     0.69528   0.54686   0.47494   0.00000  Uiso   1.00
N181   N     0.24599   0.70805   0.67116   0.00000  Uiso   1.00
N182   N     0.23396   0.50989   0.82472   0.00000  Uiso   1.00
N183   N     0.40759   0.52991   0.45996   0.00000  Uiso   1.00
N184   N     0.95830   0.69111   0.65618   0.00000  Uiso   1.00
C185   C     0.98706   0.59541   0.16328   0.00000  Uiso   1.00
C186   C     0.05498   0.57237   0.20825   0.00000  Uiso   1.00
C187   C     0.95182   0.56244   0.25439   0.00000  Uiso   1.00
C188   C     0.03902   0.54127   0.29068   0.00000  Uiso   1.00
C189   C     0.11649   0.50714   0.36194   0.00000  Uiso   1.00
C190   C     0.00712   0.57789   0.10772   0.00000  Uiso   1.00
C191   C     0.86371   0.57260   0.06934   0.00000  Uiso   1.00
C192   C     0.91064   0.55607   0.02099   0.00000  Uiso   1.00
C193   C     0.91383   0.53052   0.93616   0.00000  Uiso   1.00
C194   C     0.13094   0.62231   0.16181   0.00000  Uiso   1.00
C195   C     0.09165   0.65437   0.16889   0.00000  Uiso   1.00
C196   C     0.24283   0.67525   0.16607   0.00000  Uiso   1.00
C197   C     0.43827   0.71867   0.16522   0.00000  Uiso   1.00
C198   C     0.32539   0.57548   0.14566   0.00000  Uiso   1.00
C199   C     0.23874   0.56155   0.19867   0.00000  Uiso   1.00
C200   C     0.32614   0.54039   0.23490   0.00000  Uiso   1.00
C201   C     0.22312   0.53043   0.28109   0.00000  Uiso   1.00
C202   C     0.19087   0.56706   0.09815   0.00000  Uiso   1.00
C203   C     0.23803   0.55055   0.04984   0.00000  Uiso   1.00
C204   C     0.09474   0.54523   0.01140   0.00000  Uiso   1.00
C205   C     0.31471   0.61149   0.15224   0.00000  Uiso   1.00
C206   C     0.46597   0.63232   0.14940   0.00000  Uiso   1.00
C207   C     0.42692   0.66441   0.15648   0.00000  Uiso   1.00
H208   H     0.84399   0.60384   0.17073   0.00000  Uiso   1.00
H209   H     0.80960   0.57082   0.26178   0.00000  Uiso   1.00
H210   H     0.72152   0.58098   0.07675   0.00000  Uiso   1.00
H211   H     0.94943   0.66274   0.17629   0.00000  Uiso   1.00
H212   H     0.85249   0.52943   0.35850   0.00000  Uiso   1.00
H213   H     0.66678   0.55086   0.96835   0.00000  Uiso   1.00
H214   H     0.14736   0.72327   0.17824   0.00000  Uiso   1.00
H215   H     0.46846   0.56705   0.13821   0.00000  Uiso   1.00
H216   H     0.46834   0.53202   0.22748   0.00000  Uiso   1.00
H217   H     0.38026   0.54217   0.04245   0.00000  Uiso   1.00
H218   H     0.60816   0.62394   0.14199   0.00000  Uiso   1.00
H219   H     0.38714   0.49794   0.33066   0.00000  Uiso   1.00
H220   H     0.20143   0.51936   0.94050   0.00000  Uiso   1.00
H221   H     0.68201   0.69178   0.15040   0.00000  Uiso   1.00
O222   O     0.10844   0.49129   0.40388   0.00000  Uiso   1.00
O223   O     0.86481   0.51941   0.89201   0.00000  Uiso   1.00
O224   O     0.49531   0.74561   0.16740   0.00000  Uiso   1.00
N225   N     0.97835   0.52683   0.33970   0.00000  Uiso   1.00
N226   N     0.80472   0.54686   0.97494   0.00000  Uiso   1.00
N227   N     0.25401   0.70805   0.17116   0.00000  Uiso   1.00
N228   N     0.26604   0.50989   0.32472   0.00000  Uiso   1.00
N229   N     0.09241   0.52991   0.95996   0.00000  Uiso   1.00
N230   N     0.54170   0.69111   0.15618   0.00000  Uiso   1.00
C231   C     0.51294   0.90459   0.16328   0.00000  Uiso   1.00
C232   C     0.44502   0.92763   0.20825   0.00000  Uiso   1.00
C233   C     0.54818   0.93756   0.25439   0.00000  Uiso   1.00
C234   C     0.46098   0.95873   0.29068   0.00000  Uiso   1.00
C235   C     0.38351   0.99286   0.36194   0.00000  Uiso   1.00
C236   C     0.49288   0.92211   0.10772   0.00000  Uiso   1.00
C237   C     0.63629   0.92740   0.06934   0.00000  Uiso   1.00
C238   C     0.58936   0.94393   0.02099   0.00000  Uiso   1.00
C239   C     0.58617   0.96948   0.93616   0.00000  Uiso   1.00
C240   C     0.36906   0.87769   0.16181   0.00000  Uiso   1.00
C241   C     0.40835   0.84563   0.16889   0.00000  Uiso   1.00
C242   C     0.25717   0.82475   0.16607   0.00000  Uiso   1.00
C243   C     0.06173   0.78133   0.16522   0.00000  Uiso   1.00
C244   C     0.17461   0.92452   0.14566   0.00000  Uiso   1.00
C245   C     0.26126   0.93845   0.19867   0.00000  Uiso   1.00
C246   C     0.17386   0.95961   0.23490   0.00000  Uiso   1.00
C247   C     0.27688   0.96957   0.28109   0.00000  Uiso   1.00
C248   C     0.30913   0.93294   0.09815   0.00000  Uiso   1.00
C249   C     0.26197   0.94945   0.04984   0.00000  Uiso   1.00
C250   C     0.40526   0.95477   0.01140   0.00000  Uiso   1.00
C251   C     0.18529   0.88851   0.15224   0.00000  Uiso   1.00
C252   C     0.03403   0.86768   0.14940   0.00000  Uiso   1.00
C253   C     0.07308   0.83559   0.15648   0.00000  Uiso   1.00
H254   H     0.65601   0.89616   0.17073   0.00000  Uiso   1.00
H255   H     0.69040   0.92918   0.26178   0.00000  Uiso   1.00
H256   H     0.77848   0.91902   0.07675   0.00000  Uiso   1.00
H257   H     0.55057   0.83726   0.17629   0.00000  Uiso   1.00
H258   H     0.64751   0.97057   0.35850   0.00000  Uiso   1.00
H259   H     0.83322   0.94914   0.96835   0.00000  Uiso   1.00
H260   H     0.35264   0.77673   0.17824   0.00000  Uiso   1.00
H261   H     0.03154   0.93295   0.13821   0.00000  Uiso   1.00
H262   H     0.03166   0.96798   0.22748   0.00000  Uiso   1.00
H263   H     0.11974   0.95783   0.04245   0.00000  Uiso   1.00
H264   H     0.89184   0.87606   0.14199   0.00000  Uiso   1.00
H265   H     0.11286   0.00206   0.33066   0.00000  Uiso   1.00
H266   H     0.29857   0.98064   0.94050   0.00000  Uiso   1.00
H267   H     0.81799   0.80822   0.15040   0.00000  Uiso   1.00
O268   O     0.39156   0.00871   0.40388   0.00000  Uiso   1.00
O269   O     0.63519   0.98059   0.89201   0.00000  Uiso   1.00
O270   O     0.00469   0.75439   0.16740   0.00000  Uiso   1.00
N271   N     0.52165   0.97317   0.33970   0.00000  Uiso   1.00
N272   N     0.69528   0.95314   0.97494   0.00000  Uiso   1.00
N273   N     0.24599   0.79195   0.17116   0.00000  Uiso   1.00
N274   N     0.23396   0.99011   0.32472   0.00000  Uiso   1.00
N275   N     0.40759   0.97009   0.95996   0.00000  Uiso   1.00
N276   N     0.95830   0.80889   0.15618   0.00000  Uiso   1.00
C277   C     0.01294   0.09541   0.33672   0.00000  Uiso   1.00
C278   C     0.94502   0.07237   0.29175   0.00000  Uiso   1.00
C279   C     0.04818   0.06244   0.24561   0.00000  Uiso   1.00
C280   C     0.96098   0.04127   0.20932   0.00000  Uiso   1.00
C281   C     0.88351   0.00714   0.13806   0.00000  Uiso   1.00
C282   C     0.99288   0.07789   0.39228   0.00000  Uiso   1.00
C283   C     0.13629   0.07260   0.43066   0.00000  Uiso   1.00
C284   C     0.08936   0.05607   0.47901   0.00000  Uiso   1.00
C285   C     0.08617   0.03052   0.56384   0.00000  Uiso   1.00
C286   C     0.86906   0.12231   0.33819   0.00000  Uiso   1.00
C287   C     0.90835   0.15437   0.33111   0.00000  Uiso   1.00
C288   C     0.75717   0.17525   0.33393   0.00000  Uiso   1.00
C289   C     0.56173   0.21867   0.33478   0.00000  Uiso   1.00
C290   C     0.67461   0.07548   0.35434   0.00000  Uiso   1.00
C291   C     0.76126   0.06155   0.30133   0.00000  Uiso   1.00
C292   C     0.67386   0.04039   0.26510   0.00000  Uiso   1.00
C293   C     0.77688   0.03043   0.21891   0.00000  Uiso   1.00
C294   C     0.80913   0.06706   0.40185   0.00000  Uiso   1.00
C295   C     0.76197   0.05055   0.45016   0.00000  Uiso   1.00
C296   C     0.90526   0.04523   0.48860   0.00000  Uiso   1.00
C297   C     0.68529   0.11149   0.34776   0.00000  Uiso   1.00
C298   C     0.53403   0.13232   0.35060   0.00000  Uiso   1.00
C299   C     0.57308   0.16441   0.34352   0.00000  Uiso   1.00
H300   H     0.15601   0.10384   0.32927   0.00000  Uiso   1.00
H301   H     0.19040   0.07082   0.23822   0.00000  Uiso   1.00
H302   H     0.27848   0.08098   0.42325   0.00000  Uiso   1.00
H303   H     0.05057   0.16274   0.32371   0.00000  Uiso   1.00
H304   H     0.14751   0.02943   0.14150   0.00000  Uiso   1.00
H305   H     0.33322   0.05086   0.53165   0.00000  Uiso   1.00
H306   H     0.85264   0.22327   0.32176   0.00000  Uiso   1.00
H307   H     0.53154   0.06705   0.36179   0.00000  Uiso   1.00
H308   H     0.53166   0.03202   0.27252   0.00000  Uiso   1.00
H309   H     0.61974   0.04217   0.45755   0.00000  Uiso   1.00
H310   H     0.39184   0.12394   0.35801   0.00000  Uiso   1.00
H311   H     0.61286   0.99794   0.16934   0.00000  Uiso   1.00
H312   H     0.79857   0.01936   0.55950   0.00000  Uiso   1.00
H313   H     0.31799   0.19178   0.34960   0.00000  Uiso   1.00
O314   O     0.89156   0.99129   0.09612   0.00000  Uiso   1.00
O315   O     0.13519   0.01941   0.60799   0.00000  Uiso   1.00
O316   O     0.50469   0.24561   0.33260   0.00000  Uiso   1.00
N317   N     0.02165   0.02683   0.16030   0.00000  Uiso   1.00
N318   N     0.19528   0.04686   0.52506   0.00000  Uiso   1.00
N319   N     0.74599   0.20805   0.32884   0.00000  Uiso   1.00
N320   N     0.73396   0.00989   0.17528   0.00000  Uiso   1.00
N321   N     0.90759   0.02991   0.54004   0.00000  Uiso   1.00
N322   N     0.45830   0.19111   0.34382   0.00000  Uiso   1.00
C323   C     0.48706   0.40459   0.33672   0.00000  Uiso   1.00
C324   C     0.55498   0.42763   0.29175   0.00000  Uiso   1.00
C325   C     0.45182   0.43756   0.24561   0.00000  Uiso   1.00
C326   C     0.53902   0.45873   0.20932   0.00000  Uiso   1.00
C327   C     0.61649   0.49286   0.13806   0.00000  Uiso   1.00
C328   C     0.50712   0.42211   0.39228   0.00000  Uiso   1.00
C329   C     0.36371   0.42740   0.43066   0.00000  Uiso   1.00
C330   C     0.41064   0.44393   0.47901   0.00000  Uiso   1.00
C331   C     0.41383   0.46948   0.56384   0.00000  Uiso   1.00
C332   C     0.63094   0.37769   0.33819   0.00000  Uiso   1.00
C333   C     0.59165   0.34563   0.33111   0.00000  Uiso   1.00
C334   C     0.74283   0.32475   0.33393   0.00000  Uiso   1.00
C335   C     0.93827   0.28133   0.33478   0.00000  Uiso   1.00
C336   C     0.82539   0.42452   0.35434   0.00000  Uiso   1.00
C337   C     0.73874   0.43845   0.30133   0.00000  Uiso   1.00
C338   C     0.82614   0.45961   0.26510   0.00000  Uiso   1.00
C339   C     0.72312   0.46957   0.21891   0.00000  Uiso   1.00
C340   C     0.69087   0.43294   0.40185   0.00000  Uiso   1.00
C341   C     0.73803   0.44945   0.45016   0.00000  Uiso   1.00
C342   C     0.59474   0.45477   0.48860   0.00000  Uiso   1.00
C343   C     0.81471   0.38851   0.34776   0.00000  Uiso   1.00
C344   C     0.96597   0.36768   0.35060   0.00000  Uiso   1.00
C345   C     0.92692   0.33559   0.34352   0.00000  Uiso   1.00
H346   H     0.34399   0.39616   0.32927   0.00000  Uiso   1.00
H347   H     0.30960   0.42918   0.23822   0.00000  Uiso   1.00
H348   H     0.22152   0.41902   0.42325   0.00000  Uiso   1.00
H349   H     0.44943   0.33726   0.32371   0.00000  Uiso   1.00
H350   H     0.35249   0.47057   0.14150   0.00000  Uiso   1.00
H351   H     0.16678   0.44914   0.53165   0.00000  Uiso   1.00
H352   H     0.64736   0.27673   0.32176   0.00000  Uiso   1.00
H353   H     0.96846   0.43295   0.36179   0.00000  Uiso   1.00
H354   H     0.96834   0.46798   0.27252   0.00000  Uiso   1.00
H355   H     0.88026   0.45783   0.45755   0.00000  Uiso   1.00
H356   H     0.10816   0.37606   0.35801   0.00000  Uiso   1.00
H357   H     0.88714   0.50206   0.16934   0.00000  Uiso   1.00
H358   H     0.70143   0.48064   0.55950   0.00000  Uiso   1.00
H359   H     0.18201   0.30822   0.34960   0.00000  Uiso   1.00
O360   O     0.60844   0.50871   0.09612   0.00000  Uiso   1.00
O361   O     0.36481   0.48059   0.60799   0.00000  Uiso   1.00
O362   O     0.99531   0.25439   0.33260   0.00000  Uiso   1.00
N363   N     0.47835   0.47317   0.16030   0.00000  Uiso   1.00
N364   N     0.30472   0.45314   0.52506   0.00000  Uiso   1.00
N365   N     0.75401   0.29195   0.32884   0.00000  Uiso   1.00
N366   N     0.76604   0.49011   0.17528   0.00000  Uiso   1.00
N367   N     0.59241   0.47009   0.54004   0.00000  Uiso   1.00
N368   N     0.04170   0.30889   0.34382   0.00000  Uiso   1.00
