data_job_06972
_audit_creation_date              2018-12-19
_audit_creation_method            'Materials Studio'
_symmetry_space_group_name_H-M    'P1'
_symmetry_Int_Tables_number       1
_symmetry_cell_setting            triclinic
loop_
_symmetry_equiv_pos_as_xyz
  x,y,z
_cell_length_a                    21.6492
_cell_length_b                    23.6812
_cell_length_c                    23.9638
_cell_angle_alpha                 119.0932
_cell_angle_beta                  101.1986
_cell_angle_gamma                 67.6502
loop_
_atom_site_label
_atom_site_type_symbol
_atom_site_fract_x
_atom_site_fract_y
_atom_site_fract_z
_atom_site_U_iso_or_equiv
_atom_site_adp_type
_atom_site_occupancy
C1     C     0.51506   0.03696   0.25687   0.00000  Uiso   1.00
C2     C     0.55209   0.96151   0.23949   0.00000  Uiso   1.00
C3     C     0.55461   0.92963   0.27592   0.00000  Uiso   1.00
C4     C     0.59115   0.86020   0.25173   0.00000  Uiso   1.00
C5     C     0.64368   0.74855   0.23367   0.00000  Uiso   1.00
C6     C     0.56708   0.06552   0.25610   0.00000  Uiso   1.00
C7     C     0.58219   0.12111   0.30649   0.00000  Uiso   1.00
C8     C     0.63135   0.13923   0.29627   0.00000  Uiso   1.00
C9     C     0.70711   0.18911   0.30397   0.00000  Uiso   1.00
C10    C     0.46744   0.03819   0.20118   0.00000  Uiso   1.00
C11    C     0.39877   0.07081   0.20540   0.00000  Uiso   1.00
C12    C     0.36404   0.06594   0.14894   0.00000  Uiso   1.00
C13    C     0.28509   0.07337   0.07138   0.00000  Uiso   1.00
C14    C     0.57549   0.97033   0.14913   0.00000  Uiso   1.00
C15    C     0.58491   0.92532   0.18097   0.00000  Uiso   1.00
C16    C     0.62146   0.85591   0.15672   0.00000  Uiso   1.00
C17    C     0.62403   0.82394   0.19310   0.00000  Uiso   1.00
C18    C     0.59990   0.02933   0.19758   0.00000  Uiso   1.00
C19    C     0.64905   0.04739   0.18728   0.00000  Uiso   1.00
C20    C     0.66423   0.10298   0.23764   0.00000  Uiso   1.00
C21    C     0.50026   0.00200   0.14266   0.00000  Uiso   1.00
C22    C     0.46562   0.99708   0.08619   0.00000  Uiso   1.00
C23    C     0.39692   0.02968   0.09032   0.00000  Uiso   1.00
H24    H     0.48951   0.06514   0.30243   0.00000  Uiso   1.00
H25    H     0.52921   0.95766   0.32121   0.00000  Uiso   1.00
H26    H     0.55678   0.14911   0.35177   0.00000  Uiso   1.00
H27    H     0.37339   0.09881   0.25069   0.00000  Uiso   1.00
H28    H     0.58771   0.82255   0.31624   0.00000  Uiso   1.00
H29    H     0.64583   0.22624   0.38066   0.00000  Uiso   1.00
H30    H     0.25911   0.12018   0.16752   0.00000  Uiso   1.00
H31    H     0.60104   0.94215   0.10356   0.00000  Uiso   1.00
H32    H     0.64686   0.82792   0.11143   0.00000  Uiso   1.00
H33    H     0.67443   0.01937   0.14199   0.00000  Uiso   1.00
H34    H     0.49104   0.96907   0.04091   0.00000  Uiso   1.00
H35    H     0.68320   0.71724   0.14597   0.00000  Uiso   1.00
H36    H     0.74132   0.12094   0.21040   0.00000  Uiso   1.00
H37    H     0.35460   0.01488   0.99726   0.00000  Uiso   1.00
O38    O     0.66360   0.69697   0.23988   0.00000  Uiso   1.00
O39    O     0.73984   0.22661   0.32439   0.00000  Uiso   1.00
O40    O     0.23248   0.08746   0.04477   0.00000  Uiso   1.00
N41    N     0.60388   0.81344   0.27508   0.00000  Uiso   1.00
N42    N     0.65823   0.19086   0.33531   0.00000  Uiso   1.00
N43    N     0.29668   0.09172   0.13605   0.00000  Uiso   1.00
N44    N     0.65527   0.75677   0.18346   0.00000  Uiso   1.00
N45    N     0.70962   0.13419   0.24370   0.00000  Uiso   1.00
N46    N     0.34807   0.03506   0.04443   0.00000  Uiso   1.00
C47    C     0.21138   0.40152   0.54247   0.00000  Uiso   1.00
C48    C     0.19541   0.38184   0.58852   0.00000  Uiso   1.00
C49    C     0.24044   0.36099   0.63018   0.00000  Uiso   1.00
C50    C     0.21604   0.34522   0.66839   0.00000  Uiso   1.00
C51    C     0.20144   0.31389   0.74039   0.00000  Uiso   1.00
C52    C     0.19084   0.35508   0.47626   0.00000  Uiso   1.00
C53    C     0.23204   0.31174   0.42352   0.00000  Uiso   1.00
C54    C     0.20379   0.27346   0.36723   0.00000  Uiso   1.00
C55    C     0.18209   0.20062   0.26492   0.00000  Uiso   1.00
C56    C     0.16332   0.47384   0.55837   0.00000  Uiso   1.00
C57    C     0.18136   0.53034   0.57465   0.00000  Uiso   1.00
C58    C     0.12993   0.59204   0.58747   0.00000  Uiso   1.00
C59    C     0.06549   0.70358   0.61265   0.00000  Uiso   1.00
C60    C     0.08796   0.41060   0.53626   0.00000  Uiso   1.00
C61    C     0.12837   0.38677   0.58515   0.00000  Uiso   1.00
C62    C     0.10389   0.37104   0.62331   0.00000  Uiso   1.00
C63    C     0.14888   0.35017   0.66502   0.00000  Uiso   1.00
C64    C     0.12381   0.36001   0.47289   0.00000  Uiso   1.00
C65    C     0.09549   0.32179   0.41666   0.00000  Uiso   1.00
C66    C     0.13663   0.27840   0.36385   0.00000  Uiso   1.00
C67    C     0.09628   0.47877   0.55500   0.00000  Uiso   1.00
C68    C     0.04481   0.54039   0.56779   0.00000  Uiso   1.00
C69    C     0.06277   0.59698   0.58409   0.00000  Uiso   1.00
H70    H     0.26357   0.39767   0.54509   0.00000  Uiso   1.00
H71    H     0.29232   0.35717   0.63277   0.00000  Uiso   1.00
H72    H     0.28391   0.30794   0.42614   0.00000  Uiso   1.00
H73    H     0.23324   0.52651   0.57725   0.00000  Uiso   1.00
H74    H     0.29463   0.31442   0.72847   0.00000  Uiso   1.00
H75    H     0.27690   0.21063   0.29279   0.00000  Uiso   1.00
H76    H     0.17006   0.67152   0.61143   0.00000  Uiso   1.00
H77    H     0.03577   0.41444   0.53364   0.00000  Uiso   1.00
H78    H     0.05201   0.37486   0.62069   0.00000  Uiso   1.00
H79    H     0.04361   0.32562   0.41407   0.00000  Uiso   1.00
H80    H     0.99294   0.54419   0.56518   0.00000  Uiso   1.00
H81    H     0.09959   0.32877   0.71867   0.00000  Uiso   1.00
H82    H     0.08186   0.22498   0.28298   0.00000  Uiso   1.00
H83    H     0.97501   0.68587   0.60163   0.00000  Uiso   1.00
O84    O     0.21191   0.29524   0.78103   0.00000  Uiso   1.00
O85    O     0.18864   0.15908   0.20943   0.00000  Uiso   1.00
O86    O     0.04847   0.76375   0.62748   0.00000  Uiso   1.00
N87    N     0.24650   0.32325   0.71423   0.00000  Uiso   1.00
N88    N     0.22992   0.22620   0.30689   0.00000  Uiso   1.00
N89    N     0.13003   0.65709   0.60478   0.00000  Uiso   1.00
N90    N     0.14154   0.33097   0.70895   0.00000  Uiso   1.00
N91    N     0.12497   0.23392   0.30162   0.00000  Uiso   1.00
N92    N     0.02508   0.66481   0.59951   0.00000  Uiso   1.00
C93    C     0.54324   0.37009   0.55549   0.00000  Uiso   1.00
C94    C     0.52946   0.33867   0.59222   0.00000  Uiso   1.00
C95    C     0.57403   0.28324   0.60104   0.00000  Uiso   1.00
C96    C     0.55189   0.26221   0.63608   0.00000  Uiso   1.00
C97    C     0.54028   0.20834   0.68924   0.00000  Uiso   1.00
C98    C     0.48877   0.36785   0.50420   0.00000  Uiso   1.00
C99    C     0.49915   0.33696   0.43901   0.00000  Uiso   1.00
C100   C     0.44276   0.34050   0.39996   0.00000  Uiso   1.00
C101   C     0.36798   0.33197   0.31646   0.00000  Uiso   1.00
C102   C     0.53022   0.44571   0.60197   0.00000  Uiso   1.00
C103   C     0.57544   0.48031   0.61897   0.00000  Uiso   1.00
C104   C     0.55395   0.54942   0.66222   0.00000  Uiso   1.00
C105   C     0.54352   0.66179   0.73052   0.00000  Uiso   1.00
C106   C     0.42465   0.43131   0.60206   0.00000  Uiso   1.00
C107   C     0.46504   0.37192   0.61751   0.00000  Uiso   1.00
C108   C     0.44283   0.35097   0.65256   0.00000  Uiso   1.00
C109   C     0.48737   0.29553   0.66143   0.00000  Uiso   1.00
C110   C     0.42436   0.40110   0.52949   0.00000  Uiso   1.00
C111   C     0.36794   0.40469   0.49053   0.00000  Uiso   1.00
C112   C     0.37823   0.37382   0.42530   0.00000  Uiso   1.00
C113   C     0.46581   0.47897   0.62726   0.00000  Uiso   1.00
C114   C     0.44423   0.54804   0.67049   0.00000  Uiso   1.00
C115   C     0.48941   0.58273   0.68756   0.00000  Uiso   1.00
H116   H     0.59339   0.34421   0.53580   0.00000  Uiso   1.00
H117   H     0.62388   0.25752   0.58145   0.00000  Uiso   1.00
H118   H     0.54900   0.31124   0.41945   0.00000  Uiso   1.00
H119   H     0.62529   0.45456   0.59938   0.00000  Uiso   1.00
H120   H     0.62927   0.17606   0.64320   0.00000  Uiso   1.00
H121   H     0.47139   0.28935   0.30161   0.00000  Uiso   1.00
H122   H     0.63225   0.59157   0.68104   0.00000  Uiso   1.00
H123   H     0.37450   0.45720   0.62175   0.00000  Uiso   1.00
H124   H     0.39297   0.37672   0.67212   0.00000  Uiso   1.00
H125   H     0.31810   0.43043   0.51012   0.00000  Uiso   1.00
H126   H     0.39438   0.57375   0.69005   0.00000  Uiso   1.00
H127   H     0.44186   0.27280   0.71679   0.00000  Uiso   1.00
H128   H     0.28398   0.38609   0.37520   0.00000  Uiso   1.00
H129   H     0.44483   0.68831   0.75463   0.00000  Uiso   1.00
O130   O     0.55166   0.16943   0.71156   0.00000  Uiso   1.00
O131   O     0.34453   0.31807   0.26342   0.00000  Uiso   1.00
O132   O     0.55557   0.71458   0.76121   0.00000  Uiso   1.00
N133   N     0.58263   0.20988   0.65362   0.00000  Uiso   1.00
N134   N     0.43502   0.31579   0.33425   0.00000  Uiso   1.00
N135   N     0.58540   0.59835   0.68897   0.00000  Uiso   1.00
N136   N     0.48178   0.26194   0.69322   0.00000  Uiso   1.00
N137   N     0.33418   0.36785   0.37385   0.00000  Uiso   1.00
N138   N     0.48456   0.65040   0.72857   0.00000  Uiso   1.00
C139   C     0.55031   0.37995   0.04409   0.00000  Uiso   1.00
C140   C     0.59127   0.33841   0.07942   0.00000  Uiso   1.00
C141   C     0.62565   0.26842   0.05129   0.00000  Uiso   1.00
C142   C     0.66015   0.24002   0.09187   0.00000  Uiso   1.00
C143   C     0.72375   0.16941   0.13664   0.00000  Uiso   1.00
C144   C     0.57934   0.43671   0.06441   0.00000  Uiso   1.00
C145   C     0.60368   0.44936   0.02365   0.00000  Uiso   1.00
C146   C     0.62812   0.50372   0.05160   0.00000  Uiso   1.00
C147   C     0.67316   0.58575   0.07306   0.00000  Uiso   1.00
C148   C     0.48043   0.41547   0.07212   0.00000  Uiso   1.00
C149   C     0.42160   0.41029   0.03785   0.00000  Uiso   1.00
C150   C     0.36277   0.44678   0.07229   0.00000  Uiso   1.00
C151   C     0.25424   0.49583   0.10572   0.00000  Uiso   1.00
C152   C     0.55043   0.45399   0.16620   0.00000  Uiso   1.00
C153   C     0.59133   0.37863   0.14574   0.00000  Uiso   1.00
C154   C     0.62578   0.35033   0.18638   0.00000  Uiso   1.00
C155   C     0.66021   0.28031   0.15831   0.00000  Uiso   1.00
C156   C     0.57940   0.47692   0.13073   0.00000  Uiso   1.00
C157   C     0.60381   0.53128   0.15875   0.00000  Uiso   1.00
C158   C     0.62819   0.54401   0.11805   0.00000  Uiso   1.00
C159   C     0.48049   0.45569   0.13844   0.00000  Uiso   1.00
C160   C     0.42174   0.49220   0.17294   0.00000  Uiso   1.00
C161   C     0.36284   0.48707   0.13873   0.00000  Uiso   1.00
H162   H     0.55026   0.34864   0.99246   0.00000  Uiso   1.00
H163   H     0.62559   0.23731   0.99996   0.00000  Uiso   1.00
H164   H     0.60361   0.41823   0.97233   0.00000  Uiso   1.00
H165   H     0.42157   0.37916   0.98652   0.00000  Uiso   1.00
H166   H     0.70916   0.13162   0.03752   0.00000  Uiso   1.00
H167   H     0.66280   0.51312   0.97927   0.00000  Uiso   1.00
H168   H     0.27892   0.43073   0.00919   0.00000  Uiso   1.00
H169   H     0.55048   0.48530   0.21783   0.00000  Uiso   1.00
H170   H     0.62582   0.38147   0.23770   0.00000  Uiso   1.00
H171   H     0.60385   0.56239   0.21007   0.00000  Uiso   1.00
H172   H     0.42181   0.52332   0.22427   0.00000  Uiso   1.00
H173   H     0.70935   0.24863   0.23048   0.00000  Uiso   1.00
H174   H     0.66299   0.63013   0.17223   0.00000  Uiso   1.00
H175   H     0.27911   0.54773   0.20216   0.00000  Uiso   1.00
O176   O     0.75883   0.11936   0.14300   0.00000  Uiso   1.00
O177   O     0.69799   0.61988   0.06657   0.00000  Uiso   1.00
O178   O     0.19436   0.51178   0.10584   0.00000  Uiso   1.00
N179   N     0.69885   0.17341   0.08021   0.00000  Uiso   1.00
N180   N     0.65552   0.53008   0.02574   0.00000  Uiso   1.00
N181   N     0.29662   0.45306   0.05372   0.00000  Uiso   1.00
N182   N     0.69895   0.23637   0.18404   0.00000  Uiso   1.00
N183   N     0.65562   0.59304   0.12958   0.00000  Uiso   1.00
N184   N     0.29673   0.51602   0.15755   0.00000  Uiso   1.00
C185   C     0.92797   0.15186   0.85334   0.00000  Uiso   1.00
C186   C     0.96388   0.07472   0.82610   0.00000  Uiso   1.00
C187   C     0.00892   0.04115   0.85901   0.00000  Uiso   1.00
C188   C     0.03637   0.97034   0.82562   0.00000  Uiso   1.00
C189   C     0.09470   0.85600   0.79306   0.00000  Uiso   1.00
C190   C     0.85354   0.16176   0.84349   0.00000  Uiso   1.00
C191   C     0.80581   0.20139   0.89102   0.00000  Uiso   1.00
C192   C     0.74037   0.20386   0.87226   0.00000  Uiso   1.00
C193   C     0.62739   0.22471   0.86671   0.00000  Uiso   1.00
C194   C     0.94499   0.17383   0.80969   0.00000  Uiso   1.00
C195   C     0.97412   0.22362   0.82880   0.00000  Uiso   1.00
C196   C     0.98566   0.23625   0.78158   0.00000  Uiso   1.00
C197   C     0.01466   0.27584   0.72354   0.00000  Uiso   1.00
C198   C     0.89662   0.08579   0.73552   0.00000  Uiso   1.00
C199   C     0.94686   0.03883   0.76210   0.00000  Uiso   1.00
C200   C     0.97424   0.96805   0.72865   0.00000  Uiso   1.00
C201   C     0.01932   0.93438   0.76150   0.00000  Uiso   1.00
C202   C     0.83652   0.12588   0.77950   0.00000  Uiso   1.00
C203   C     0.77113   0.12829   0.76066   0.00000  Uiso   1.00
C204   C     0.72331   0.16791   0.80815   0.00000  Uiso   1.00
C205   C     0.92797   0.13794   0.74569   0.00000  Uiso   1.00
C206   C     0.93945   0.15051   0.69844   0.00000  Uiso   1.00
C207   C     0.96860   0.20030   0.71747   0.00000  Uiso   1.00
H208   H     0.94121   0.17981   0.90316   0.00000  Uiso   1.00
H209   H     0.02208   0.06894   0.90853   0.00000  Uiso   1.00
H210   H     0.81900   0.22917   0.94054   0.00000  Uiso   1.00
H211   H     0.98729   0.25138   0.87832   0.00000  Uiso   1.00
H212   H     0.10420   0.93020   0.88627   0.00000  Uiso   1.00
H213   H     0.67599   0.26805   0.95376   0.00000  Uiso   1.00
H214   H     0.03087   0.31490   0.82256   0.00000  Uiso   1.00
H215   H     0.88337   0.05785   0.68569   0.00000  Uiso   1.00
H216   H     0.96106   0.94029   0.67913   0.00000  Uiso   1.00
H217   H     0.75798   0.10051   0.71114   0.00000  Uiso   1.00
H218   H     0.92627   0.12273   0.64892   0.00000  Uiso   1.00
H219   H     0.05467   0.82578   0.70008   0.00000  Uiso   1.00
H220   H     0.62647   0.16364   0.76756   0.00000  Uiso   1.00
H221   H     0.98135   0.21048   0.63637   0.00000  Uiso   1.00
O222   O     0.13157   0.80285   0.79279   0.00000  Uiso   1.00
O223   O     0.56978   0.24612   0.88132   0.00000  Uiso   1.00
O224   O     0.03537   0.30758   0.70920   0.00000  Uiso   1.00
N225   N     0.08189   0.92176   0.84335   0.00000  Uiso   1.00
N226   N     0.68155   0.23763   0.90644   0.00000  Uiso   1.00
N227   N     0.01331   0.28144   0.78379   0.00000  Uiso   1.00
N228   N     0.05524   0.86557   0.74316   0.00000  Uiso   1.00
N229   N     0.65490   0.18144   0.80625   0.00000  Uiso   1.00
N230   N     0.98666   0.22525   0.68360   0.00000  Uiso   1.00
C231   C     0.83563   0.38318   0.06341   0.00000  Uiso   1.00
C232   C     0.89436   0.32295   0.06575   0.00000  Uiso   1.00
C233   C     0.88983   0.26903   0.07138   0.00000  Uiso   1.00
C234   C     0.94939   0.21893   0.07265   0.00000  Uiso   1.00
C235   C     0.03119   0.12482   0.07689   0.00000  Uiso   1.00
C236   C     0.84290   0.38367   0.00163   0.00000  Uiso   1.00
C237   C     0.79509   0.38082   0.95335   0.00000  Uiso   1.00
C238   C     0.81133   0.38184   0.90065   0.00000  Uiso   1.00
C239   C     0.81320   0.38205   0.80537   0.00000  Uiso   1.00
C240   C     0.84762   0.44764   0.11753   0.00000  Uiso   1.00
C241   C     0.80377   0.49860   0.16669   0.00000  Uiso   1.00
C242   C     0.82397   0.55350   0.21156   0.00000  Uiso   1.00
C243   C     0.83318   0.65304   0.29623   0.00000  Uiso   1.00
C244   C     0.94946   0.39007   0.05565   0.00000  Uiso   1.00
C245   C     0.95619   0.32669   0.06153   0.00000  Uiso   1.00
C246   C     0.01577   0.27666   0.06280   0.00000  Uiso   1.00
C247   C     0.01133   0.22268   0.06843   0.00000  Uiso   1.00
C248   C     0.90472   0.38741   0.99741   0.00000  Uiso   1.00
C249   C     0.92103   0.38844   0.94477   0.00000  Uiso   1.00
C250   C     0.87326   0.38559   0.89643   0.00000  Uiso   1.00
C251   C     0.90945   0.45139   0.11331   0.00000  Uiso   1.00
C252   C     0.92972   0.50622   0.15811   0.00000  Uiso   1.00
C253   C     0.88591   0.55725   0.20734   0.00000  Uiso   1.00
H254   H     0.78749   0.38026   0.06668   0.00000  Uiso   1.00
H255   H     0.84198   0.26615   0.07463   0.00000  Uiso   1.00
H256   H     0.74725   0.37792   0.95663   0.00000  Uiso   1.00
H257   H     0.75593   0.49568   0.16994   0.00000  Uiso   1.00
H258   H     0.92965   0.14127   0.08157   0.00000  Uiso   1.00
H259   H     0.72990   0.37698   0.83276   0.00000  Uiso   1.00
H260   H     0.74821   0.62530   0.28256   0.00000  Uiso   1.00
H261   H     0.99759   0.39299   0.05237   0.00000  Uiso   1.00
H262   H     0.06361   0.27957   0.05954   0.00000  Uiso   1.00
H263   H     0.96888   0.39135   0.94153   0.00000  Uiso   1.00
H264   H     0.97756   0.50911   0.15484   0.00000  Uiso   1.00
H265   H     0.10954   0.15216   0.06931   0.00000  Uiso   1.00
H266   H     0.90979   0.38787   0.82050   0.00000  Uiso   1.00
H267   H     0.92810   0.63619   0.27030   0.00000  Uiso   1.00
O268   O     0.05923   0.07187   0.08039   0.00000  Uiso   1.00
O269   O     0.79716   0.38112   0.75397   0.00000  Uiso   1.00
O270   O     0.82118   0.70690   0.34410   0.00000  Uiso   1.00
N271   N     0.96293   0.15941   0.07771   0.00000  Uiso   1.00
N272   N     0.77618   0.37977   0.84508   0.00000  Uiso   1.00
N273   N     0.79329   0.61194   0.26560   0.00000  Uiso   1.00
N274   N     0.05972   0.16527   0.07112   0.00000  Uiso   1.00
N275   N     0.87297   0.38563   0.83849   0.00000  Uiso   1.00
N276   N     0.89008   0.61780   0.25901   0.00000  Uiso   1.00
C277   C     0.49057   0.06053   0.90843   0.00000  Uiso   1.00
C278   C     0.45204   0.10855   0.87882   0.00000  Uiso   1.00
C279   C     0.47826   0.12020   0.83846   0.00000  Uiso   1.00
C280   C     0.43484   0.16599   0.81642   0.00000  Uiso   1.00
C281   C     0.38524   0.23551   0.76773   0.00000  Uiso   1.00
C282   C     0.45313   0.01036   0.88842   0.00000  Uiso   1.00
C283   C     0.48028   0.93946   0.85613   0.00000  Uiso   1.00
C284   C     0.43777   0.90261   0.84217   0.00000  Uiso   1.00
C285   C     0.38987   0.81970   0.80841   0.00000  Uiso   1.00
C286   C     0.48172   0.10422   0.98042   0.00000  Uiso   1.00
C287   C     0.53290   0.11222   0.02550   0.00000  Uiso   1.00
C288   C     0.51446   0.15438   0.08901   0.00000  Uiso   1.00
C289   C     0.51095   0.21720   0.19810   0.00000  Uiso   1.00
C290   C     0.36682   0.12116   0.94108   0.00000  Uiso   1.00
C291   C     0.38482   0.14147   0.89656   0.00000  Uiso   1.00
C292   C     0.34135   0.18727   0.87458   0.00000  Uiso   1.00
C293   C     0.36750   0.19899   0.83419   0.00000  Uiso   1.00
C294   C     0.38592   0.04329   0.90615   0.00000  Uiso   1.00
C295   C     0.34336   0.00654   0.89225   0.00000  Uiso   1.00
C296   C     0.37043   0.93560   0.85994   0.00000  Uiso   1.00
C297   C     0.41450   0.13715   0.99816   0.00000  Uiso   1.00
C298   C     0.39598   0.17930   0.06161   0.00000  Uiso   1.00
C299   C     0.44712   0.18737   0.10677   0.00000  Uiso   1.00
H300   H     0.54290   0.03489   0.89463   0.00000  Uiso   1.00
H301   H     0.53029   0.09470   0.82474   0.00000  Uiso   1.00
H302   H     0.53230   0.91399   0.84241   0.00000  Uiso   1.00
H303   H     0.58491   0.08673   0.01175   0.00000  Uiso   1.00
H304   H     0.48665   0.17550   0.75507   0.00000  Uiso   1.00
H305   H     0.49090   0.79448   0.79235   0.00000  Uiso   1.00
H306   H     0.60185   0.15874   0.14944   0.00000  Uiso   1.00
H307   H     0.31448   0.14679   0.95489   0.00000  Uiso   1.00
H308   H     0.28933   0.21275   0.88831   0.00000  Uiso   1.00
H309   H     0.29135   0.03204   0.90598   0.00000  Uiso   1.00
H310   H     0.34396   0.20478   0.07532   0.00000  Uiso   1.00
H311   H     0.29109   0.27131   0.80666   0.00000  Uiso   1.00
H312   H     0.29534   0.89029   0.84394   0.00000  Uiso   1.00
H313   H     0.40629   0.25454   0.20103   0.00000  Uiso   1.00
O314   O     0.37644   0.26476   0.73596   0.00000  Uiso   1.00
O315   O     0.38202   0.76487   0.78488   0.00000  Uiso   1.00
O316   O     0.52758   0.24276   0.25337   0.00000  Uiso   1.00
N317   N     0.44408   0.18901   0.77635   0.00000  Uiso   1.00
N318   N     0.44805   0.83278   0.81120   0.00000  Uiso   1.00
N319   N     0.55178   0.17331   0.14505   0.00000  Uiso   1.00
N320   N     0.33885   0.24057   0.80412   0.00000  Uiso   1.00
N321   N     0.34282   0.88433   0.83896   0.00000  Uiso   1.00
N322   N     0.44655   0.22487   0.17281   0.00000  Uiso   1.00
C323   C     0.69930   0.91877   0.60675   0.00000  Uiso   1.00
C324   C     0.71183   0.96101   0.58102   0.00000  Uiso   1.00
C325   C     0.66549   0.99467   0.54884   0.00000  Uiso   1.00
C326   C     0.68671   0.03059   0.52917   0.00000  Uiso   1.00
C327   C     0.69624   0.09588   0.48740   0.00000  Uiso   1.00
C328   C     0.71636   0.95013   0.67786   0.00000  Uiso   1.00
C329   C     0.67384   0.97463   0.72709   0.00000  Uiso   1.00
C330   C     0.69887   0.00137   0.78894   0.00000  Uiso   1.00
C331   C     0.71545   0.04972   0.89752   0.00000  Uiso   1.00
C332   C     0.75198   0.84788   0.57666   0.00000  Uiso   1.00
C333   C     0.73940   0.78640   0.54081   0.00000  Uiso   1.00
C334   C     0.79442   0.72706   0.51746   0.00000  Uiso   1.00
C335   C     0.86630   0.61665   0.46890   0.00000  Uiso   1.00
C336   C     0.81937   0.92270   0.62905   0.00000  Uiso   1.00
C337   C     0.77705   0.96315   0.59314   0.00000  Uiso   1.00
C338   C     0.79834   0.99902   0.57351   0.00000  Uiso   1.00
C339   C     0.75204   0.03273   0.54130   0.00000  Uiso   1.00
C340   C     0.78158   0.95226   0.68998   0.00000  Uiso   1.00
C341   C     0.80668   0.97898   0.75177   0.00000  Uiso   1.00
C342   C     0.76420   0.00351   0.80108   0.00000  Uiso   1.00
C343   C     0.81720   0.85001   0.58877   0.00000  Uiso   1.00
C344   C     0.87225   0.79075   0.56548   0.00000  Uiso   1.00
C345   C     0.85975   0.72920   0.52960   0.00000  Uiso   1.00
H346   H     0.64852   0.91711   0.59732   0.00000  Uiso   1.00
H347   H     0.61502   0.99301   0.53948   0.00000  Uiso   1.00
H348   H     0.62337   0.97296   0.71770   0.00000  Uiso   1.00
H349   H     0.68892   0.78477   0.53144   0.00000  Uiso   1.00
H350   H     0.60664   0.07812   0.48070   0.00000  Uiso   1.00
H351   H     0.62425   0.03583   0.85651   0.00000  Uiso   1.00
H352   H     0.76248   0.63899   0.46374   0.00000  Uiso   1.00
H353   H     0.87015   0.92437   0.63849   0.00000  Uiso   1.00
H354   H     0.84881   0.00066   0.58289   0.00000  Uiso   1.00
H355   H     0.85716   0.98062   0.76112   0.00000  Uiso   1.00
H356   H     0.92271   0.79242   0.57486   0.00000  Uiso   1.00
H357   H     0.79639   0.08434   0.51594   0.00000  Uiso   1.00
H358   H     0.81400   0.04204   0.89175   0.00000  Uiso   1.00
H359   H     0.95223   0.64520   0.49898   0.00000  Uiso   1.00
O360   O     0.68348   0.13131   0.46103   0.00000  Uiso   1.00
O361   O     0.70658   0.07580   0.95407   0.00000  Uiso   1.00
O362   O     0.88793   0.55516   0.43877   0.00000  Uiso   1.00
N363   N     0.65423   0.06910   0.49662   0.00000  Uiso   1.00
N364   N     0.67069   0.02957   0.84797   0.00000  Uiso   1.00
N365   N     0.79992   0.65855   0.48078   0.00000  Uiso   1.00
N366   N     0.75634   0.07245   0.51558   0.00000  Uiso   1.00
N367   N     0.77279   0.03291   0.86693   0.00000  Uiso   1.00
N368   N     0.90202   0.66190   0.49974   0.00000  Uiso   1.00
C369   C     0.56681   0.70839   0.59734   0.00000  Uiso   1.00
C370   C     0.56643   0.72502   0.54324   0.00000  Uiso   1.00
C371   C     0.56216   0.78816   0.55038   0.00000  Uiso   1.00
C372   C     0.56259   0.79294   0.49497   0.00000  Uiso   1.00
C373   C     0.56134   0.82732   0.42015   0.00000  Uiso   1.00
C374   C     0.63055   0.64797   0.58959   0.00000  Uiso   1.00
C375   C     0.68018   0.64632   0.63570   0.00000  Uiso   1.00
C376   C     0.73458   0.58623   0.61931   0.00000  Uiso   1.00
C377   C     0.83285   0.50097   0.61646   0.00000  Uiso   1.00
C378   C     0.50919   0.68106   0.58306   0.00000  Uiso   1.00
C379   C     0.45679   0.70723   0.62369   0.00000  Uiso   1.00
C380   C     0.40902   0.67499   0.60180   0.00000  Uiso   1.00
C381   C     0.31886   0.64112   0.58881   0.00000  Uiso   1.00
C382   C     0.57515   0.60460   0.48625   0.00000  Uiso   1.00
C383   C     0.57096   0.66864   0.48290   0.00000  Uiso   1.00
C384   C     0.57139   0.67332   0.42747   0.00000  Uiso   1.00
C385   C     0.56713   0.73646   0.43452   0.00000  Uiso   1.00
C386   C     0.63508   0.59159   0.52925   0.00000  Uiso   1.00
C387   C     0.68941   0.53149   0.51279   0.00000  Uiso   1.00
C388   C     0.73912   0.52975   0.55886   0.00000  Uiso   1.00
C389   C     0.51372   0.62469   0.52272   0.00000  Uiso   1.00
C390   C     0.46602   0.59240   0.50077   0.00000  Uiso   1.00
C391   C     0.41356   0.61851   0.54135   0.00000  Uiso   1.00
H392   H     0.56329   0.75228   0.64432   0.00000  Uiso   1.00
H393   H     0.55867   0.83177   0.59709   0.00000  Uiso   1.00
H394   H     0.67666   0.68996   0.68240   0.00000  Uiso   1.00
H395   H     0.45330   0.75086   0.67038   0.00000  Uiso   1.00
H396   H     0.55556   0.89504   0.51811   0.00000  Uiso   1.00
H397   H     0.80435   0.59600   0.69799   0.00000  Uiso   1.00
H398   H     0.33336   0.72442   0.67265   0.00000  Uiso   1.00
H399   H     0.57868   0.56071   0.43926   0.00000  Uiso   1.00
H400   H     0.57490   0.62969   0.38077   0.00000  Uiso   1.00
H401   H     0.69290   0.48787   0.46608   0.00000  Uiso   1.00
H402   H     0.46954   0.54877   0.45407   0.00000  Uiso   1.00
H403   H     0.56874   0.73101   0.34254   0.00000  Uiso   1.00
H404   H     0.81753   0.43198   0.52243   0.00000  Uiso   1.00
H405   H     0.34654   0.56040   0.49709   0.00000  Uiso   1.00
O406   O     0.55941   0.86185   0.39555   0.00000  Uiso   1.00
O407   O     0.88581   0.46953   0.63156   0.00000  Uiso   1.00
O408   O     0.26788   0.63802   0.59831   0.00000  Uiso   1.00
N409   N     0.55917   0.84697   0.48482   0.00000  Uiso   1.00
N410   N     0.79178   0.56739   0.65299   0.00000  Uiso   1.00
N411   N     0.35145   0.68745   0.62931   0.00000  Uiso   1.00
N412   N     0.56626   0.75871   0.39035   0.00000  Uiso   1.00
N413   N     0.79887   0.47913   0.55852   0.00000  Uiso   1.00
N414   N     0.35854   0.59919   0.53484   0.00000  Uiso   1.00
C415   C     0.19797   0.82390   0.21016   0.00000  Uiso   1.00
C416   C     0.18408   0.82981   0.14801   0.00000  Uiso   1.00
C417   C     0.15783   0.89053   0.14296   0.00000  Uiso   1.00
C418   C     0.14886   0.88506   0.08178   0.00000  Uiso   1.00
C419   C     0.12472   0.90397   0.99351   0.00000  Uiso   1.00
C420   C     0.15920   0.77964   0.20518   0.00000  Uiso   1.00
C421   C     0.11205   0.79817   0.24822   0.00000  Uiso   1.00
C422   C     0.08214   0.75046   0.23517   0.00000  Uiso   1.00
C423   C     0.01942   0.69146   0.23569   0.00000  Uiso   1.00
C424   C     0.27168   0.78159   0.20899   0.00000  Uiso   1.00
C425   C     0.31910   0.80175   0.25523   0.00000  Uiso   1.00
C426   C     0.38389   0.75567   0.24540   0.00000  Uiso   1.00
C427   C     0.49580   0.69970   0.25183   0.00000  Uiso   1.00
C428   C     0.22870   0.70622   0.11049   0.00000  Uiso   1.00
C429   C     0.20077   0.76589   0.09387   0.00000  Uiso   1.00
C430   C     0.19183   0.76033   0.03269   0.00000  Uiso   1.00
C431   C     0.16558   0.82103   0.02755   0.00000  Uiso   1.00
C432   C     0.17589   0.71573   0.15105   0.00000  Uiso   1.00
C433   C     0.14605   0.66798   0.13795   0.00000  Uiso   1.00
C434   C     0.09886   0.68643   0.18094   0.00000  Uiso   1.00
C435   C     0.28837   0.71767   0.15485   0.00000  Uiso   1.00
C436   C     0.35310   0.67155   0.14495   0.00000  Uiso   1.00
C437   C     0.40061   0.69164   0.19117   0.00000  Uiso   1.00
H438   H     0.18497   0.87366   0.25231   0.00000  Uiso   1.00
H439   H     0.14491   0.93998   0.18486   0.00000  Uiso   1.00
H440   H     0.09915   0.84764   0.29011   0.00000  Uiso   1.00
H441   H     0.30616   0.85121   0.29711   0.00000  Uiso   1.00
H442   H     0.10785   0.98533   0.08622   0.00000  Uiso   1.00
H443   H     0.01135   0.79060   0.30814   0.00000  Uiso   1.00
H444   H     0.44789   0.79815   0.32292   0.00000  Uiso   1.00
H445   H     0.24170   0.65645   0.06835   0.00000  Uiso   1.00
H446   H     0.20476   0.71086   0.99080   0.00000  Uiso   1.00
H447   H     0.15898   0.61852   0.09605   0.00000  Uiso   1.00
H448   H     0.36600   0.62209   0.10306   0.00000  Uiso   1.00
H449   H     0.15641   0.79937   0.92871   0.00000  Uiso   1.00
H450   H     0.05992   0.60464   0.15063   0.00000  Uiso   1.00
H451   H     0.49646   0.61218   0.16541   0.00000  Uiso   1.00
O452   O     0.10678   0.93206   0.95977   0.00000  Uiso   1.00
O453   O     0.98020   0.67658   0.25093   0.00000  Uiso   1.00
O454   O     0.55293   0.68648   0.27032   0.00000  Uiso   1.00
N455   N     0.12436   0.93409   0.05979   0.00000  Uiso   1.00
N456   N     0.03414   0.75204   0.26727   0.00000  Uiso   1.00
N457   N     0.44226   0.75909   0.28109   0.00000  Uiso   1.00
N458   N     0.15049   0.83403   0.97503   0.00000  Uiso   1.00
N459   N     0.06027   0.65198   0.18251   0.00000  Uiso   1.00
N460   N     0.46839   0.65902   0.19634   0.00000  Uiso   1.00
C461   C     0.89579   0.20903   0.37993   0.00000  Uiso   1.00
C462   C     0.87986   0.27458   0.37428   0.00000  Uiso   1.00
C463   C     0.84415   0.28793   0.32481   0.00000  Uiso   1.00
C464   C     0.83494   0.35093   0.32844   0.00000  Uiso   1.00
C465   C     0.80634   0.44541   0.31185   0.00000  Uiso   1.00
C466   C     0.97159   0.18160   0.38613   0.00000  Uiso   1.00
C467   C     0.01299   0.11678   0.34662   0.00000  Uiso   1.00
C468   C     0.08100   0.10151   0.36022   0.00000  Uiso   1.00
C469   C     0.19480   0.05161   0.36204   0.00000  Uiso   1.00
C470   C     0.86823   0.23132   0.44408   0.00000  Uiso   1.00
C471   C     0.82274   0.20829   0.45330   0.00000  Uiso   1.00
C472   C     0.80374   0.23487   0.51569   0.00000  Uiso   1.00
C473   C     0.75706   0.26218   0.60750   0.00000  Uiso   1.00
C474   C     0.94293   0.29717   0.47434   0.00000  Uiso   1.00
C475   C     0.90547   0.32244   0.42556   0.00000  Uiso   1.00
C476   C     0.89631   0.38544   0.42927   0.00000  Uiso   1.00
C477   C     0.86059   0.39889   0.37981   0.00000  Uiso   1.00
C478   C     0.99720   0.22947   0.43740   0.00000  Uiso   1.00
C479   C     0.06515   0.21429   0.45107   0.00000  Uiso   1.00
C480   C     0.10665   0.14946   0.41159   0.00000  Uiso   1.00
C481   C     0.89384   0.27919   0.49536   0.00000  Uiso   1.00
C482   C     0.87490   0.30581   0.55775   0.00000  Uiso   1.00
C483   C     0.82939   0.28283   0.56706   0.00000  Uiso   1.00
H484   H     0.87586   0.17176   0.34001   0.00000  Uiso   1.00
H485   H     0.82434   0.25087   0.28513   0.00000  Uiso   1.00
H486   H     0.99316   0.07974   0.30694   0.00000  Uiso   1.00
H487   H     0.80294   0.17125   0.41360   0.00000  Uiso   1.00
H488   H     0.77855   0.35968   0.24690   0.00000  Uiso   1.00
H489   H     0.13451   0.99883   0.29289   0.00000  Uiso   1.00
H490   H     0.73338   0.19179   0.51781   0.00000  Uiso   1.00
H491   H     0.96287   0.33444   0.51427   0.00000  Uiso   1.00
H492   H     0.91613   0.42248   0.46896   0.00000  Uiso   1.00
H493   H     0.08495   0.25134   0.49076   0.00000  Uiso   1.00
H494   H     0.89473   0.34285   0.59742   0.00000  Uiso   1.00
H495   H     0.85305   0.49896   0.39609   0.00000  Uiso   1.00
H496   H     0.20901   0.13811   0.44208   0.00000  Uiso   1.00
H497   H     0.80788   0.33107   0.66700   0.00000  Uiso   1.00
O498   O     0.78350   0.48429   0.28854   0.00000  Uiso   1.00
O499   O     0.25050   0.01087   0.34888   0.00000  Uiso   1.00
O500   O     0.72423   0.26403   0.64397   0.00000  Uiso   1.00
N501   N     0.80248   0.38038   0.28824   0.00000  Uiso   1.00
N502   N     0.13529   0.04302   0.33123   0.00000  Uiso   1.00
N503   N     0.76028   0.22340   0.54151   0.00000  Uiso   1.00
N504   N     0.84257   0.45533   0.36852   0.00000  Uiso   1.00
N505   N     0.17537   0.11796   0.41151   0.00000  Uiso   1.00
N506   N     0.80037   0.29835   0.62179   0.00000  Uiso   1.00
C507   C     0.96356   0.87293   0.14088   0.00000  Uiso   1.00
C508   C     0.92969   0.91244   0.10228   0.00000  Uiso   1.00
C509   C     0.96133   0.93502   0.07599   0.00000  Uiso   1.00
C510   C     0.92154   0.97029   0.04235   0.00000  Uiso   1.00
C511   C     0.87943   0.02982   0.98351   0.00000  Uiso   1.00
C512   C     0.92765   0.91473   0.20467   0.00000  Uiso   1.00
C513   C     0.95758   0.93922   0.26445   0.00000  Uiso   1.00
C514   C     0.91608   0.97642   0.31700   0.00000  Uiso   1.00
C515   C     0.87081   0.03945   0.41712   0.00000  Uiso   1.00
C516   C     0.94636   0.80704   0.10681   0.00000  Uiso   1.00
C517   C     0.99201   0.74097   0.08433   0.00000  Uiso   1.00
C518   C     0.96626   0.68749   0.05449   0.00000  Uiso   1.00
C519   C     0.95003   0.58331   0.00267   0.00000  Uiso   1.00
C520   C     0.83663   0.89543   0.12789   0.00000  Uiso   1.00
C521   C     0.86074   0.92466   0.09523   0.00000  Uiso   1.00
C522   C     0.82090   0.95991   0.06162   0.00000  Uiso   1.00
C523   C     0.85247   0.98253   0.03527   0.00000  Uiso   1.00
C524   C     0.85871   0.92695   0.19761   0.00000  Uiso   1.00
C525   C     0.81715   0.96411   0.25008   0.00000  Uiso   1.00
C526   C     0.84701   0.98866   0.30993   0.00000  Uiso   1.00
C527   C     0.87741   0.81925   0.09975   0.00000  Uiso   1.00
C528   C     0.85158   0.76587   0.06995   0.00000  Uiso   1.00
C529   C     0.89719   0.69973   0.04743   0.00000  Uiso   1.00
H530   H     0.01723   0.86342   0.14638   0.00000  Uiso   1.00
H531   H     0.01469   0.92556   0.08146   0.00000  Uiso   1.00
H532   H     0.01094   0.92975   0.26990   0.00000  Uiso   1.00
H533   H     0.04536   0.73153   0.08979   0.00000  Uiso   1.00
H534   H     0.98145   0.99986   0.00640   0.00000  Uiso   1.00
H535   H     0.97355   0.00869   0.40372   0.00000  Uiso   1.00
H536   H     0.04614   0.59071   0.02395   0.00000  Uiso   1.00
H537   H     0.78295   0.90494   0.12240   0.00000  Uiso   1.00
H538   H     0.76754   0.96936   0.05617   0.00000  Uiso   1.00
H539   H     0.76380   0.97356   0.24460   0.00000  Uiso   1.00
H540   H     0.79822   0.77534   0.06450   0.00000  Uiso   1.00
H541   H     0.78086   0.03542   0.98587   0.00000  Uiso   1.00
H542   H     0.77297   0.04424   0.38320   0.00000  Uiso   1.00
H543   H     0.84555   0.62626   0.00342   0.00000  Uiso   1.00
O544   O     0.87525   0.05928   0.95301   0.00000  Uiso   1.00
O545   O     0.86489   0.07085   0.47429   0.00000  Uiso   1.00
O546   O     0.96012   0.52247   0.97602   0.00000  Uiso   1.00
N547   N     0.93636   0.99937   0.01065   0.00000  Uiso   1.00
N548   N     0.92897   0.00764   0.38212   0.00000  Uiso   1.00
N549   N     0.99684   0.61686   0.02708   0.00000  Uiso   1.00
N550   N     0.82842   0.01851   0.99960   0.00000  Uiso   1.00
N551   N     0.82104   0.02677   0.37108   0.00000  Uiso   1.00
N552   N     0.88890   0.63599   0.01603   0.00000  Uiso   1.00
