data_job_00384
_audit_creation_date              2018-12-19
_audit_creation_method            'Materials Studio'
_symmetry_space_group_name_H-M    'P1'
_symmetry_Int_Tables_number       1
_symmetry_cell_setting            triclinic
loop_
_symmetry_equiv_pos_as_xyz
  x,y,z
_cell_length_a                    12.3980
_cell_length_b                    12.4363
_cell_length_c                    16.3736
_cell_angle_alpha                 89.9859
_cell_angle_beta                  110.0674
_cell_angle_gamma                 90.0015
loop_
_atom_site_label
_atom_site_type_symbol
_atom_site_fract_x
_atom_site_fract_y
_atom_site_fract_z
_atom_site_U_iso_or_equiv
_atom_site_adp_type
_atom_site_occupancy
C1     C     0.02978   0.05258   0.18200   0.00000  Uiso   1.00
C2     C     0.91540   0.10912   0.16683   0.00000  Uiso   1.00
C3     C     0.84754   0.15669   0.08961   0.00000  Uiso   1.00
C4     C     0.74592   0.20427   0.08892   0.00000  Uiso   1.00
C5     C     0.57323   0.29202   0.05411   0.00000  Uiso   1.00
C6     C     0.01612   0.93946   0.21307   0.00000  Uiso   1.00
C7     C     0.03297   0.84438   0.17473   0.00000  Uiso   1.00
C8     C     0.01616   0.74913   0.21297   0.00000  Uiso   1.00
C9     C     0.99993   0.57347   0.24999   0.00000  Uiso   1.00
C10    C     0.11683   0.10909   0.25935   0.00000  Uiso   1.00
C11    C     0.21838   0.15662   0.25994   0.00000  Uiso   1.00
C12    C     0.28638   0.20417   0.33716   0.00000  Uiso   1.00
C13    C     0.42652   0.29189   0.44604   0.00000  Uiso   1.00
C14    C     0.96999   0.05249   0.31808   0.00000  Uiso   1.00
C15    C     0.88292   0.10907   0.24074   0.00000  Uiso   1.00
C16    C     0.78138   0.15659   0.24017   0.00000  Uiso   1.00
C17    C     0.71339   0.20422   0.16297   0.00000  Uiso   1.00
C18    C     0.98365   0.93940   0.28698   0.00000  Uiso   1.00
C19    C     0.96682   0.84427   0.32529   0.00000  Uiso   1.00
C20    C     0.98363   0.74908   0.28702   0.00000  Uiso   1.00
C21    C     0.08436   0.10904   0.33326   0.00000  Uiso   1.00
C22    C     0.15222   0.15652   0.41050   0.00000  Uiso   1.00
C23    C     0.25385   0.20411   0.41121   0.00000  Uiso   1.00
H24    H     0.05506   0.05261   0.12445   0.00000  Uiso   1.00
H25    H     0.87270   0.15671   0.03242   0.00000  Uiso   1.00
H26    H     0.05812   0.84444   0.11754   0.00000  Uiso   1.00
H27    H     0.24349   0.15664   0.20274   0.00000  Uiso   1.00
H28    H     0.65617   0.27205   0.96298   0.00000  Uiso   1.00
H29    H     0.04717   0.61363   0.14246   0.00000  Uiso   1.00
H30    H     0.43807   0.27195   0.32212   0.00000  Uiso   1.00
H31    H     0.94470   0.05245   0.37563   0.00000  Uiso   1.00
H32    H     0.75627   0.15654   0.29738   0.00000  Uiso   1.00
H33    H     0.94169   0.84427   0.38249   0.00000  Uiso   1.00
H34    H     0.12706   0.15646   0.46768   0.00000  Uiso   1.00
H35    H     0.56167   0.27191   0.17802   0.00000  Uiso   1.00
H36    H     0.95268   0.61348   0.35751   0.00000  Uiso   1.00
H37    H     0.34357   0.27181   0.53716   0.00000  Uiso   1.00
O38    O     0.48694   0.34043   0.01449   0.00000  Uiso   1.00
O39    O     0.99994   0.47660   0.24997   0.00000  Uiso   1.00
O40    O     0.51278   0.34031   0.48567   0.00000  Uiso   1.00
N41    N     0.65980   0.25776   0.02433   0.00000  Uiso   1.00
N42    N     0.02534   0.64216   0.19213   0.00000  Uiso   1.00
N43    N     0.39081   0.25762   0.36010   0.00000  Uiso   1.00
N44    N     0.60895   0.25768   0.14005   0.00000  Uiso   1.00
N45    N     0.97450   0.64209   0.30785   0.00000  Uiso   1.00
N46    N     0.33997   0.25754   0.47581   0.00000  Uiso   1.00
C47    C     0.46459   0.39209   0.81537   0.00000  Uiso   1.00
C48    C     0.57989   0.44865   0.83517   0.00000  Uiso   1.00
C49    C     0.64316   0.49615   0.91371   0.00000  Uiso   1.00
C50    C     0.74656   0.54375   0.91878   0.00000  Uiso   1.00
C51    C     0.91975   0.63152   0.96034   0.00000  Uiso   1.00
C52    C     0.48085   0.27900   0.78552   0.00000  Uiso   1.00
C53    C     0.46082   0.18388   0.82229   0.00000  Uiso   1.00
C54    C     0.48083   0.08868   0.78556   0.00000  Uiso   1.00
C55    C     0.50017   0.91307   0.74998   0.00000  Uiso   1.00
C56    C     0.38177   0.44866   0.73590   0.00000  Uiso   1.00
C57    C     0.27842   0.49616   0.73095   0.00000  Uiso   1.00
C58    C     0.21499   0.54378   0.65243   0.00000  Uiso   1.00
C59    C     0.08049   0.63159   0.53981   0.00000  Uiso   1.00
C60    C     0.53571   0.39217   0.68473   0.00000  Uiso   1.00
C61    C     0.61852   0.44869   0.76421   0.00000  Uiso   1.00
C62    C     0.72185   0.49624   0.76917   0.00000  Uiso   1.00
C63    C     0.78526   0.54380   0.84769   0.00000  Uiso   1.00
C64    C     0.51948   0.27905   0.71456   0.00000  Uiso   1.00
C65    C     0.53951   0.18397   0.67775   0.00000  Uiso   1.00
C66    C     0.51953   0.08872   0.71447   0.00000  Uiso   1.00
C67    C     0.42040   0.44871   0.66494   0.00000  Uiso   1.00
C68    C     0.35711   0.49625   0.58641   0.00000  Uiso   1.00
C69    C     0.25369   0.54382   0.58134   0.00000  Uiso   1.00
H70    H     0.43452   0.39205   0.87062   0.00000  Uiso   1.00
H71    H     0.61324   0.49609   0.96861   0.00000  Uiso   1.00
H72    H     0.43092   0.18387   0.87720   0.00000  Uiso   1.00
H73    H     0.24855   0.49611   0.78587   0.00000  Uiso   1.00
H74    H     0.82845   0.61142   0.04597   0.00000  Uiso   1.00
H75    H     0.44398   0.95309   0.85322   0.00000  Uiso   1.00
H76    H     0.05941   0.61150   0.66063   0.00000  Uiso   1.00
H77    H     0.56578   0.39220   0.62948   0.00000  Uiso   1.00
H78    H     0.75172   0.49626   0.71424   0.00000  Uiso   1.00
H79    H     0.56940   0.18403   0.62284   0.00000  Uiso   1.00
H80    H     0.38703   0.49627   0.53151   0.00000  Uiso   1.00
H81    H     0.94085   0.61156   0.83952   0.00000  Uiso   1.00
H82    H     0.55637   0.95322   0.64676   0.00000  Uiso   1.00
H83    H     0.17181   0.61164   0.45418   0.00000  Uiso   1.00
O84    O     0.00461   0.67990   0.00286   0.00000  Uiso   1.00
O85    O     0.50018   0.81620   0.74997   0.00000  Uiso   1.00
O86    O     0.99565   0.68003   0.49730   0.00000  Uiso   1.00
N87    N     0.82937   0.59719   0.98574   0.00000  Uiso   1.00
N88    N     0.46994   0.98169   0.80554   0.00000  Uiso   1.00
N89    N     0.11038   0.59723   0.62548   0.00000  Uiso   1.00
N90    N     0.88985   0.59727   0.87465   0.00000  Uiso   1.00
N91    N     0.53041   0.98176   0.69445   0.00000  Uiso   1.00
N92    N     0.17086   0.59730   0.51439   0.00000  Uiso   1.00
C93    C     0.97022   0.94742   0.81800   0.00000  Uiso   1.00
C94    C     0.08460   0.89088   0.83317   0.00000  Uiso   1.00
C95    C     0.15246   0.84331   0.91039   0.00000  Uiso   1.00
C96    C     0.25408   0.79573   0.91108   0.00000  Uiso   1.00
C97    C     0.42677   0.70798   0.94589   0.00000  Uiso   1.00
C98    C     0.98388   0.06054   0.78693   0.00000  Uiso   1.00
C99    C     0.96703   0.15562   0.82527   0.00000  Uiso   1.00
C100   C     0.98384   0.25087   0.78703   0.00000  Uiso   1.00
C101   C     0.00007   0.42653   0.75001   0.00000  Uiso   1.00
C102   C     0.88317   0.89091   0.74065   0.00000  Uiso   1.00
C103   C     0.78162   0.84338   0.74006   0.00000  Uiso   1.00
C104   C     0.71362   0.79583   0.66284   0.00000  Uiso   1.00
C105   C     0.57348   0.70811   0.55396   0.00000  Uiso   1.00
C106   C     0.03001   0.94751   0.68192   0.00000  Uiso   1.00
C107   C     0.11708   0.89093   0.75926   0.00000  Uiso   1.00
C108   C     0.21862   0.84341   0.75983   0.00000  Uiso   1.00
C109   C     0.28661   0.79578   0.83703   0.00000  Uiso   1.00
C110   C     0.01635   0.06060   0.71302   0.00000  Uiso   1.00
C111   C     0.03318   0.15573   0.67471   0.00000  Uiso   1.00
C112   C     0.01637   0.25092   0.71298   0.00000  Uiso   1.00
C113   C     0.91564   0.89096   0.66674   0.00000  Uiso   1.00
C114   C     0.84778   0.84348   0.58950   0.00000  Uiso   1.00
C115   C     0.74615   0.79589   0.58879   0.00000  Uiso   1.00
H116   H     0.94494   0.94739   0.87555   0.00000  Uiso   1.00
H117   H     0.12730   0.84329   0.96758   0.00000  Uiso   1.00
H118   H     0.94188   0.15556   0.88246   0.00000  Uiso   1.00
H119   H     0.75651   0.84336   0.79726   0.00000  Uiso   1.00
H120   H     0.34383   0.72795   0.03702   0.00000  Uiso   1.00
H121   H     0.95283   0.38637   0.85754   0.00000  Uiso   1.00
H122   H     0.56193   0.72805   0.67788   0.00000  Uiso   1.00
H123   H     0.05530   0.94755   0.62437   0.00000  Uiso   1.00
H124   H     0.24373   0.84346   0.70262   0.00000  Uiso   1.00
H125   H     0.05831   0.15573   0.61751   0.00000  Uiso   1.00
H126   H     0.87294   0.84354   0.53232   0.00000  Uiso   1.00
H127   H     0.43833   0.72809   0.82198   0.00000  Uiso   1.00
H128   H     0.04732   0.38652   0.64249   0.00000  Uiso   1.00
H129   H     0.65643   0.72819   0.46284   0.00000  Uiso   1.00
O130   O     0.51306   0.65957   0.98551   0.00000  Uiso   1.00
O131   O     0.00006   0.52340   0.75003   0.00000  Uiso   1.00
O132   O     0.48722   0.65969   0.51433   0.00000  Uiso   1.00
N133   N     0.34020   0.74224   0.97567   0.00000  Uiso   1.00
N134   N     0.97466   0.35784   0.80787   0.00000  Uiso   1.00
N135   N     0.60919   0.74238   0.63990   0.00000  Uiso   1.00
N136   N     0.39105   0.74232   0.85995   0.00000  Uiso   1.00
N137   N     0.02550   0.35791   0.69215   0.00000  Uiso   1.00
N138   N     0.66003   0.74246   0.52419   0.00000  Uiso   1.00
C139   C     0.53541   0.60791   0.18463   0.00000  Uiso   1.00
C140   C     0.42011   0.55135   0.16483   0.00000  Uiso   1.00
C141   C     0.35684   0.50385   0.08629   0.00000  Uiso   1.00
C142   C     0.25344   0.45625   0.08122   0.00000  Uiso   1.00
C143   C     0.08025   0.36848   0.03966   0.00000  Uiso   1.00
C144   C     0.51915   0.72100   0.21448   0.00000  Uiso   1.00
C145   C     0.53918   0.81612   0.17771   0.00000  Uiso   1.00
C146   C     0.51917   0.91132   0.21444   0.00000  Uiso   1.00
C147   C     0.49983   0.08693   0.25002   0.00000  Uiso   1.00
C148   C     0.61823   0.55134   0.26410   0.00000  Uiso   1.00
C149   C     0.72158   0.50384   0.26905   0.00000  Uiso   1.00
C150   C     0.78501   0.45622   0.34757   0.00000  Uiso   1.00
C151   C     0.91951   0.36841   0.46019   0.00000  Uiso   1.00
C152   C     0.46429   0.60783   0.31527   0.00000  Uiso   1.00
C153   C     0.38148   0.55131   0.23579   0.00000  Uiso   1.00
C154   C     0.27815   0.50376   0.23083   0.00000  Uiso   1.00
C155   C     0.21474   0.45620   0.15231   0.00000  Uiso   1.00
C156   C     0.48052   0.72095   0.28544   0.00000  Uiso   1.00
C157   C     0.46049   0.81603   0.32225   0.00000  Uiso   1.00
C158   C     0.48047   0.91128   0.28553   0.00000  Uiso   1.00
C159   C     0.57960   0.55129   0.33506   0.00000  Uiso   1.00
C160   C     0.64289   0.50375   0.41359   0.00000  Uiso   1.00
C161   C     0.74631   0.45618   0.41866   0.00000  Uiso   1.00
H162   H     0.56548   0.60795   0.12938   0.00000  Uiso   1.00
H163   H     0.38676   0.50391   0.03139   0.00000  Uiso   1.00
H164   H     0.56908   0.81613   0.12280   0.00000  Uiso   1.00
H165   H     0.75145   0.50389   0.21413   0.00000  Uiso   1.00
H166   H     0.17155   0.38858   0.95403   0.00000  Uiso   1.00
H167   H     0.55602   0.04691   0.14678   0.00000  Uiso   1.00
H168   H     0.94059   0.38850   0.33937   0.00000  Uiso   1.00
H169   H     0.43422   0.60780   0.37052   0.00000  Uiso   1.00
H170   H     0.24828   0.50374   0.28576   0.00000  Uiso   1.00
H171   H     0.43060   0.81597   0.37716   0.00000  Uiso   1.00
H172   H     0.61297   0.50373   0.46849   0.00000  Uiso   1.00
H173   H     0.05915   0.38844   0.16048   0.00000  Uiso   1.00
H174   H     0.44363   0.04678   0.35324   0.00000  Uiso   1.00
H175   H     0.82819   0.38836   0.54582   0.00000  Uiso   1.00
O176   O     0.99539   0.32010   0.99714   0.00000  Uiso   1.00
O177   O     0.49982   0.18380   0.25003   0.00000  Uiso   1.00
O178   O     0.00435   0.31997   0.50270   0.00000  Uiso   1.00
N179   N     0.17063   0.40281   0.01426   0.00000  Uiso   1.00
N180   N     0.53006   0.01831   0.19446   0.00000  Uiso   1.00
N181   N     0.88962   0.40277   0.37452   0.00000  Uiso   1.00
N182   N     0.11015   0.40273   0.12535   0.00000  Uiso   1.00
N183   N     0.46959   0.01824   0.30555   0.00000  Uiso   1.00
N184   N     0.82914   0.40270   0.48561   0.00000  Uiso   1.00
