data_job_03183
_audit_creation_date              2018-12-19
_audit_creation_method            'Materials Studio'
_symmetry_space_group_name_H-M    'P1'
_symmetry_Int_Tables_number       1
_symmetry_cell_setting            triclinic
loop_
_symmetry_equiv_pos_as_xyz
  x,y,z
_cell_length_a                    16.7247
_cell_length_b                    9.7356
_cell_length_c                    17.8299
_cell_angle_alpha                 90.0000
_cell_angle_beta                  107.5410
_cell_angle_gamma                 90.0000
loop_
_atom_site_label
_atom_site_type_symbol
_atom_site_fract_x
_atom_site_fract_y
_atom_site_fract_z
_atom_site_U_iso_or_equiv
_atom_site_adp_type
_atom_site_occupancy
C1     C     0.67885   0.37120   0.26763   0.00000  Uiso   1.00
C2     C     0.68038   0.52761   0.27242   0.00000  Uiso   1.00
C3     C     0.63946   0.60708   0.31410   0.00000  Uiso   1.00
C4     C     0.64865   0.74852   0.31107   0.00000  Uiso   1.00
C5     C     0.64364   0.98231   0.32504   0.00000  Uiso   1.00
C6     C     0.64698   0.33604   0.18030   0.00000  Uiso   1.00
C7     C     0.57799   0.25441   0.14454   0.00000  Uiso   1.00
C8     C     0.55907   0.23456   0.06395   0.00000  Uiso   1.00
C9     C     0.50224   0.17084   0.93492   0.00000  Uiso   1.00
C10    C     0.77023   0.32525   0.29566   0.00000  Uiso   1.00
C11    C     0.80486   0.23453   0.35689   0.00000  Uiso   1.00
C12    C     0.88971   0.20557   0.37342   0.00000  Uiso   1.00
C13    C     0.02424   0.12511   0.42351   0.00000  Uiso   1.00
C14    C     0.76794   0.48107   0.18811   0.00000  Uiso   1.00
C15    C     0.72877   0.58729   0.22923   0.00000  Uiso   1.00
C16    C     0.73803   0.72864   0.22613   0.00000  Uiso   1.00
C17    C     0.69713   0.80830   0.26780   0.00000  Uiso   1.00
C18    C     0.69537   0.39571   0.13711   0.00000  Uiso   1.00
C19    C     0.67655   0.37597   0.05656   0.00000  Uiso   1.00
C20    C     0.60755   0.29435   0.02068   0.00000  Uiso   1.00
C21    C     0.81862   0.38493   0.25248   0.00000  Uiso   1.00
C22    C     0.90343   0.35609   0.26891   0.00000  Uiso   1.00
C23    C     0.93819   0.26535   0.33015   0.00000  Uiso   1.00
H24    H     0.64117   0.32474   0.30125   0.00000  Uiso   1.00
H25    H     0.60201   0.56086   0.34751   0.00000  Uiso   1.00
H26    H     0.54056   0.20823   0.17798   0.00000  Uiso   1.00
H27    H     0.76740   0.18837   0.39030   0.00000  Uiso   1.00
H28    H     0.57991   0.84897   0.37974   0.00000  Uiso   1.00
H29    H     0.45034   0.10540   0.02226   0.00000  Uiso   1.00
H30    H     0.92868   0.06349   0.46998   0.00000  Uiso   1.00
H31    H     0.80562   0.52753   0.15448   0.00000  Uiso   1.00
H32    H     0.77548   0.77479   0.19270   0.00000  Uiso   1.00
H33    H     0.71402   0.42216   0.02316   0.00000  Uiso   1.00
H34    H     0.94086   0.40229   0.23548   0.00000  Uiso   1.00
H35    H     0.72070   0.02260   0.25408   0.00000  Uiso   1.00
H36    H     0.59113   0.27902   0.89660   0.00000  Uiso   1.00
H37    H     0.06947   0.23712   0.34432   0.00000  Uiso   1.00
O38    O     0.62749   0.09478   0.34468   0.00000  Uiso   1.00
O39    O     0.45751   0.11922   0.87569   0.00000  Uiso   1.00
O40    O     0.08507   0.06425   0.46308   0.00000  Uiso   1.00
N41    N     0.61720   0.85590   0.34493   0.00000  Uiso   1.00
N42    N     0.49605   0.16072   0.01071   0.00000  Uiso   1.00
N43    N     0.94325   0.12151   0.42928   0.00000  Uiso   1.00
N44    N     0.69296   0.94933   0.27732   0.00000  Uiso   1.00
N45    N     0.57180   0.25415   0.94310   0.00000  Uiso   1.00
N46    N     0.01900   0.21494   0.36166   0.00000  Uiso   1.00
C47    C     0.32115   0.87120   0.23237   0.00000  Uiso   1.00
C48    C     0.31962   0.02761   0.22758   0.00000  Uiso   1.00
C49    C     0.36054   0.10708   0.18590   0.00000  Uiso   1.00
C50    C     0.35135   0.24852   0.18893   0.00000  Uiso   1.00
C51    C     0.35636   0.48231   0.17496   0.00000  Uiso   1.00
C52    C     0.35302   0.83604   0.31970   0.00000  Uiso   1.00
C53    C     0.42201   0.75441   0.35546   0.00000  Uiso   1.00
C54    C     0.44093   0.73456   0.43605   0.00000  Uiso   1.00
C55    C     0.49776   0.67084   0.56508   0.00000  Uiso   1.00
C56    C     0.22977   0.82525   0.20434   0.00000  Uiso   1.00
C57    C     0.19514   0.73453   0.14311   0.00000  Uiso   1.00
C58    C     0.11029   0.70557   0.12658   0.00000  Uiso   1.00
C59    C     0.97576   0.62511   0.07649   0.00000  Uiso   1.00
C60    C     0.23206   0.98107   0.31189   0.00000  Uiso   1.00
C61    C     0.27123   0.08729   0.27077   0.00000  Uiso   1.00
C62    C     0.26197   0.22864   0.27387   0.00000  Uiso   1.00
C63    C     0.30287   0.30830   0.23220   0.00000  Uiso   1.00
C64    C     0.30463   0.89571   0.36289   0.00000  Uiso   1.00
C65    C     0.32345   0.87597   0.44344   0.00000  Uiso   1.00
C66    C     0.39245   0.79435   0.47932   0.00000  Uiso   1.00
C67    C     0.18138   0.88493   0.24752   0.00000  Uiso   1.00
C68    C     0.09657   0.85609   0.23109   0.00000  Uiso   1.00
C69    C     0.06181   0.76535   0.16985   0.00000  Uiso   1.00
H70    H     0.35883   0.82474   0.19875   0.00000  Uiso   1.00
H71    H     0.39799   0.06086   0.15249   0.00000  Uiso   1.00
H72    H     0.45944   0.70823   0.32202   0.00000  Uiso   1.00
H73    H     0.23260   0.68837   0.10970   0.00000  Uiso   1.00
H74    H     0.42009   0.34897   0.12026   0.00000  Uiso   1.00
H75    H     0.54966   0.60540   0.47774   0.00000  Uiso   1.00
H76    H     0.07132   0.56349   0.03002   0.00000  Uiso   1.00
H77    H     0.19438   0.02753   0.34552   0.00000  Uiso   1.00
H78    H     0.22452   0.27479   0.30730   0.00000  Uiso   1.00
H79    H     0.28598   0.92216   0.47684   0.00000  Uiso   1.00
H80    H     0.05914   0.90229   0.26452   0.00000  Uiso   1.00
H81    H     0.27930   0.52260   0.24592   0.00000  Uiso   1.00
H82    H     0.40887   0.77902   0.60340   0.00000  Uiso   1.00
H83    H     0.93053   0.73712   0.15568   0.00000  Uiso   1.00
O84    O     0.37251   0.59478   0.15532   0.00000  Uiso   1.00
O85    O     0.54249   0.61922   0.62431   0.00000  Uiso   1.00
O86    O     0.91493   0.56425   0.03692   0.00000  Uiso   1.00
N87    N     0.38280   0.35590   0.15507   0.00000  Uiso   1.00
N88    N     0.50395   0.66072   0.48929   0.00000  Uiso   1.00
N89    N     0.05675   0.62151   0.07072   0.00000  Uiso   1.00
N90    N     0.30704   0.44933   0.22268   0.00000  Uiso   1.00
N91    N     0.42820   0.75415   0.55690   0.00000  Uiso   1.00
N92    N     0.98100   0.71494   0.13834   0.00000  Uiso   1.00
C93    C     0.32115   0.62880   0.73237   0.00000  Uiso   1.00
C94    C     0.31962   0.47239   0.72758   0.00000  Uiso   1.00
C95    C     0.36054   0.39292   0.68590   0.00000  Uiso   1.00
C96    C     0.35135   0.25148   0.68893   0.00000  Uiso   1.00
C97    C     0.35636   0.01769   0.67496   0.00000  Uiso   1.00
C98    C     0.35302   0.66396   0.81970   0.00000  Uiso   1.00
C99    C     0.42201   0.74559   0.85546   0.00000  Uiso   1.00
C100   C     0.44093   0.76544   0.93605   0.00000  Uiso   1.00
C101   C     0.49776   0.82916   0.06508   0.00000  Uiso   1.00
C102   C     0.22977   0.67475   0.70434   0.00000  Uiso   1.00
C103   C     0.19514   0.76547   0.64311   0.00000  Uiso   1.00
C104   C     0.11029   0.79443   0.62658   0.00000  Uiso   1.00
C105   C     0.97576   0.87489   0.57649   0.00000  Uiso   1.00
C106   C     0.23206   0.51893   0.81189   0.00000  Uiso   1.00
C107   C     0.27123   0.41271   0.77077   0.00000  Uiso   1.00
C108   C     0.26197   0.27136   0.77387   0.00000  Uiso   1.00
C109   C     0.30287   0.19170   0.73220   0.00000  Uiso   1.00
C110   C     0.30463   0.60429   0.86289   0.00000  Uiso   1.00
C111   C     0.32345   0.62403   0.94344   0.00000  Uiso   1.00
C112   C     0.39245   0.70565   0.97932   0.00000  Uiso   1.00
C113   C     0.18138   0.61507   0.74752   0.00000  Uiso   1.00
C114   C     0.09657   0.64391   0.73109   0.00000  Uiso   1.00
C115   C     0.06181   0.73465   0.66985   0.00000  Uiso   1.00
H116   H     0.35883   0.67526   0.69875   0.00000  Uiso   1.00
H117   H     0.39799   0.43914   0.65249   0.00000  Uiso   1.00
H118   H     0.45944   0.79177   0.82202   0.00000  Uiso   1.00
H119   H     0.23260   0.81163   0.60970   0.00000  Uiso   1.00
H120   H     0.42009   0.15103   0.62026   0.00000  Uiso   1.00
H121   H     0.54966   0.89460   0.97774   0.00000  Uiso   1.00
H122   H     0.07132   0.93651   0.53002   0.00000  Uiso   1.00
H123   H     0.19438   0.47247   0.84552   0.00000  Uiso   1.00
H124   H     0.22452   0.22521   0.80730   0.00000  Uiso   1.00
H125   H     0.28598   0.57784   0.97684   0.00000  Uiso   1.00
H126   H     0.05914   0.59771   0.76452   0.00000  Uiso   1.00
H127   H     0.27930   0.97740   0.74592   0.00000  Uiso   1.00
H128   H     0.40887   0.72098   0.10340   0.00000  Uiso   1.00
H129   H     0.93053   0.76288   0.65568   0.00000  Uiso   1.00
O130   O     0.37251   0.90522   0.65532   0.00000  Uiso   1.00
O131   O     0.54249   0.88078   0.12431   0.00000  Uiso   1.00
O132   O     0.91493   0.93575   0.53692   0.00000  Uiso   1.00
N133   N     0.38280   0.14410   0.65507   0.00000  Uiso   1.00
N134   N     0.50395   0.83928   0.98929   0.00000  Uiso   1.00
N135   N     0.05675   0.87849   0.57072   0.00000  Uiso   1.00
N136   N     0.30704   0.05067   0.72268   0.00000  Uiso   1.00
N137   N     0.42820   0.74585   0.05690   0.00000  Uiso   1.00
N138   N     0.98100   0.78506   0.63834   0.00000  Uiso   1.00
C139   C     0.67885   0.12880   0.76763   0.00000  Uiso   1.00
C140   C     0.68038   0.97239   0.77242   0.00000  Uiso   1.00
C141   C     0.63946   0.89292   0.81410   0.00000  Uiso   1.00
C142   C     0.64865   0.75148   0.81107   0.00000  Uiso   1.00
C143   C     0.64364   0.51769   0.82504   0.00000  Uiso   1.00
C144   C     0.64698   0.16396   0.68030   0.00000  Uiso   1.00
C145   C     0.57799   0.24559   0.64454   0.00000  Uiso   1.00
C146   C     0.55907   0.26544   0.56395   0.00000  Uiso   1.00
C147   C     0.50224   0.32916   0.43492   0.00000  Uiso   1.00
C148   C     0.77023   0.17475   0.79566   0.00000  Uiso   1.00
C149   C     0.80486   0.26547   0.85689   0.00000  Uiso   1.00
C150   C     0.88971   0.29443   0.87342   0.00000  Uiso   1.00
C151   C     0.02424   0.37489   0.92351   0.00000  Uiso   1.00
C152   C     0.76794   0.01893   0.68811   0.00000  Uiso   1.00
C153   C     0.72877   0.91271   0.72923   0.00000  Uiso   1.00
C154   C     0.73803   0.77136   0.72613   0.00000  Uiso   1.00
C155   C     0.69713   0.69170   0.76780   0.00000  Uiso   1.00
C156   C     0.69537   0.10429   0.63711   0.00000  Uiso   1.00
C157   C     0.67655   0.12403   0.55656   0.00000  Uiso   1.00
C158   C     0.60755   0.20565   0.52068   0.00000  Uiso   1.00
C159   C     0.81862   0.11507   0.75248   0.00000  Uiso   1.00
C160   C     0.90343   0.14391   0.76891   0.00000  Uiso   1.00
C161   C     0.93819   0.23465   0.83015   0.00000  Uiso   1.00
H162   H     0.64117   0.17526   0.80125   0.00000  Uiso   1.00
H163   H     0.60201   0.93914   0.84751   0.00000  Uiso   1.00
H164   H     0.54056   0.29177   0.67798   0.00000  Uiso   1.00
H165   H     0.76740   0.31163   0.89030   0.00000  Uiso   1.00
H166   H     0.57991   0.65103   0.87974   0.00000  Uiso   1.00
H167   H     0.45034   0.39460   0.52226   0.00000  Uiso   1.00
H168   H     0.92868   0.43651   0.96998   0.00000  Uiso   1.00
H169   H     0.80562   0.97247   0.65448   0.00000  Uiso   1.00
H170   H     0.77548   0.72521   0.69270   0.00000  Uiso   1.00
H171   H     0.71402   0.07784   0.52316   0.00000  Uiso   1.00
H172   H     0.94086   0.09771   0.73548   0.00000  Uiso   1.00
H173   H     0.72070   0.47740   0.75408   0.00000  Uiso   1.00
H174   H     0.59113   0.22098   0.39660   0.00000  Uiso   1.00
H175   H     0.06947   0.26288   0.84432   0.00000  Uiso   1.00
O176   O     0.62749   0.40522   0.84468   0.00000  Uiso   1.00
O177   O     0.45751   0.38078   0.37569   0.00000  Uiso   1.00
O178   O     0.08507   0.43575   0.96308   0.00000  Uiso   1.00
N179   N     0.61720   0.64410   0.84493   0.00000  Uiso   1.00
N180   N     0.49605   0.33928   0.51071   0.00000  Uiso   1.00
N181   N     0.94325   0.37849   0.92928   0.00000  Uiso   1.00
N182   N     0.69296   0.55067   0.77732   0.00000  Uiso   1.00
N183   N     0.57180   0.24585   0.44310   0.00000  Uiso   1.00
N184   N     0.01900   0.28506   0.86166   0.00000  Uiso   1.00
