data_job_04944
_audit_creation_date              2018-12-19
_audit_creation_method            'Materials Studio'
_symmetry_space_group_name_H-M    'P1'
_symmetry_Int_Tables_number       1
_symmetry_cell_setting            triclinic
loop_
_symmetry_equiv_pos_as_xyz
  x,y,z
_cell_length_a                    26.4298
_cell_length_b                    16.5081
_cell_length_c                    12.2809
_cell_angle_alpha                 90.0000
_cell_angle_beta                  90.0000
_cell_angle_gamma                 90.0000
loop_
_atom_site_label
_atom_site_type_symbol
_atom_site_fract_x
_atom_site_fract_y
_atom_site_fract_z
_atom_site_U_iso_or_equiv
_atom_site_adp_type
_atom_site_occupancy
C1     C     0.61110   0.14275   0.51855   0.00000  Uiso   1.00
C2     C     0.63242   0.06674   0.57218   0.00000  Uiso   1.00
C3     C     0.62088   0.03935   0.67608   0.00000  Uiso   1.00
C4     C     0.64436   0.96853   0.71021   0.00000  Uiso   1.00
C5     C     0.67235   0.85691   0.80376   0.00000  Uiso   1.00
C6     C     0.65672   0.19386   0.48602   0.00000  Uiso   1.00
C7     C     0.66560   0.27335   0.51748   0.00000  Uiso   1.00
C8     C     0.70953   0.30954   0.47907   0.00000  Uiso   1.00
C9     C     0.77522   0.39529   0.43880   0.00000  Uiso   1.00
C10    C     0.58680   0.11483   0.41237   0.00000  Uiso   1.00
C11    C     0.53690   0.12789   0.38188   0.00000  Uiso   1.00
C12    C     0.52197   0.09755   0.28144   0.00000  Uiso   1.00
C13    C     0.47910   0.06060   0.12681   0.00000  Uiso   1.00
C14    C     0.67332   0.06570   0.39439   0.00000  Uiso   1.00
C15    C     0.66622   0.02490   0.50473   0.00000  Uiso   1.00
C16    C     0.68972   0.95410   0.53871   0.00000  Uiso   1.00
C17    C     0.67822   0.92660   0.64265   0.00000  Uiso   1.00
C18    C     0.69051   0.15202   0.41858   0.00000  Uiso   1.00
C19    C     0.73444   0.18810   0.38011   0.00000  Uiso   1.00
C20    C     0.74339   0.26762   0.41151   0.00000  Uiso   1.00
C21    C     0.62059   0.07298   0.34492   0.00000  Uiso   1.00
C22    C     0.60574   0.04263   0.24451   0.00000  Uiso   1.00
C23    C     0.55583   0.05563   0.21388   0.00000  Uiso   1.00
H24    H     0.58479   0.17533   0.57106   0.00000  Uiso   1.00
H25    H     0.59473   0.07176   0.72825   0.00000  Uiso   1.00
H26    H     0.63943   0.30572   0.56967   0.00000  Uiso   1.00
H27    H     0.51075   0.16027   0.43409   0.00000  Uiso   1.00
H28    H     0.62067   0.93848   0.87281   0.00000  Uiso   1.00
H29    H     0.71493   0.43182   0.53839   0.00000  Uiso   1.00
H30    H     0.44358   0.12512   0.25250   0.00000  Uiso   1.00
H31    H     0.69963   0.03311   0.34188   0.00000  Uiso   1.00
H32    H     0.71587   0.92172   0.48650   0.00000  Uiso   1.00
H33    H     0.76058   0.15570   0.32792   0.00000  Uiso   1.00
H34    H     0.63190   0.01025   0.19234   0.00000  Uiso   1.00
H35    H     0.71900   0.81671   0.67660   0.00000  Uiso   1.00
H36    H     0.81326   0.31006   0.34218   0.00000  Uiso   1.00
H37    H     0.54191   0.00335   0.05628   0.00000  Uiso   1.00
O38    O     0.67846   0.80691   0.87399   0.00000  Uiso   1.00
O39    O     0.80212   0.45415   0.43523   0.00000  Uiso   1.00
O40    O     0.44612   0.05176   0.06015   0.00000  Uiso   1.00
N41    N     0.64157   0.92510   0.80677   0.00000  Uiso   1.00
N42    N     0.72971   0.38634   0.49413   0.00000  Uiso   1.00
N43    N     0.47602   0.09962   0.22683   0.00000  Uiso   1.00
N44    N     0.69448   0.85958   0.70119   0.00000  Uiso   1.00
N45    N     0.78262   0.32082   0.38855   0.00000  Uiso   1.00
N46    N     0.52893   0.03410   0.12125   0.00000  Uiso   1.00
C47    C     0.88890   0.85725   0.51855   0.00000  Uiso   1.00
C48    C     0.86758   0.93326   0.57218   0.00000  Uiso   1.00
C49    C     0.87912   0.96065   0.67608   0.00000  Uiso   1.00
C50    C     0.85564   0.03147   0.71021   0.00000  Uiso   1.00
C51    C     0.82765   0.14309   0.80376   0.00000  Uiso   1.00
C52    C     0.84328   0.80614   0.48602   0.00000  Uiso   1.00
C53    C     0.83440   0.72665   0.51748   0.00000  Uiso   1.00
C54    C     0.79047   0.69046   0.47907   0.00000  Uiso   1.00
C55    C     0.72478   0.60471   0.43880   0.00000  Uiso   1.00
C56    C     0.91320   0.88517   0.41237   0.00000  Uiso   1.00
C57    C     0.96310   0.87211   0.38188   0.00000  Uiso   1.00
C58    C     0.97803   0.90245   0.28144   0.00000  Uiso   1.00
C59    C     0.02090   0.93940   0.12681   0.00000  Uiso   1.00
C60    C     0.82668   0.93430   0.39439   0.00000  Uiso   1.00
C61    C     0.83378   0.97510   0.50473   0.00000  Uiso   1.00
C62    C     0.81028   0.04590   0.53871   0.00000  Uiso   1.00
C63    C     0.82178   0.07340   0.64265   0.00000  Uiso   1.00
C64    C     0.80949   0.84798   0.41858   0.00000  Uiso   1.00
C65    C     0.76556   0.81190   0.38011   0.00000  Uiso   1.00
C66    C     0.75661   0.73238   0.41151   0.00000  Uiso   1.00
C67    C     0.87941   0.92702   0.34492   0.00000  Uiso   1.00
C68    C     0.89426   0.95737   0.24451   0.00000  Uiso   1.00
C69    C     0.94417   0.94437   0.21388   0.00000  Uiso   1.00
H70    H     0.91521   0.82467   0.57106   0.00000  Uiso   1.00
H71    H     0.90527   0.92824   0.72825   0.00000  Uiso   1.00
H72    H     0.86057   0.69428   0.56967   0.00000  Uiso   1.00
H73    H     0.98925   0.83973   0.43409   0.00000  Uiso   1.00
H74    H     0.87933   0.06152   0.87281   0.00000  Uiso   1.00
H75    H     0.78507   0.56818   0.53839   0.00000  Uiso   1.00
H76    H     0.05642   0.87488   0.25250   0.00000  Uiso   1.00
H77    H     0.80037   0.96689   0.34188   0.00000  Uiso   1.00
H78    H     0.78413   0.07828   0.48650   0.00000  Uiso   1.00
H79    H     0.73942   0.84430   0.32792   0.00000  Uiso   1.00
H80    H     0.86810   0.98975   0.19234   0.00000  Uiso   1.00
H81    H     0.78100   0.18329   0.67660   0.00000  Uiso   1.00
H82    H     0.68674   0.68994   0.34218   0.00000  Uiso   1.00
H83    H     0.95809   0.99665   0.05628   0.00000  Uiso   1.00
O84    O     0.82154   0.19309   0.87399   0.00000  Uiso   1.00
O85    O     0.69788   0.54585   0.43523   0.00000  Uiso   1.00
O86    O     0.05388   0.94824   0.06015   0.00000  Uiso   1.00
N87    N     0.85843   0.07490   0.80677   0.00000  Uiso   1.00
N88    N     0.77029   0.61366   0.49413   0.00000  Uiso   1.00
N89    N     0.02398   0.90038   0.22683   0.00000  Uiso   1.00
N90    N     0.80552   0.14042   0.70119   0.00000  Uiso   1.00
N91    N     0.71738   0.67918   0.38855   0.00000  Uiso   1.00
N92    N     0.97107   0.96590   0.12125   0.00000  Uiso   1.00
C93    C     0.88890   0.64275   0.98145   0.00000  Uiso   1.00
C94    C     0.86758   0.56674   0.92782   0.00000  Uiso   1.00
C95    C     0.87912   0.53935   0.82392   0.00000  Uiso   1.00
C96    C     0.85564   0.46853   0.78979   0.00000  Uiso   1.00
C97    C     0.82765   0.35691   0.69624   0.00000  Uiso   1.00
C98    C     0.84328   0.69386   0.01398   0.00000  Uiso   1.00
C99    C     0.83440   0.77335   0.98252   0.00000  Uiso   1.00
C100   C     0.79047   0.80954   0.02093   0.00000  Uiso   1.00
C101   C     0.72478   0.89529   0.06120   0.00000  Uiso   1.00
C102   C     0.91320   0.61483   0.08763   0.00000  Uiso   1.00
C103   C     0.96310   0.62789   0.11812   0.00000  Uiso   1.00
C104   C     0.97803   0.59755   0.21856   0.00000  Uiso   1.00
C105   C     0.02090   0.56060   0.37319   0.00000  Uiso   1.00
C106   C     0.82668   0.56570   0.10561   0.00000  Uiso   1.00
C107   C     0.83378   0.52490   0.99527   0.00000  Uiso   1.00
C108   C     0.81028   0.45410   0.96129   0.00000  Uiso   1.00
C109   C     0.82178   0.42660   0.85735   0.00000  Uiso   1.00
C110   C     0.80949   0.65202   0.08142   0.00000  Uiso   1.00
C111   C     0.76556   0.68810   0.11989   0.00000  Uiso   1.00
C112   C     0.75661   0.76762   0.08849   0.00000  Uiso   1.00
C113   C     0.87941   0.57298   0.15508   0.00000  Uiso   1.00
C114   C     0.89426   0.54263   0.25549   0.00000  Uiso   1.00
C115   C     0.94417   0.55563   0.28612   0.00000  Uiso   1.00
H116   H     0.91521   0.67533   0.92894   0.00000  Uiso   1.00
H117   H     0.90527   0.57176   0.77175   0.00000  Uiso   1.00
H118   H     0.86057   0.80572   0.93033   0.00000  Uiso   1.00
H119   H     0.98925   0.66027   0.06591   0.00000  Uiso   1.00
H120   H     0.87933   0.43848   0.62719   0.00000  Uiso   1.00
H121   H     0.78507   0.93182   0.96161   0.00000  Uiso   1.00
H122   H     0.05642   0.62512   0.24750   0.00000  Uiso   1.00
H123   H     0.80037   0.53311   0.15812   0.00000  Uiso   1.00
H124   H     0.78413   0.42172   0.01350   0.00000  Uiso   1.00
H125   H     0.73942   0.65570   0.17208   0.00000  Uiso   1.00
H126   H     0.86810   0.51025   0.30766   0.00000  Uiso   1.00
H127   H     0.78100   0.31671   0.82340   0.00000  Uiso   1.00
H128   H     0.68674   0.81006   0.15782   0.00000  Uiso   1.00
H129   H     0.95809   0.50335   0.44372   0.00000  Uiso   1.00
O130   O     0.82154   0.30691   0.62601   0.00000  Uiso   1.00
O131   O     0.69788   0.95415   0.06477   0.00000  Uiso   1.00
O132   O     0.05388   0.55176   0.43985   0.00000  Uiso   1.00
N133   N     0.85843   0.42510   0.69323   0.00000  Uiso   1.00
N134   N     0.77029   0.88634   0.00587   0.00000  Uiso   1.00
N135   N     0.02398   0.59962   0.27317   0.00000  Uiso   1.00
N136   N     0.80552   0.35958   0.79881   0.00000  Uiso   1.00
N137   N     0.71738   0.82082   0.11145   0.00000  Uiso   1.00
N138   N     0.97107   0.53410   0.37875   0.00000  Uiso   1.00
C139   C     0.61110   0.35725   0.98145   0.00000  Uiso   1.00
C140   C     0.63242   0.43326   0.92782   0.00000  Uiso   1.00
C141   C     0.62088   0.46065   0.82392   0.00000  Uiso   1.00
C142   C     0.64436   0.53147   0.78979   0.00000  Uiso   1.00
C143   C     0.67235   0.64309   0.69624   0.00000  Uiso   1.00
C144   C     0.65672   0.30614   0.01398   0.00000  Uiso   1.00
C145   C     0.66560   0.22665   0.98252   0.00000  Uiso   1.00
C146   C     0.70953   0.19046   0.02093   0.00000  Uiso   1.00
C147   C     0.77522   0.10471   0.06120   0.00000  Uiso   1.00
C148   C     0.58680   0.38517   0.08763   0.00000  Uiso   1.00
C149   C     0.53690   0.37211   0.11812   0.00000  Uiso   1.00
C150   C     0.52197   0.40245   0.21856   0.00000  Uiso   1.00
C151   C     0.47910   0.43940   0.37319   0.00000  Uiso   1.00
C152   C     0.67332   0.43430   0.10561   0.00000  Uiso   1.00
C153   C     0.66622   0.47510   0.99527   0.00000  Uiso   1.00
C154   C     0.68972   0.54590   0.96129   0.00000  Uiso   1.00
C155   C     0.67822   0.57340   0.85735   0.00000  Uiso   1.00
C156   C     0.69051   0.34798   0.08142   0.00000  Uiso   1.00
C157   C     0.73444   0.31190   0.11989   0.00000  Uiso   1.00
C158   C     0.74339   0.23238   0.08849   0.00000  Uiso   1.00
C159   C     0.62059   0.42702   0.15508   0.00000  Uiso   1.00
C160   C     0.60574   0.45737   0.25549   0.00000  Uiso   1.00
C161   C     0.55583   0.44437   0.28612   0.00000  Uiso   1.00
H162   H     0.58479   0.32467   0.92894   0.00000  Uiso   1.00
H163   H     0.59473   0.42824   0.77175   0.00000  Uiso   1.00
H164   H     0.63943   0.19428   0.93033   0.00000  Uiso   1.00
H165   H     0.51075   0.33973   0.06591   0.00000  Uiso   1.00
H166   H     0.62067   0.56152   0.62719   0.00000  Uiso   1.00
H167   H     0.71493   0.06818   0.96161   0.00000  Uiso   1.00
H168   H     0.44358   0.37488   0.24750   0.00000  Uiso   1.00
H169   H     0.69963   0.46689   0.15812   0.00000  Uiso   1.00
H170   H     0.71587   0.57828   0.01350   0.00000  Uiso   1.00
H171   H     0.76058   0.34430   0.17208   0.00000  Uiso   1.00
H172   H     0.63190   0.48975   0.30766   0.00000  Uiso   1.00
H173   H     0.71900   0.68329   0.82340   0.00000  Uiso   1.00
H174   H     0.81326   0.18994   0.15782   0.00000  Uiso   1.00
H175   H     0.54191   0.49665   0.44372   0.00000  Uiso   1.00
O176   O     0.67846   0.69309   0.62601   0.00000  Uiso   1.00
O177   O     0.80212   0.04585   0.06477   0.00000  Uiso   1.00
O178   O     0.44612   0.44824   0.43985   0.00000  Uiso   1.00
N179   N     0.64157   0.57490   0.69323   0.00000  Uiso   1.00
N180   N     0.72971   0.11366   0.00587   0.00000  Uiso   1.00
N181   N     0.47602   0.40038   0.27317   0.00000  Uiso   1.00
N182   N     0.69448   0.64042   0.79881   0.00000  Uiso   1.00
N183   N     0.78262   0.17918   0.11145   0.00000  Uiso   1.00
N184   N     0.52893   0.46590   0.37875   0.00000  Uiso   1.00
C185   C     0.38890   0.85725   0.48145   0.00000  Uiso   1.00
C186   C     0.36758   0.93326   0.42782   0.00000  Uiso   1.00
C187   C     0.37912   0.96065   0.32392   0.00000  Uiso   1.00
C188   C     0.35564   0.03147   0.28979   0.00000  Uiso   1.00
C189   C     0.32765   0.14309   0.19624   0.00000  Uiso   1.00
C190   C     0.34328   0.80614   0.51398   0.00000  Uiso   1.00
C191   C     0.33440   0.72665   0.48252   0.00000  Uiso   1.00
C192   C     0.29047   0.69046   0.52093   0.00000  Uiso   1.00
C193   C     0.22478   0.60471   0.56120   0.00000  Uiso   1.00
C194   C     0.41320   0.88517   0.58763   0.00000  Uiso   1.00
C195   C     0.46310   0.87211   0.61812   0.00000  Uiso   1.00
C196   C     0.47803   0.90245   0.71856   0.00000  Uiso   1.00
C197   C     0.52090   0.93940   0.87319   0.00000  Uiso   1.00
C198   C     0.32668   0.93430   0.60561   0.00000  Uiso   1.00
C199   C     0.33378   0.97510   0.49527   0.00000  Uiso   1.00
C200   C     0.31028   0.04590   0.46129   0.00000  Uiso   1.00
C201   C     0.32178   0.07340   0.35735   0.00000  Uiso   1.00
C202   C     0.30949   0.84798   0.58142   0.00000  Uiso   1.00
C203   C     0.26556   0.81190   0.61989   0.00000  Uiso   1.00
C204   C     0.25661   0.73238   0.58849   0.00000  Uiso   1.00
C205   C     0.37941   0.92702   0.65508   0.00000  Uiso   1.00
C206   C     0.39426   0.95737   0.75549   0.00000  Uiso   1.00
C207   C     0.44417   0.94437   0.78612   0.00000  Uiso   1.00
H208   H     0.41521   0.82467   0.42894   0.00000  Uiso   1.00
H209   H     0.40527   0.92824   0.27175   0.00000  Uiso   1.00
H210   H     0.36057   0.69428   0.43033   0.00000  Uiso   1.00
H211   H     0.48925   0.83973   0.56591   0.00000  Uiso   1.00
H212   H     0.37933   0.06152   0.12719   0.00000  Uiso   1.00
H213   H     0.28507   0.56818   0.46161   0.00000  Uiso   1.00
H214   H     0.55642   0.87488   0.74750   0.00000  Uiso   1.00
H215   H     0.30037   0.96689   0.65812   0.00000  Uiso   1.00
H216   H     0.28413   0.07828   0.51350   0.00000  Uiso   1.00
H217   H     0.23942   0.84430   0.67208   0.00000  Uiso   1.00
H218   H     0.36810   0.98975   0.80766   0.00000  Uiso   1.00
H219   H     0.28100   0.18329   0.32340   0.00000  Uiso   1.00
H220   H     0.18674   0.68994   0.65782   0.00000  Uiso   1.00
H221   H     0.45809   0.99665   0.94372   0.00000  Uiso   1.00
O222   O     0.32154   0.19309   0.12601   0.00000  Uiso   1.00
O223   O     0.19788   0.54585   0.56477   0.00000  Uiso   1.00
O224   O     0.55388   0.94824   0.93985   0.00000  Uiso   1.00
N225   N     0.35843   0.07490   0.19323   0.00000  Uiso   1.00
N226   N     0.27029   0.61366   0.50587   0.00000  Uiso   1.00
N227   N     0.52398   0.90038   0.77317   0.00000  Uiso   1.00
N228   N     0.30552   0.14042   0.29881   0.00000  Uiso   1.00
N229   N     0.21738   0.67918   0.61145   0.00000  Uiso   1.00
N230   N     0.47107   0.96590   0.87875   0.00000  Uiso   1.00
C231   C     0.11110   0.14275   0.48145   0.00000  Uiso   1.00
C232   C     0.13242   0.06674   0.42782   0.00000  Uiso   1.00
C233   C     0.12088   0.03935   0.32392   0.00000  Uiso   1.00
C234   C     0.14436   0.96853   0.28979   0.00000  Uiso   1.00
C235   C     0.17235   0.85691   0.19624   0.00000  Uiso   1.00
C236   C     0.15672   0.19386   0.51398   0.00000  Uiso   1.00
C237   C     0.16560   0.27335   0.48252   0.00000  Uiso   1.00
C238   C     0.20953   0.30954   0.52093   0.00000  Uiso   1.00
C239   C     0.27522   0.39529   0.56120   0.00000  Uiso   1.00
C240   C     0.08680   0.11483   0.58763   0.00000  Uiso   1.00
C241   C     0.03690   0.12789   0.61812   0.00000  Uiso   1.00
C242   C     0.02197   0.09755   0.71856   0.00000  Uiso   1.00
C243   C     0.97910   0.06060   0.87319   0.00000  Uiso   1.00
C244   C     0.17332   0.06570   0.60561   0.00000  Uiso   1.00
C245   C     0.16622   0.02490   0.49527   0.00000  Uiso   1.00
C246   C     0.18972   0.95410   0.46129   0.00000  Uiso   1.00
C247   C     0.17822   0.92660   0.35735   0.00000  Uiso   1.00
C248   C     0.19051   0.15202   0.58142   0.00000  Uiso   1.00
C249   C     0.23444   0.18810   0.61989   0.00000  Uiso   1.00
C250   C     0.24339   0.26762   0.58849   0.00000  Uiso   1.00
C251   C     0.12059   0.07298   0.65508   0.00000  Uiso   1.00
C252   C     0.10574   0.04263   0.75549   0.00000  Uiso   1.00
C253   C     0.05583   0.05563   0.78612   0.00000  Uiso   1.00
H254   H     0.08479   0.17533   0.42894   0.00000  Uiso   1.00
H255   H     0.09473   0.07176   0.27175   0.00000  Uiso   1.00
H256   H     0.13943   0.30572   0.43033   0.00000  Uiso   1.00
H257   H     0.01075   0.16027   0.56591   0.00000  Uiso   1.00
H258   H     0.12067   0.93848   0.12719   0.00000  Uiso   1.00
H259   H     0.21493   0.43182   0.46161   0.00000  Uiso   1.00
H260   H     0.94358   0.12512   0.74750   0.00000  Uiso   1.00
H261   H     0.19963   0.03311   0.65812   0.00000  Uiso   1.00
H262   H     0.21587   0.92172   0.51350   0.00000  Uiso   1.00
H263   H     0.26058   0.15570   0.67208   0.00000  Uiso   1.00
H264   H     0.13190   0.01025   0.80766   0.00000  Uiso   1.00
H265   H     0.21900   0.81671   0.32340   0.00000  Uiso   1.00
H266   H     0.31326   0.31006   0.65782   0.00000  Uiso   1.00
H267   H     0.04191   0.00335   0.94372   0.00000  Uiso   1.00
O268   O     0.17846   0.80691   0.12601   0.00000  Uiso   1.00
O269   O     0.30212   0.45415   0.56477   0.00000  Uiso   1.00
O270   O     0.94612   0.05176   0.93985   0.00000  Uiso   1.00
N271   N     0.14157   0.92510   0.19323   0.00000  Uiso   1.00
N272   N     0.22971   0.38634   0.50587   0.00000  Uiso   1.00
N273   N     0.97602   0.09962   0.77317   0.00000  Uiso   1.00
N274   N     0.19448   0.85958   0.29881   0.00000  Uiso   1.00
N275   N     0.28262   0.32082   0.61145   0.00000  Uiso   1.00
N276   N     0.02893   0.03410   0.87875   0.00000  Uiso   1.00
C277   C     0.11110   0.35725   0.01855   0.00000  Uiso   1.00
C278   C     0.13242   0.43326   0.07218   0.00000  Uiso   1.00
C279   C     0.12088   0.46065   0.17608   0.00000  Uiso   1.00
C280   C     0.14436   0.53147   0.21021   0.00000  Uiso   1.00
C281   C     0.17235   0.64309   0.30376   0.00000  Uiso   1.00
C282   C     0.15672   0.30614   0.98602   0.00000  Uiso   1.00
C283   C     0.16560   0.22665   0.01748   0.00000  Uiso   1.00
C284   C     0.20953   0.19046   0.97907   0.00000  Uiso   1.00
C285   C     0.27522   0.10471   0.93880   0.00000  Uiso   1.00
C286   C     0.08680   0.38517   0.91237   0.00000  Uiso   1.00
C287   C     0.03690   0.37211   0.88188   0.00000  Uiso   1.00
C288   C     0.02197   0.40245   0.78144   0.00000  Uiso   1.00
C289   C     0.97910   0.43940   0.62681   0.00000  Uiso   1.00
C290   C     0.17332   0.43430   0.89439   0.00000  Uiso   1.00
C291   C     0.16622   0.47510   0.00473   0.00000  Uiso   1.00
C292   C     0.18972   0.54590   0.03871   0.00000  Uiso   1.00
C293   C     0.17822   0.57340   0.14265   0.00000  Uiso   1.00
C294   C     0.19051   0.34798   0.91858   0.00000  Uiso   1.00
C295   C     0.23444   0.31190   0.88011   0.00000  Uiso   1.00
C296   C     0.24339   0.23238   0.91151   0.00000  Uiso   1.00
C297   C     0.12059   0.42702   0.84492   0.00000  Uiso   1.00
C298   C     0.10574   0.45737   0.74451   0.00000  Uiso   1.00
C299   C     0.05583   0.44437   0.71388   0.00000  Uiso   1.00
H300   H     0.08479   0.32467   0.07106   0.00000  Uiso   1.00
H301   H     0.09473   0.42824   0.22825   0.00000  Uiso   1.00
H302   H     0.13943   0.19428   0.06967   0.00000  Uiso   1.00
H303   H     0.01075   0.33973   0.93409   0.00000  Uiso   1.00
H304   H     0.12067   0.56152   0.37281   0.00000  Uiso   1.00
H305   H     0.21493   0.06818   0.03839   0.00000  Uiso   1.00
H306   H     0.94358   0.37488   0.75250   0.00000  Uiso   1.00
H307   H     0.19963   0.46689   0.84188   0.00000  Uiso   1.00
H308   H     0.21587   0.57828   0.98650   0.00000  Uiso   1.00
H309   H     0.26058   0.34430   0.82792   0.00000  Uiso   1.00
H310   H     0.13190   0.48975   0.69234   0.00000  Uiso   1.00
H311   H     0.21900   0.68329   0.17660   0.00000  Uiso   1.00
H312   H     0.31326   0.18994   0.84218   0.00000  Uiso   1.00
H313   H     0.04191   0.49665   0.55628   0.00000  Uiso   1.00
O314   O     0.17846   0.69309   0.37399   0.00000  Uiso   1.00
O315   O     0.30212   0.04585   0.93523   0.00000  Uiso   1.00
O316   O     0.94612   0.44824   0.56015   0.00000  Uiso   1.00
N317   N     0.14157   0.57490   0.30677   0.00000  Uiso   1.00
N318   N     0.22971   0.11366   0.99413   0.00000  Uiso   1.00
N319   N     0.97602   0.40038   0.72683   0.00000  Uiso   1.00
N320   N     0.19448   0.64042   0.20119   0.00000  Uiso   1.00
N321   N     0.28262   0.17918   0.88855   0.00000  Uiso   1.00
N322   N     0.02893   0.46590   0.62125   0.00000  Uiso   1.00
C323   C     0.38890   0.64275   0.01855   0.00000  Uiso   1.00
C324   C     0.36758   0.56674   0.07218   0.00000  Uiso   1.00
C325   C     0.37912   0.53935   0.17608   0.00000  Uiso   1.00
C326   C     0.35564   0.46853   0.21021   0.00000  Uiso   1.00
C327   C     0.32765   0.35691   0.30376   0.00000  Uiso   1.00
C328   C     0.34328   0.69386   0.98602   0.00000  Uiso   1.00
C329   C     0.33440   0.77335   0.01748   0.00000  Uiso   1.00
C330   C     0.29047   0.80954   0.97907   0.00000  Uiso   1.00
C331   C     0.22478   0.89529   0.93880   0.00000  Uiso   1.00
C332   C     0.41320   0.61483   0.91237   0.00000  Uiso   1.00
C333   C     0.46310   0.62789   0.88188   0.00000  Uiso   1.00
C334   C     0.47803   0.59755   0.78144   0.00000  Uiso   1.00
C335   C     0.52090   0.56060   0.62681   0.00000  Uiso   1.00
C336   C     0.32668   0.56570   0.89439   0.00000  Uiso   1.00
C337   C     0.33378   0.52490   0.00473   0.00000  Uiso   1.00
C338   C     0.31028   0.45410   0.03871   0.00000  Uiso   1.00
C339   C     0.32178   0.42660   0.14265   0.00000  Uiso   1.00
C340   C     0.30949   0.65202   0.91858   0.00000  Uiso   1.00
C341   C     0.26556   0.68810   0.88011   0.00000  Uiso   1.00
C342   C     0.25661   0.76762   0.91151   0.00000  Uiso   1.00
C343   C     0.37941   0.57298   0.84492   0.00000  Uiso   1.00
C344   C     0.39426   0.54263   0.74451   0.00000  Uiso   1.00
C345   C     0.44417   0.55563   0.71388   0.00000  Uiso   1.00
H346   H     0.41521   0.67533   0.07106   0.00000  Uiso   1.00
H347   H     0.40527   0.57176   0.22825   0.00000  Uiso   1.00
H348   H     0.36057   0.80572   0.06967   0.00000  Uiso   1.00
H349   H     0.48925   0.66027   0.93409   0.00000  Uiso   1.00
H350   H     0.37933   0.43848   0.37281   0.00000  Uiso   1.00
H351   H     0.28507   0.93182   0.03839   0.00000  Uiso   1.00
H352   H     0.55642   0.62512   0.75250   0.00000  Uiso   1.00
H353   H     0.30037   0.53311   0.84188   0.00000  Uiso   1.00
H354   H     0.28413   0.42172   0.98650   0.00000  Uiso   1.00
H355   H     0.23942   0.65570   0.82792   0.00000  Uiso   1.00
H356   H     0.36810   0.51025   0.69234   0.00000  Uiso   1.00
H357   H     0.28100   0.31671   0.17660   0.00000  Uiso   1.00
H358   H     0.18674   0.81006   0.84218   0.00000  Uiso   1.00
H359   H     0.45809   0.50335   0.55628   0.00000  Uiso   1.00
O360   O     0.32154   0.30691   0.37399   0.00000  Uiso   1.00
O361   O     0.19788   0.95415   0.93523   0.00000  Uiso   1.00
O362   O     0.55388   0.55176   0.56015   0.00000  Uiso   1.00
N363   N     0.35843   0.42510   0.30677   0.00000  Uiso   1.00
N364   N     0.27029   0.88634   0.99413   0.00000  Uiso   1.00
N365   N     0.52398   0.59962   0.72683   0.00000  Uiso   1.00
N366   N     0.30552   0.35958   0.20119   0.00000  Uiso   1.00
N367   N     0.21738   0.82082   0.88855   0.00000  Uiso   1.00
N368   N     0.47107   0.53410   0.62125   0.00000  Uiso   1.00
