data_job_06971
_audit_creation_date              2018-12-19
_audit_creation_method            'Materials Studio'
_symmetry_space_group_name_H-M    'P1'
_symmetry_Int_Tables_number       1
_symmetry_cell_setting            triclinic
loop_
_symmetry_equiv_pos_as_xyz
  x,y,z
_cell_length_a                    24.0938
_cell_length_b                    23.7211
_cell_length_c                    22.3157
_cell_angle_alpha                 82.6694
_cell_angle_beta                  86.9705
_cell_angle_gamma                 83.1657
loop_
_atom_site_label
_atom_site_type_symbol
_atom_site_fract_x
_atom_site_fract_y
_atom_site_fract_z
_atom_site_U_iso_or_equiv
_atom_site_adp_type
_atom_site_occupancy
C1     C     0.72441   0.89909   0.42598   0.00000  Uiso   1.00
C2     C     0.66115   0.91060   0.43557   0.00000  Uiso   1.00
C3     C     0.63325   0.92599   0.48808   0.00000  Uiso   1.00
C4     C     0.57524   0.93459   0.48783   0.00000  Uiso   1.00
C5     C     0.48141   0.95343   0.51049   0.00000  Uiso   1.00
C6     C     0.73573   0.83890   0.40764   0.00000  Uiso   1.00
C7     C     0.77054   0.79400   0.43666   0.00000  Uiso   1.00
C8     C     0.77532   0.74225   0.41289   0.00000  Uiso   1.00
C9     C     0.79732   0.64978   0.39215   0.00000  Uiso   1.00
C10    C     0.73977   0.93950   0.37042   0.00000  Uiso   1.00
C11    C     0.77800   0.97918   0.36815   0.00000  Uiso   1.00
C12    C     0.78620   0.01212   0.31304   0.00000  Uiso   1.00
C13    C     0.81447   0.07585   0.23453   0.00000  Uiso   1.00
C14    C     0.67101   0.88702   0.33214   0.00000  Uiso   1.00
C15    C     0.63214   0.90404   0.38460   0.00000  Uiso   1.00
C16    C     0.57416   0.91263   0.38427   0.00000  Uiso   1.00
C17    C     0.54618   0.92803   0.43677   0.00000  Uiso   1.00
C18    C     0.70672   0.83234   0.35667   0.00000  Uiso   1.00
C19    C     0.71146   0.78064   0.33285   0.00000  Uiso   1.00
C20    C     0.74627   0.73568   0.36183   0.00000  Uiso   1.00
C21    C     0.71077   0.93294   0.31946   0.00000  Uiso   1.00
C22    C     0.71891   0.96583   0.26434   0.00000  Uiso   1.00
C23    C     0.75714   0.00555   0.26198   0.00000  Uiso   1.00
H24    H     0.74700   0.90419   0.46566   0.00000  Uiso   1.00
H25    H     0.65571   0.93105   0.52752   0.00000  Uiso   1.00
H26    H     0.79299   0.79909   0.47610   0.00000  Uiso   1.00
H27    H     0.80044   0.98424   0.40760   0.00000  Uiso   1.00
H28    H     0.54171   0.95792   0.57364   0.00000  Uiso   1.00
H29    H     0.83118   0.67967   0.46520   0.00000  Uiso   1.00
H30    H     0.84689   0.07010   0.32076   0.00000  Uiso   1.00
H31    H     0.64843   0.88191   0.29246   0.00000  Uiso   1.00
H32    H     0.55173   0.90755   0.34482   0.00000  Uiso   1.00
H33    H     0.68901   0.77559   0.29340   0.00000  Uiso   1.00
H34    H     0.69646   0.96074   0.22491   0.00000  Uiso   1.00
H35    H     0.45731   0.93884   0.42536   0.00000  Uiso   1.00
H36    H     0.74679   0.66059   0.31692   0.00000  Uiso   1.00
H37    H     0.76250   0.05103   0.17248   0.00000  Uiso   1.00
O38    O     0.43767   0.96563   0.53707   0.00000  Uiso   1.00
O39    O     0.81746   0.60058   0.39480   0.00000  Uiso   1.00
O40    O     0.83807   0.11282   0.20530   0.00000  Uiso   1.00
N41    N     0.53511   0.94992   0.53155   0.00000  Uiso   1.00
N42    N     0.80575   0.68977   0.43017   0.00000  Uiso   1.00
N43    N     0.82045   0.05478   0.29513   0.00000  Uiso   1.00
N44    N     0.48970   0.93966   0.45176   0.00000  Uiso   1.00
N45    N     0.76033   0.67951   0.35038   0.00000  Uiso   1.00
N46    N     0.77504   0.04452   0.21534   0.00000  Uiso   1.00
C47    C     0.25272   0.72178   0.98534   0.00000  Uiso   1.00
C48    C     0.30031   0.67753   0.00870   0.00000  Uiso   1.00
C49    C     0.35435   0.68852   0.01774   0.00000  Uiso   1.00
C50    C     0.39179   0.64224   0.03938   0.00000  Uiso   1.00
C51    C     0.46814   0.58193   0.07378   0.00000  Uiso   1.00
C52    C     0.23239   0.70044   0.92963   0.00000  Uiso   1.00
C53    C     0.22932   0.73070   0.87219   0.00000  Uiso   1.00
C54    C     0.20958   0.70369   0.82728   0.00000  Uiso   1.00
C55    C     0.18045   0.67897   0.73893   0.00000  Uiso   1.00
C56    C     0.20516   0.71764   0.03300   0.00000  Uiso   1.00
C57    C     0.17918   0.76237   0.06247   0.00000  Uiso   1.00
C58    C     0.13651   0.74985   0.10458   0.00000  Uiso   1.00
C59    C     0.06510   0.75184   0.17674   0.00000  Uiso   1.00
C60    C     0.22311   0.62004   0.00771   0.00000  Uiso   1.00
C61    C     0.28423   0.62227   0.02085   0.00000  Uiso   1.00
C62    C     0.32159   0.57596   0.04249   0.00000  Uiso   1.00
C63    C     0.37568   0.58687   0.05156   0.00000  Uiso   1.00
C64    C     0.21631   0.64518   0.94178   0.00000  Uiso   1.00
C65    C     0.19656   0.61813   0.89694   0.00000  Uiso   1.00
C66    C     0.19347   0.64833   0.83945   0.00000  Uiso   1.00
C67    C     0.18908   0.66238   0.04516   0.00000  Uiso   1.00
C68    C     0.14643   0.64979   0.08723   0.00000  Uiso   1.00
C69    C     0.12040   0.69449   0.11676   0.00000  Uiso   1.00
H70    H     0.26523   0.76481   0.97587   0.00000  Uiso   1.00
H71    H     0.36678   0.73130   0.00832   0.00000  Uiso   1.00
H72    H     0.24176   0.77346   0.86280   0.00000  Uiso   1.00
H73    H     0.19164   0.80512   0.05306   0.00000  Uiso   1.00
H74    H     0.47227   0.66977   0.04964   0.00000  Uiso   1.00
H75    H     0.20865   0.75869   0.74280   0.00000  Uiso   1.00
H76    H     0.10296   0.82546   0.14399   0.00000  Uiso   1.00
H77    H     0.21059   0.57701   0.01717   0.00000  Uiso   1.00
H78    H     0.30914   0.53319   0.05189   0.00000  Uiso   1.00
H79    H     0.18412   0.57536   0.90636   0.00000  Uiso   1.00
H80    H     0.13400   0.60702   0.09662   0.00000  Uiso   1.00
H81    H     0.42549   0.50898   0.08499   0.00000  Uiso   1.00
H82    H     0.16187   0.59790   0.77816   0.00000  Uiso   1.00
H83    H     0.05617   0.66467   0.17935   0.00000  Uiso   1.00
O84    O     0.51470   0.56394   0.08939   0.00000  Uiso   1.00
O85    O     0.16883   0.68060   0.68684   0.00000  Uiso   1.00
O86    O     0.03017   0.76820   0.21319   0.00000  Uiso   1.00
N87    N     0.44773   0.63794   0.05321   0.00000  Uiso   1.00
N88    N     0.20127   0.72107   0.76633   0.00000  Uiso   1.00
N89    N     0.10245   0.78350   0.14140   0.00000  Uiso   1.00
N90    N     0.42256   0.55143   0.07223   0.00000  Uiso   1.00
N91    N     0.17610   0.63455   0.78536   0.00000  Uiso   1.00
N92    N     0.07727   0.69698   0.16042   0.00000  Uiso   1.00
C93    C     0.91998   0.39956   0.85488   0.00000  Uiso   1.00
C94    C     0.91899   0.42474   0.78851   0.00000  Uiso   1.00
C95    C     0.92591   0.48090   0.76617   0.00000  Uiso   1.00
C96    C     0.92361   0.49554   0.70402   0.00000  Uiso   1.00
C97    C     0.92340   0.54074   0.60681   0.00000  Uiso   1.00
C98    C     0.86455   0.37474   0.86907   0.00000  Uiso   1.00
C99    C     0.82571   0.38886   0.91446   0.00000  Uiso   1.00
C100   C     0.77759   0.36140   0.92013   0.00000  Uiso   1.00
C101   C     0.69288   0.32895   0.94801   0.00000  Uiso   1.00
C102   C     0.96517   0.34858   0.85866   0.00000  Uiso   1.00
C103   C     0.01092   0.34070   0.89531   0.00000  Uiso   1.00
C104   C     0.04750   0.29121   0.89222   0.00000  Uiso   1.00
C105   C     0.11901   0.21814   0.90394   0.00000  Uiso   1.00
C106   C     0.90360   0.32568   0.78424   0.00000  Uiso   1.00
C107   C     0.91009   0.38461   0.75015   0.00000  Uiso   1.00
C108   C     0.90778   0.39916   0.68802   0.00000  Uiso   1.00
C109   C     0.91470   0.45534   0.66558   0.00000  Uiso   1.00
C110   C     0.85565   0.33461   0.83070   0.00000  Uiso   1.00
C111   C     0.80758   0.30712   0.83631   0.00000  Uiso   1.00
C112   C     0.76867   0.32120   0.88170   0.00000  Uiso   1.00
C113   C     0.95627   0.30845   0.82029   0.00000  Uiso   1.00
C114   C     0.99279   0.25896   0.81715   0.00000  Uiso   1.00
C115   C     0.03859   0.25101   0.85379   0.00000  Uiso   1.00
H116   H     0.92691   0.43081   0.88475   0.00000  Uiso   1.00
H117   H     0.93279   0.51195   0.79588   0.00000  Uiso   1.00
H118   H     0.83261   0.41992   0.94415   0.00000  Uiso   1.00
H119   H     0.01779   0.37176   0.92499   0.00000  Uiso   1.00
H120   H     0.93537   0.58422   0.68042   0.00000  Uiso   1.00
H121   H     0.72414   0.39015   0.99308   0.00000  Uiso   1.00
H122   H     0.11463   0.28861   0.95269   0.00000  Uiso   1.00
H123   H     0.89667   0.29444   0.75437   0.00000  Uiso   1.00
H124   H     0.90089   0.36810   0.65834   0.00000  Uiso   1.00
H125   H     0.80071   0.27607   0.80661   0.00000  Uiso   1.00
H126   H     0.98589   0.22792   0.78746   0.00000  Uiso   1.00
H127   H     0.90948   0.46746   0.56879   0.00000  Uiso   1.00
H128   H     0.69824   0.27339   0.88145   0.00000  Uiso   1.00
H129   H     0.08874   0.17186   0.84106   0.00000  Uiso   1.00
O130   O     0.92573   0.57676   0.56379   0.00000  Uiso   1.00
O131   O     0.64861   0.32214   0.97398   0.00000  Uiso   1.00
O132   O     0.16092   0.18893   0.92099   0.00000  Uiso   1.00
N133   N     0.92871   0.54663   0.66733   0.00000  Uiso   1.00
N134   N     0.73121   0.36519   0.95964   0.00000  Uiso   1.00
N135   N     0.09628   0.27026   0.92189   0.00000  Uiso   1.00
N136   N     0.91477   0.48380   0.60726   0.00000  Uiso   1.00
N137   N     0.71728   0.30237   0.89957   0.00000  Uiso   1.00
N138   N     0.08235   0.20743   0.86182   0.00000  Uiso   1.00
C139   C     0.12016   0.85218   0.47962   0.00000  Uiso   1.00
C140   C     0.07936   0.90663   0.47116   0.00000  Uiso   1.00
C141   C     0.08566   0.95791   0.49240   0.00000  Uiso   1.00
C142   C     0.04371   0.00272   0.47995   0.00000  Uiso   1.00
C143   C     0.98745   0.08823   0.47173   0.00000  Uiso   1.00
C144   C     0.13606   0.83650   0.41630   0.00000  Uiso   1.00
C145   C     0.19004   0.82879   0.39141   0.00000  Uiso   1.00
C146   C     0.19582   0.81456   0.33278   0.00000  Uiso   1.00
C147   C     0.22760   0.79114   0.23940   0.00000  Uiso   1.00
C148   C     0.08632   0.80547   0.51037   0.00000  Uiso   1.00
C149   C     0.09848   0.77168   0.56458   0.00000  Uiso   1.00
C150   C     0.06238   0.73131   0.58515   0.00000  Uiso   1.00
C151   C     0.01692   0.65973   0.63784   0.00000  Uiso   1.00
C152   C     0.03444   0.84058   0.41974   0.00000  Uiso   1.00
C153   C     0.03280   0.90033   0.43863   0.00000  Uiso   1.00
C154   C     0.99082   0.94508   0.42615   0.00000  Uiso   1.00
C155   C     0.99706   0.99641   0.44737   0.00000  Uiso   1.00
C156   C     0.08951   0.83019   0.38377   0.00000  Uiso   1.00
C157   C     0.09520   0.81596   0.32516   0.00000  Uiso   1.00
C158   C     0.14918   0.80825   0.30019   0.00000  Uiso   1.00
C159   C     0.03976   0.79917   0.47785   0.00000  Uiso   1.00
C160   C     0.00364   0.75885   0.49833   0.00000  Uiso   1.00
C161   C     0.01574   0.72500   0.55256   0.00000  Uiso   1.00
H162   H     0.15641   0.85709   0.50494   0.00000  Uiso   1.00
H163   H     0.12170   0.96277   0.51756   0.00000  Uiso   1.00
H164   H     0.22606   0.83367   0.41659   0.00000  Uiso   1.00
H165   H     0.13451   0.77657   0.58974   0.00000  Uiso   1.00
H166   H     0.06270   0.07717   0.51719   0.00000  Uiso   1.00
H167   H     0.28275   0.80493   0.30430   0.00000  Uiso   1.00
H168   H     0.08970   0.68451   0.66941   0.00000  Uiso   1.00
H169   H     0.99819   0.83568   0.39442   0.00000  Uiso   1.00
H170   H     0.95480   0.94019   0.40098   0.00000  Uiso   1.00
H171   H     0.05916   0.81109   0.30001   0.00000  Uiso   1.00
H172   H     0.96761   0.75398   0.47315   0.00000  Uiso   1.00
H173   H     0.92724   0.05884   0.42256   0.00000  Uiso   1.00
H174   H     0.14729   0.78660   0.20968   0.00000  Uiso   1.00
H175   H     0.95424   0.66619   0.57478   0.00000  Uiso   1.00
O176   O     0.96929   0.13714   0.47617   0.00000  Uiso   1.00
O177   O     0.25799   0.77997   0.19688   0.00000  Uiso   1.00
O178   O     0.00471   0.62199   0.67589   0.00000  Uiso   1.00
N179   N     0.03677   0.05851   0.49403   0.00000  Uiso   1.00
N180   N     0.24251   0.80399   0.29499   0.00000  Uiso   1.00
N181   N     0.06202   0.69140   0.63633   0.00000  Uiso   1.00
N182   N     0.96388   0.04864   0.44311   0.00000  Uiso   1.00
N183   N     0.16961   0.79413   0.24407   0.00000  Uiso   1.00
N184   N     0.98913   0.68154   0.58541   0.00000  Uiso   1.00
C185   C     0.96405   0.38408   0.28672   0.00000  Uiso   1.00
C186   C     0.00690   0.38820   0.23401   0.00000  Uiso   1.00
C187   C     0.06195   0.39893   0.23742   0.00000  Uiso   1.00
C188   C     0.09446   0.40103   0.18410   0.00000  Uiso   1.00
C189   C     0.16432   0.40867   0.11058   0.00000  Uiso   1.00
C190   C     0.94326   0.32557   0.28884   0.00000  Uiso   1.00
C191   C     0.94479   0.28366   0.33836   0.00000  Uiso   1.00
C192   C     0.92373   0.23303   0.33120   0.00000  Uiso   1.00
C193   C     0.89475   0.14346   0.34283   0.00000  Uiso   1.00
C194   C     0.91447   0.42792   0.26826   0.00000  Uiso   1.00
C195   C     0.89179   0.47206   0.30047   0.00000  Uiso   1.00
C196   C     0.84648   0.50760   0.27599   0.00000  Uiso   1.00
C197   C     0.77281   0.57695   0.25566   0.00000  Uiso   1.00
C198   C     0.92390   0.36870   0.18596   0.00000  Uiso   1.00
C199   C     0.98509   0.37984   0.17928   0.00000  Uiso   1.00
C200   C     0.01753   0.38193   0.12594   0.00000  Uiso   1.00
C201   C     0.07261   0.39266   0.12927   0.00000  Uiso   1.00
C202   C     0.92145   0.31722   0.23412   0.00000  Uiso   1.00
C203   C     0.90037   0.26665   0.22689   0.00000  Uiso   1.00
C204   C     0.90188   0.22467   0.27638   0.00000  Uiso   1.00
C205   C     0.89266   0.41957   0.21353   0.00000  Uiso   1.00
C206   C     0.84737   0.45505   0.18899   0.00000  Uiso   1.00
C207   C     0.82463   0.49924   0.22116   0.00000  Uiso   1.00
H208   H     0.98103   0.39057   0.32933   0.00000  Uiso   1.00
H209   H     0.07881   0.40539   0.27978   0.00000  Uiso   1.00
H210   H     0.96167   0.29013   0.38071   0.00000  Uiso   1.00
H211   H     0.90868   0.47851   0.34282   0.00000  Uiso   1.00
H212   H     0.17762   0.41811   0.20071   0.00000  Uiso   1.00
H213   H     0.93059   0.17509   0.41354   0.00000  Uiso   1.00
H214   H     0.81885   0.57232   0.33365   0.00000  Uiso   1.00
H215   H     0.90691   0.36220   0.14335   0.00000  Uiso   1.00
H216   H     0.00064   0.37546   0.08360   0.00000  Uiso   1.00
H217   H     0.88349   0.26020   0.18453   0.00000  Uiso   1.00
H218   H     0.83050   0.44858   0.14664   0.00000  Uiso   1.00
H219   H     0.11417   0.39382   0.04149   0.00000  Uiso   1.00
H220   H     0.86714   0.15080   0.25431   0.00000  Uiso   1.00
H221   H     0.75540   0.54803   0.17442   0.00000  Uiso   1.00
O222   O     0.20889   0.41518   0.08515   0.00000  Uiso   1.00
O223   O     0.88479   0.09636   0.36437   0.00000  Uiso   1.00
O224   O     0.73820   0.61751   0.25956   0.00000  Uiso   1.00
N225   N     0.14982   0.41058   0.17144   0.00000  Uiso   1.00
N226   N     0.91888   0.18337   0.37041   0.00000  Uiso   1.00
N227   N     0.81440   0.55474   0.29573   0.00000  Uiso   1.00
N228   N     0.11568   0.39751   0.08576   0.00000  Uiso   1.00
N229   N     0.88473   0.17030   0.28473   0.00000  Uiso   1.00
N230   N     0.78026   0.54167   0.21005   0.00000  Uiso   1.00
C231   C     0.42969   0.19305   0.09800   0.00000  Uiso   1.00
C232   C     0.43084   0.13317   0.13251   0.00000  Uiso   1.00
C233   C     0.44188   0.11839   0.19325   0.00000  Uiso   1.00
C234   C     0.44095   0.06131   0.21636   0.00000  Uiso   1.00
C235   C     0.44448   0.97453   0.27549   0.00000  Uiso   1.00
C236   C     0.37214   0.20661   0.07087   0.00000  Uiso   1.00
C237   C     0.33382   0.25359   0.07979   0.00000  Uiso   1.00
C238   C     0.28348   0.25834   0.05100   0.00000  Uiso   1.00
C239   C     0.19588   0.28561   0.01440   0.00000  Uiso   1.00
C240   C     0.47151   0.18792   0.04471   0.00000  Uiso   1.00
C241   C     0.51673   0.21919   0.03162   0.00000  Uiso   1.00
C242   C     0.55004   0.20820   0.98080   0.00000  Uiso   1.00
C243   C     0.61673   0.20644   0.90358   0.00000  Uiso   1.00
C244   C     0.40843   0.11796   0.03101   0.00000  Uiso   1.00
C245   C     0.41929   0.09238   0.09612   0.00000  Uiso   1.00
C246   C     0.41836   0.03531   0.11914   0.00000  Uiso   1.00
C247   C     0.42939   0.02045   0.17991   0.00000  Uiso   1.00
C248   C     0.36059   0.16583   0.03449   0.00000  Uiso   1.00
C249   C     0.31030   0.17051   0.00568   0.00000  Uiso   1.00
C250   C     0.27191   0.21748   0.01455   0.00000  Uiso   1.00
C251   C     0.45996   0.14713   0.00832   0.00000  Uiso   1.00
C252   C     0.49321   0.13610   0.95751   0.00000  Uiso   1.00
C253   C     0.53847   0.16734   0.94435   0.00000  Uiso   1.00
H254   H     0.43867   0.22481   0.12632   0.00000  Uiso   1.00
H255   H     0.45081   0.14997   0.22140   0.00000  Uiso   1.00
H256   H     0.34277   0.28515   0.10794   0.00000  Uiso   1.00
H257   H     0.52565   0.25074   0.05978   0.00000  Uiso   1.00
H258   H     0.45914   0.04901   0.31077   0.00000  Uiso   1.00
H259   H     0.23135   0.33406   0.07153   0.00000  Uiso   1.00
H260   H     0.61699   0.26151   0.96997   0.00000  Uiso   1.00
H261   H     0.39943   0.08620   0.00268   0.00000  Uiso   1.00
H262   H     0.40942   0.00375   0.09097   0.00000  Uiso   1.00
H263   H     0.30138   0.13894   0.97752   0.00000  Uiso   1.00
H264   H     0.48426   0.10453   0.92936   0.00000  Uiso   1.00
H265   H     0.42555   0.93034   0.20491   0.00000  Uiso   1.00
H266   H     0.19775   0.21539   0.96567   0.00000  Uiso   1.00
H267   H     0.58339   0.14284   0.86412   0.00000  Uiso   1.00
O268   O     0.44960   0.93794   0.31816   0.00000  Uiso   1.00
O269   O     0.15075   0.31192   0.00428   0.00000  Uiso   1.00
O270   O     0.65670   0.21673   0.87104   0.00000  Uiso   1.00
N271   N     0.44988   0.03239   0.27373   0.00000  Uiso   1.00
N272   N     0.23690   0.29889   0.05007   0.00000  Uiso   1.00
N273   N     0.59743   0.23108   0.95511   0.00000  Uiso   1.00
N274   N     0.43180   0.96854   0.21677   0.00000  Uiso   1.00
N275   N     0.21882   0.23504   0.99311   0.00000  Uiso   1.00
N276   N     0.57936   0.16722   0.89815   0.00000  Uiso   1.00
C277   C     0.25201   0.06472   0.74539   0.00000  Uiso   1.00
C278   C     0.31529   0.05117   0.73795   0.00000  Uiso   1.00
C279   C     0.34398   0.03246   0.68728   0.00000  Uiso   1.00
C280   C     0.40184   0.02243   0.68934   0.00000  Uiso   1.00
C281   C     0.49582   0.00015   0.67003   0.00000  Uiso   1.00
C282   C     0.24174   0.12623   0.76009   0.00000  Uiso   1.00
C283   C     0.20858   0.17062   0.72805   0.00000  Uiso   1.00
C284   C     0.20453   0.22378   0.74875   0.00000  Uiso   1.00
C285   C     0.18429   0.31801   0.76385   0.00000  Uiso   1.00
C286   C     0.23446   0.02738   0.80237   0.00000  Uiso   1.00
C287   C     0.19518   0.98866   0.80588   0.00000  Uiso   1.00
C288   C     0.18500   0.95860   0.86218   0.00000  Uiso   1.00
C289   C     0.15347   0.89934   0.94292   0.00000  Uiso   1.00
C290   C     0.30375   0.08020   0.83915   0.00000  Uiso   1.00
C291   C     0.34339   0.05959   0.78888   0.00000  Uiso   1.00
C292   C     0.40123   0.04959   0.79101   0.00000  Uiso   1.00
C293   C     0.43000   0.03086   0.74036   0.00000  Uiso   1.00
C294   C     0.26984   0.13464   0.81102   0.00000  Uiso   1.00
C295   C     0.26583   0.18775   0.83178   0.00000  Uiso   1.00
C296   C     0.23269   0.23220   0.79977   0.00000  Uiso   1.00
C297   C     0.26257   0.03579   0.85330   0.00000  Uiso   1.00
C298   C     0.25244   0.00579   0.90961   0.00000  Uiso   1.00
C299   C     0.21316   0.96703   0.91320   0.00000  Uiso   1.00
H300   H     0.23012   0.05818   0.70574   0.00000  Uiso   1.00
H301   H     0.32221   0.02596   0.64788   0.00000  Uiso   1.00
H302   H     0.18683   0.16410   0.68864   0.00000  Uiso   1.00
H303   H     0.17344   0.98216   0.76646   0.00000  Uiso   1.00
H304   H     0.43670   0.99397   0.60618   0.00000  Uiso   1.00
H305   H     0.15124   0.28523   0.69214   0.00000  Uiso   1.00
H306   H     0.12300   0.90159   0.85624   0.00000  Uiso   1.00
H307   H     0.32564   0.08675   0.87880   0.00000  Uiso   1.00
H308   H     0.42297   0.05610   0.83043   0.00000  Uiso   1.00
H309   H     0.28759   0.19424   0.87119   0.00000  Uiso   1.00
H310   H     0.27420   0.01230   0.94901   0.00000  Uiso   1.00
H311   H     0.51848   0.01843   0.75434   0.00000  Uiso   1.00
H312   H     0.23301   0.30970   0.84030   0.00000  Uiso   1.00
H313   H     0.20477   0.92605   0.00440   0.00000  Uiso   1.00
O314   O     0.53990   0.98554   0.64531   0.00000  Uiso   1.00
O315   O     0.16537   0.36766   0.75810   0.00000  Uiso   1.00
O316   O     0.12832   0.86433   0.97339   0.00000  Uiso   1.00
N317   N     0.44259   0.00392   0.64769   0.00000  Uiso   1.00
N318   N     0.17571   0.27624   0.72805   0.00000  Uiso   1.00
N319   N     0.14929   0.91758   0.88147   0.00000  Uiso   1.00
N320   N     0.48659   0.01708   0.72742   0.00000  Uiso   1.00
N321   N     0.21971   0.28940   0.80778   0.00000  Uiso   1.00
N322   N     0.19329   0.93074   0.96120   0.00000  Uiso   1.00
C323   C     0.70329   0.25509   0.18803   0.00000  Uiso   1.00
C324   C     0.65802   0.30424   0.17068   0.00000  Uiso   1.00
C325   C     0.60214   0.29898   0.16313   0.00000  Uiso   1.00
C326   C     0.56737   0.34909   0.14721   0.00000  Uiso   1.00
C327   C     0.49397   0.41728   0.12152   0.00000  Uiso   1.00
C328   C     0.72854   0.26899   0.24489   0.00000  Uiso   1.00
C329   C     0.73197   0.23408   0.29974   0.00000  Uiso   1.00
C330   C     0.75657   0.25452   0.34630   0.00000  Uiso   1.00
C331   C     0.79270   0.26796   0.43582   0.00000  Uiso   1.00
C332   C     0.74907   0.25944   0.13835   0.00000  Uiso   1.00
C333   C     0.76977   0.21651   0.10362   0.00000  Uiso   1.00
C334   C     0.81167   0.22890   0.06049   0.00000  Uiso   1.00
C335   C     0.87967   0.22753   0.98459   0.00000  Uiso   1.00
C336   C     0.74090   0.35344   0.17319   0.00000  Uiso   1.00
C337   C     0.67845   0.35765   0.16262   0.00000  Uiso   1.00
C338   C     0.64376   0.40778   0.14670   0.00000  Uiso   1.00
C339   C     0.58784   0.40260   0.13913   0.00000  Uiso   1.00
C340   C     0.74898   0.32240   0.23683   0.00000  Uiso   1.00
C341   C     0.77359   0.34289   0.28332   0.00000  Uiso   1.00
C342   C     0.77704   0.30803   0.33822   0.00000  Uiso   1.00
C343   C     0.76950   0.31286   0.13029   0.00000  Uiso   1.00
C344   C     0.81138   0.32532   0.08720   0.00000  Uiso   1.00
C345   C     0.83214   0.28242   0.05241   0.00000  Uiso   1.00
H346   H     0.68738   0.21350   0.19431   0.00000  Uiso   1.00
H347   H     0.58634   0.25763   0.16937   0.00000  Uiso   1.00
H348   H     0.71616   0.19275   0.30596   0.00000  Uiso   1.00
H349   H     0.75395   0.17518   0.10988   0.00000  Uiso   1.00
H350   H     0.48333   0.33011   0.13820   0.00000  Uiso   1.00
H351   H     0.75707   0.19329   0.42620   0.00000  Uiso   1.00
H352   H     0.83676   0.15624   0.01271   0.00000  Uiso   1.00
H353   H     0.75681   0.39502   0.16691   0.00000  Uiso   1.00
H354   H     0.65958   0.44912   0.14047   0.00000  Uiso   1.00
H355   H     0.78939   0.38423   0.27706   0.00000  Uiso   1.00
H356   H     0.82719   0.36666   0.08097   0.00000  Uiso   1.00
H357   H     0.54277   0.48553   0.11474   0.00000  Uiso   1.00
H358   H     0.81651   0.34871   0.40274   0.00000  Uiso   1.00
H359   H     0.89620   0.31166   0.98925   0.00000  Uiso   1.00
O360   O     0.44784   0.44013   0.10959   0.00000  Uiso   1.00
O361   O     0.80697   0.26062   0.48743   0.00000  Uiso   1.00
O362   O     0.91153   0.21202   0.94494   0.00000  Uiso   1.00
N363   N     0.51067   0.35927   0.13629   0.00000  Uiso   1.00
N364   N     0.76658   0.23135   0.40556   0.00000  Uiso   1.00
N365   N     0.84110   0.19671   0.01899   0.00000  Uiso   1.00
N366   N     0.54265   0.44290   0.12367   0.00000  Uiso   1.00
N367   N     0.79857   0.31498   0.39293   0.00000  Uiso   1.00
N368   N     0.87309   0.28034   0.00637   0.00000  Uiso   1.00
C369   C     0.07298   0.56648   0.31035   0.00000  Uiso   1.00
C370   C     0.06914   0.53824   0.37554   0.00000  Uiso   1.00
C371   C     0.06230   0.48122   0.39361   0.00000  Uiso   1.00
C372   C     0.05975   0.46368   0.45538   0.00000  Uiso   1.00
C373   C     0.05317   0.41401   0.55019   0.00000  Uiso   1.00
C374   C     0.12812   0.59269   0.30354   0.00000  Uiso   1.00
C375   C     0.17087   0.58146   0.26107   0.00000  Uiso   1.00
C376   C     0.21797   0.60976   0.26222   0.00000  Uiso   1.00
C377   C     0.30295   0.64466   0.24521   0.00000  Uiso   1.00
C378   C     0.02693   0.61665   0.30513   0.00000  Uiso   1.00
C379   C     0.98460   0.62558   0.26399   0.00000  Uiso   1.00
C380   C     0.94650   0.67406   0.26647   0.00000  Uiso   1.00
C381   C     0.87436   0.74617   0.25194   0.00000  Uiso   1.00
C382   C     0.08061   0.63672   0.38791   0.00000  Uiso   1.00
C383   C     0.07328   0.57639   0.41767   0.00000  Uiso   1.00
C384   C     0.07074   0.55893   0.47942   0.00000  Uiso   1.00
C385   C     0.06390   0.50190   0.49758   0.00000  Uiso   1.00
C386   C     0.13227   0.63084   0.34566   0.00000  Uiso   1.00
C387   C     0.17931   0.65916   0.34688   0.00000  Uiso   1.00
C388   C     0.22212   0.64797   0.30442   0.00000  Uiso   1.00
C389   C     0.03107   0.65480   0.34726   0.00000  Uiso   1.00
C390   C     0.99304   0.70329   0.34980   0.00000  Uiso   1.00
C391   C     0.95065   0.71228   0.30867   0.00000  Uiso   1.00
H392   H     0.06976   0.53678   0.27755   0.00000  Uiso   1.00
H393   H     0.05910   0.45171   0.36100   0.00000  Uiso   1.00
H394   H     0.16765   0.55194   0.22847   0.00000  Uiso   1.00
H395   H     0.98140   0.59605   0.23139   0.00000  Uiso   1.00
H396   H     0.04913   0.37421   0.47209   0.00000  Uiso   1.00
H397   H     0.27800   0.58555   0.19263   0.00000  Uiso   1.00
H398   H     0.88527   0.67858   0.19879   0.00000  Uiso   1.00
H399   H     0.08384   0.66642   0.42071   0.00000  Uiso   1.00
H400   H     0.07395   0.58846   0.51201   0.00000  Uiso   1.00
H401   H     0.18250   0.68869   0.37948   0.00000  Uiso   1.00
H402   H     0.99626   0.73280   0.38241   0.00000  Uiso   1.00
H403   H     0.06118   0.48520   0.59466   0.00000  Uiso   1.00
H404   H     0.29006   0.69655   0.31519   0.00000  Uiso   1.00
H405   H     0.89732   0.78957   0.32136   0.00000  Uiso   1.00
O406   O     0.04841   0.37608   0.59085   0.00000  Uiso   1.00
O407   O     0.34868   0.65336   0.22420   0.00000  Uiso   1.00
O408   O     0.83342   0.77540   0.23229   0.00000  Uiso   1.00
N409   N     0.05331   0.41103   0.48840   0.00000  Uiso   1.00
N410   N     0.26730   0.60862   0.22713   0.00000  Uiso   1.00
N411   N     0.90013   0.69560   0.23288   0.00000  Uiso   1.00
N412   N     0.05979   0.47076   0.55436   0.00000  Uiso   1.00
N413   N     0.27378   0.66834   0.29309   0.00000  Uiso   1.00
N414   N     0.90662   0.75532   0.29884   0.00000  Uiso   1.00
C415   C     0.92811   0.07989   0.68022   0.00000  Uiso   1.00
C416   C     0.98354   0.04194   0.67598   0.00000  Uiso   1.00
C417   C     0.99217   0.99163   0.64945   0.00000  Uiso   1.00
C418   C     0.04596   0.96312   0.65020   0.00000  Uiso   1.00
C419   C     0.12540   0.90096   0.63964   0.00000  Uiso   1.00
C420   C     0.91650   0.08506   0.74726   0.00000  Uiso   1.00
C421   C     0.86876   0.07101   0.78065   0.00000  Uiso   1.00
C422   C     0.86611   0.07881   0.84139   0.00000  Uiso   1.00
C423   C     0.84145   0.08364   0.94147   0.00000  Uiso   1.00
C424   C     0.93921   0.13928   0.65067   0.00000  Uiso   1.00
C425   C     0.91057   0.17084   0.60286   0.00000  Uiso   1.00
C426   C     0.92703   0.22430   0.58229   0.00000  Uiso   1.00
C427   C     0.93764   0.31332   0.53241   0.00000  Uiso   1.00
C428   C     0.00826   0.11871   0.72872   0.00000  Uiso   1.00
C429   C     0.02707   0.06302   0.70233   0.00000  Uiso   1.00
C430   C     0.08086   0.03458   0.70311   0.00000  Uiso   1.00
C431   C     0.08957   0.98424   0.67659   0.00000  Uiso   1.00
C432   C     0.96003   0.10614   0.77360   0.00000  Uiso   1.00
C433   C     0.95744   0.11396   0.83431   0.00000  Uiso   1.00
C434   C     0.90972   0.09993   0.86778   0.00000  Uiso   1.00
C435   C     0.98275   0.16037   0.67701   0.00000  Uiso   1.00
C436   C     0.99925   0.21379   0.65652   0.00000  Uiso   1.00
C437   C     0.97064   0.24542   0.60869   0.00000  Uiso   1.00
H438   H     0.89421   0.06347   0.65972   0.00000  Uiso   1.00
H439   H     0.95847   0.97532   0.62907   0.00000  Uiso   1.00
H440   H     0.83508   0.05470   0.76025   0.00000  Uiso   1.00
H441   H     0.87688   0.15451   0.58249   0.00000  Uiso   1.00
H442   H     0.04891   0.88688   0.60674   0.00000  Uiso   1.00
H443   H     0.78872   0.05427   0.88332   0.00000  Uiso   1.00
H444   H     0.87686   0.26474   0.50848   0.00000  Uiso   1.00
H445   H     0.04215   0.13513   0.74923   0.00000  Uiso   1.00
H446   H     0.11454   0.05091   0.72350   0.00000  Uiso   1.00
H447   H     0.99114   0.13029   0.85468   0.00000  Uiso   1.00
H448   H     0.03294   0.23010   0.67692   0.00000  Uiso   1.00
H449   H     0.17558   0.94823   0.68338   0.00000  Uiso   1.00
H450   H     0.91539   0.11562   0.95997   0.00000  Uiso   1.00
H451   H     0.00353   0.32609   0.58512   0.00000  Uiso   1.00
O452   O     0.15719   0.86085   0.62654   0.00000  Uiso   1.00
O453   O     0.81582   0.08047   0.98940   0.00000  Uiso   1.00
O454   O     0.93147   0.35659   0.49761   0.00000  Uiso   1.00
N455   N     0.06879   0.91288   0.62830   0.00000  Uiso   1.00
N456   N     0.82553   0.06937   0.88689   0.00000  Uiso   1.00
N457   N     0.90793   0.26615   0.53645   0.00000  Uiso   1.00
N458   N     0.13695   0.94589   0.66954   0.00000  Uiso   1.00
N459   N     0.89369   0.10238   0.92813   0.00000  Uiso   1.00
N460   N     0.97609   0.29916   0.57769   0.00000  Uiso   1.00
C461   C     0.00947   0.58378   0.87371   0.00000  Uiso   1.00
C462   C     0.96566   0.57715   0.92522   0.00000  Uiso   1.00
C463   C     0.91099   0.56618   0.91961   0.00000  Uiso   1.00
C464   C     0.87745   0.56162   0.97215   0.00000  Uiso   1.00
C465   C     0.80631   0.55041   0.04359   0.00000  Uiso   1.00
C466   C     0.02944   0.64222   0.87513   0.00000  Uiso   1.00
C467   C     0.02839   0.68595   0.82740   0.00000  Uiso   1.00
C468   C     0.04855   0.73616   0.83777   0.00000  Uiso   1.00
C469   C     0.07645   0.82595   0.83144   0.00000  Uiso   1.00
C470   C     0.05912   0.53980   0.89155   0.00000  Uiso   1.00
C471   C     0.08304   0.49742   0.85762   0.00000  Uiso   1.00
C472   C     0.12819   0.46141   0.88182   0.00000  Uiso   1.00
C473   C     0.20218   0.39218   0.90098   0.00000  Uiso   1.00
C474   C     0.04713   0.59518   0.97700   0.00000  Uiso   1.00
C475   C     0.98612   0.58335   0.98132   0.00000  Uiso   1.00
C476   C     0.95265   0.57880   0.03388   0.00000  Uiso   1.00
C477   C     0.89794   0.56782   0.02835   0.00000  Uiso   1.00
C478   C     0.04989   0.64841   0.93123   0.00000  Uiso   1.00
C479   C     0.07006   0.69857   0.94167   0.00000  Uiso   1.00
C480   C     0.06904   0.74237   0.89397   0.00000  Uiso   1.00
C481   C     0.07957   0.54599   0.94766   0.00000  Uiso   1.00
C482   C     0.12470   0.51004   0.97190   0.00000  Uiso   1.00
C483   C     0.14868   0.46762   0.93802   0.00000  Uiso   1.00
H484   H     0.99355   0.57896   0.83003   0.00000  Uiso   1.00
H485   H     0.89518   0.56140   0.87618   0.00000  Uiso   1.00
H486   H     0.01257   0.68114   0.78399   0.00000  Uiso   1.00
H487   H     0.06720   0.49264   0.81421   0.00000  Uiso   1.00
H488   H     0.79513   0.54467   0.95209   0.00000  Uiso   1.00
H489   H     0.04267   0.79716   0.75768   0.00000  Uiso   1.00
H490   H     0.15788   0.39967   0.82141   0.00000  Uiso   1.00
H491   H     0.06305   0.60001   0.02068   0.00000  Uiso   1.00
H492   H     0.96849   0.58359   0.07729   0.00000  Uiso   1.00
H493   H     0.08588   0.70334   0.98509   0.00000  Uiso   1.00
H494   H     0.14052   0.51484   0.01532   0.00000  Uiso   1.00
H495   H     0.85463   0.56269   0.11532   0.00000  Uiso   1.00
H496   H     0.10218   0.81518   0.92091   0.00000  Uiso   1.00
H497   H     0.21738   0.41769   0.98464   0.00000  Uiso   1.00
O498   O     0.76142   0.54252   0.06750   0.00000  Uiso   1.00
O499   O     0.08619   0.87377   0.81245   0.00000  Uiso   1.00
O500   O     0.23734   0.35228   0.89606   0.00000  Uiso   1.00
N501   N     0.82211   0.55115   0.98274   0.00000  Uiso   1.00
N502   N     0.05354   0.78722   0.80098   0.00000  Uiso   1.00
N503   N     0.16126   0.41561   0.86056   0.00000  Uiso   1.00
N504   N     0.85413   0.56085   0.07057   0.00000  Uiso   1.00
N505   N     0.08556   0.79691   0.88881   0.00000  Uiso   1.00
N506   N     0.19328   0.42531   0.94839   0.00000  Uiso   1.00
C507   C     0.55920   0.77823   0.07536   0.00000  Uiso   1.00
C508   C     0.55850   0.83657   0.03755   0.00000  Uiso   1.00
C509   C     0.54306   0.84929   0.97787   0.00000  Uiso   1.00
C510   C     0.54527   0.90521   0.95126   0.00000  Uiso   1.00
C511   C     0.54163   0.98946   0.88768   0.00000  Uiso   1.00
C512   C     0.61857   0.76296   0.09741   0.00000  Uiso   1.00
C513   C     0.65363   0.71379   0.08807   0.00000  Uiso   1.00
C514   C     0.70641   0.70775   0.11185   0.00000  Uiso   1.00
C515   C     0.79601   0.67769   0.14123   0.00000  Uiso   1.00
C516   C     0.52203   0.78770   0.13146   0.00000  Uiso   1.00
C517   C     0.47592   0.75933   0.15077   0.00000  Uiso   1.00
C518   C     0.44742   0.77411   0.20324   0.00000  Uiso   1.00
C519   C     0.38712   0.78248   0.28549   0.00000  Uiso   1.00
C520   C     0.59058   0.85491   0.13422   0.00000  Uiso   1.00
C521   C     0.57555   0.87821   0.06952   0.00000  Uiso   1.00
C522   C     0.57779   0.93413   0.04299   0.00000  Uiso   1.00
C523   C     0.56235   0.94694   0.98329   0.00000  Uiso   1.00
C524   C     0.63562   0.80461   0.12937   0.00000  Uiso   1.00
C525   C     0.68836   0.79863   0.15318   0.00000  Uiso   1.00
C526   C     0.72349   0.74947   0.14388   0.00000  Uiso   1.00
C527   C     0.53907   0.82935   0.16343   0.00000  Uiso   1.00
C528   C     0.51064   0.84418   0.21588   0.00000  Uiso   1.00
C529   C     0.46450   0.81584   0.23526   0.00000  Uiso   1.00
H530   H     0.54593   0.74580   0.05047   0.00000  Uiso   1.00
H531   H     0.52988   0.81705   0.95315   0.00000  Uiso   1.00
H532   H     0.64043   0.68156   0.06333   0.00000  Uiso   1.00
H533   H     0.46274   0.72710   0.12602   0.00000  Uiso   1.00
H534   H     0.51962   0.91440   0.85934   0.00000  Uiso   1.00
H535   H     0.75271   0.62872   0.09168   0.00000  Uiso   1.00
H536   H     0.37802   0.72475   0.22387   0.00000  Uiso   1.00
H537   H     0.60386   0.88734   0.15911   0.00000  Uiso   1.00
H538   H     0.59098   0.96636   0.06774   0.00000  Uiso   1.00
H539   H     0.70153   0.83087   0.17792   0.00000  Uiso   1.00
H540   H     0.52385   0.87641   0.24061   0.00000  Uiso   1.00
H541   H     0.56922   0.03559   0.95234   0.00000  Uiso   1.00
H542   H     0.80231   0.74990   0.18468   0.00000  Uiso   1.00
H543   H     0.42762   0.84593   0.31687   0.00000  Uiso   1.00
O544   O     0.53492   0.02442   0.84377   0.00000  Uiso   1.00
O545   O     0.84073   0.64961   0.14860   0.00000  Uiso   1.00
O546   O     0.34914   0.77560   0.32203   0.00000  Uiso   1.00
N547   N     0.53305   0.93208   0.89377   0.00000  Uiso   1.00
N548   N     0.75098   0.66499   0.11098   0.00000  Uiso   1.00
N549   N     0.40069   0.75476   0.23458   0.00000  Uiso   1.00
N550   N     0.55973   0.99729   0.94381   0.00000  Uiso   1.00
N551   N     0.77767   0.73020   0.16103   0.00000  Uiso   1.00
N552   N     0.42737   0.81996   0.28463   0.00000  Uiso   1.00
