data_job_07098
_audit_creation_date              2018-12-19
_audit_creation_method            'Materials Studio'
_symmetry_space_group_name_H-M    'P1'
_symmetry_Int_Tables_number       1
_symmetry_cell_setting            triclinic
loop_
_symmetry_equiv_pos_as_xyz
  x,y,z
_cell_length_a                    20.5191
_cell_length_b                    24.3993
_cell_length_c                    20.8852
_cell_angle_alpha                 108.8930
_cell_angle_beta                  96.6023
_cell_angle_gamma                 98.4771
loop_
_atom_site_label
_atom_site_type_symbol
_atom_site_fract_x
_atom_site_fract_y
_atom_site_fract_z
_atom_site_U_iso_or_equiv
_atom_site_adp_type
_atom_site_occupancy
C1     C     0.75898   0.44785   0.46650   0.00000  Uiso   1.00
C2     C     0.75858   0.46014   0.54282   0.00000  Uiso   1.00
C3     C     0.70356   0.46833   0.57519   0.00000  Uiso   1.00
C4     C     0.71347   0.47909   0.64541   0.00000  Uiso   1.00
C5     C     0.70331   0.49782   0.75839   0.00000  Uiso   1.00
C6     C     0.81299   0.49615   0.46242   0.00000  Uiso   1.00
C7     C     0.80372   0.53461   0.42718   0.00000  Uiso   1.00
C8     C     0.85944   0.57567   0.42972   0.00000  Uiso   1.00
C9     C     0.93376   0.65029   0.41783   0.00000  Uiso   1.00
C10    C     0.78449   0.39038   0.44026   0.00000  Uiso   1.00
C11    C     0.75128   0.33992   0.38637   0.00000  Uiso   1.00
C12    C     0.78301   0.29194   0.37024   0.00000  Uiso   1.00
C13    C     0.81309   0.20233   0.32394   0.00000  Uiso   1.00
C14    C     0.87442   0.45239   0.53365   0.00000  Uiso   1.00
C15    C     0.82128   0.46261   0.57929   0.00000  Uiso   1.00
C16    C     0.83127   0.47335   0.64949   0.00000  Uiso   1.00
C17    C     0.77628   0.48155   0.68195   0.00000  Uiso   1.00
C18    C     0.87569   0.49861   0.49889   0.00000  Uiso   1.00
C19    C     0.93143   0.53963   0.50148   0.00000  Uiso   1.00
C20    C     0.92225   0.57814   0.46626   0.00000  Uiso   1.00
C21    C     0.84719   0.39284   0.47673   0.00000  Uiso   1.00
C22    C     0.87899   0.34494   0.46067   0.00000  Uiso   1.00
C23    C     0.84583   0.29440   0.40678   0.00000  Uiso   1.00
H24    H     0.71017   0.44594   0.43810   0.00000  Uiso   1.00
H25    H     0.65505   0.46643   0.54695   0.00000  Uiso   1.00
H26    H     0.75519   0.53269   0.39896   0.00000  Uiso   1.00
H27    H     0.70276   0.33803   0.35816   0.00000  Uiso   1.00
H28    H     0.62159   0.49025   0.68372   0.00000  Uiso   1.00
H29    H     0.83275   0.62996   0.37165   0.00000  Uiso   1.00
H30    H     0.72219   0.21947   0.28562   0.00000  Uiso   1.00
H31    H     0.92323   0.45431   0.56204   0.00000  Uiso   1.00
H32    H     0.87980   0.47525   0.67770   0.00000  Uiso   1.00
H33    H     0.97994   0.54152   0.52971   0.00000  Uiso   1.00
H34    H     0.92751   0.34686   0.48891   0.00000  Uiso   1.00
H35    H     0.80400   0.49742   0.78984   0.00000  Uiso   1.00
H36    H     0.01517   0.63712   0.47777   0.00000  Uiso   1.00
H37    H     0.90460   0.22664   0.39174   0.00000  Uiso   1.00
O38    O     0.68038   0.50748   0.81063   0.00000  Uiso   1.00
O39    O     0.95743   0.69076   0.40120   0.00000  Uiso   1.00
O40    O     0.81236   0.15222   0.28833   0.00000  Uiso   1.00
N41    N     0.67048   0.48905   0.69282   0.00000  Uiso   1.00
N42    N     0.86790   0.61967   0.40107   0.00000  Uiso   1.00
N43    N     0.76454   0.23591   0.32062   0.00000  Uiso   1.00
N44    N     0.76863   0.49291   0.74992   0.00000  Uiso   1.00
N45    N     0.96606   0.62353   0.45817   0.00000  Uiso   1.00
N46    N     0.86270   0.23977   0.37772   0.00000  Uiso   1.00
C47    C     0.41650   0.84930   0.42751   0.00000  Uiso   1.00
C48    C     0.45415   0.80070   0.43128   0.00000  Uiso   1.00
C49    C     0.43985   0.76258   0.46698   0.00000  Uiso   1.00
C50    C     0.48016   0.72116   0.46407   0.00000  Uiso   1.00
C51    C     0.53062   0.64620   0.47562   0.00000  Uiso   1.00
C52    C     0.46879   0.90643   0.45292   0.00000  Uiso   1.00
C53    C     0.46681   0.95722   0.50681   0.00000  Uiso   1.00
C54    C     0.51945   0.00481   0.52210   0.00000  Uiso   1.00
C55    C     0.59263   0.09402   0.56721   0.00000  Uiso   1.00
C56    C     0.39305   0.83680   0.35128   0.00000  Uiso   1.00
C57    C     0.32738   0.82905   0.31972   0.00000  Uiso   1.00
C58    C     0.31625   0.81803   0.24944   0.00000  Uiso   1.00
C59    C     0.27183   0.79912   0.13676   0.00000  Uiso   1.00
C60    C     0.51352   0.84351   0.35884   0.00000  Uiso   1.00
C61    C     0.50684   0.79756   0.39398   0.00000  Uiso   1.00
C62    C     0.54719   0.75618   0.39101   0.00000  Uiso   1.00
C63    C     0.53295   0.71801   0.42670   0.00000  Uiso   1.00
C64    C     0.52149   0.90329   0.41562   0.00000  Uiso   1.00
C65    C     0.57414   0.95082   0.43084   0.00000  Uiso   1.00
C66    C     0.57224   0.00166   0.48474   0.00000  Uiso   1.00
C67    C     0.44575   0.83366   0.31399   0.00000  Uiso   1.00
C68    C     0.43472   0.82265   0.24375   0.00000  Uiso   1.00
C69    C     0.36904   0.81488   0.21208   0.00000  Uiso   1.00
H70    H     0.37548   0.85175   0.45655   0.00000  Uiso   1.00
H71    H     0.39907   0.76503   0.49585   0.00000  Uiso   1.00
H72    H     0.42602   0.95964   0.53566   0.00000  Uiso   1.00
H73    H     0.28662   0.83149   0.34860   0.00000  Uiso   1.00
H74    H     0.44848   0.66752   0.52299   0.00000  Uiso   1.00
H75    H     0.50529   0.07787   0.60691   0.00000  Uiso   1.00
H76    H     0.21133   0.80764   0.21246   0.00000  Uiso   1.00
H77    H     0.55454   0.84107   0.32981   0.00000  Uiso   1.00
H78    H     0.58796   0.75376   0.36215   0.00000  Uiso   1.00
H79    H     0.61491   0.94837   0.40196   0.00000  Uiso   1.00
H80    H     0.47551   0.82022   0.21490   0.00000  Uiso   1.00
H81    H     0.60179   0.65837   0.41447   0.00000  Uiso   1.00
H82    H     0.65861   0.06873   0.49840   0.00000  Uiso   1.00
H83    H     0.36465   0.79849   0.10395   0.00000  Uiso   1.00
O84    O     0.54390   0.60572   0.49231   0.00000  Uiso   1.00
O85    O     0.61843   0.14409   0.60241   0.00000  Uiso   1.00
O86    O     0.23276   0.78954   0.08490   0.00000  Uiso   1.00
N87    N     0.47997   0.67734   0.49300   0.00000  Uiso   1.00
N88    N     0.53309   0.06099   0.57147   0.00000  Uiso   1.00
N89    N     0.25826   0.80836   0.20270   0.00000  Uiso   1.00
N90    N     0.56246   0.67242   0.43461   0.00000  Uiso   1.00
N91    N     0.61559   0.05607   0.51308   0.00000  Uiso   1.00
N92    N     0.34076   0.80344   0.14431   0.00000  Uiso   1.00
C93    C     0.34200   0.48310   0.78404   0.00000  Uiso   1.00
C94    C     0.36036   0.53332   0.75694   0.00000  Uiso   1.00
C95    C     0.34541   0.53002   0.68912   0.00000  Uiso   1.00
C96    C     0.36657   0.58083   0.67475   0.00000  Uiso   1.00
C97    C     0.38979   0.65086   0.62482   0.00000  Uiso   1.00
C98    C     0.40760   0.47557   0.81950   0.00000  Uiso   1.00
C99    C     0.43236   0.42372   0.80428   0.00000  Uiso   1.00
C100   C     0.49328   0.42592   0.84258   0.00000  Uiso   1.00
C101   C     0.58982   0.40628   0.88980   0.00000  Uiso   1.00
C102   C     0.30203   0.50626   0.84083   0.00000  Uiso   1.00
C103   C     0.23804   0.48021   0.84355   0.00000  Uiso   1.00
C104   C     0.21009   0.50823   0.89982   0.00000  Uiso   1.00
C105   C     0.14272   0.53625   0.98016   0.00000  Uiso   1.00
C106   C     0.40616   0.57920   0.87912   0.00000  Uiso   1.00
C107   C     0.39520   0.58552   0.80859   0.00000  Uiso   1.00
C108   C     0.41639   0.63635   0.79432   0.00000  Uiso   1.00
C109   C     0.40147   0.63312   0.72649   0.00000  Uiso   1.00
C110   C     0.44244   0.52777   0.87114   0.00000  Uiso   1.00
C111   C     0.50334   0.53004   0.90948   0.00000  Uiso   1.00
C112   C     0.52819   0.47821   0.89432   0.00000  Uiso   1.00
C113   C     0.33687   0.55846   0.89247   0.00000  Uiso   1.00
C114   C     0.30902   0.58653   0.94875   0.00000  Uiso   1.00
C115   C     0.24500   0.56053   0.95156   0.00000  Uiso   1.00
H116   H     0.31488   0.44246   0.74383   0.00000  Uiso   1.00
H117   H     0.31845   0.48962   0.64917   0.00000  Uiso   1.00
H118   H     0.40538   0.38333   0.76431   0.00000  Uiso   1.00
H119   H     0.21109   0.43981   0.80358   0.00000  Uiso   1.00
H120   H     0.33779   0.56491   0.56699   0.00000  Uiso   1.00
H121   H     0.52108   0.34080   0.80980   0.00000  Uiso   1.00
H122   H     0.11138   0.45990   0.89259   0.00000  Uiso   1.00
H123   H     0.43329   0.61984   0.91933   0.00000  Uiso   1.00
H124   H     0.44335   0.67673   0.83430   0.00000  Uiso   1.00
H125   H     0.53028   0.57044   0.94944   0.00000  Uiso   1.00
H126   H     0.33600   0.62692   0.98871   0.00000  Uiso   1.00
H127   H     0.43917   0.71678   0.71725   0.00000  Uiso   1.00
H128   H     0.62246   0.49266   0.96006   0.00000  Uiso   1.00
H129   H     0.21276   0.61176   0.04285   0.00000  Uiso   1.00
O130   O     0.39298   0.67507   0.58301   0.00000  Uiso   1.00
O131   O     0.63344   0.38103   0.90157   0.00000  Uiso   1.00
O132   O     0.09593   0.53729   0.01020   0.00000  Uiso   1.00
N133   N     0.36026   0.59285   0.61402   0.00000  Uiso   1.00
N134   N     0.53163   0.38332   0.84103   0.00000  Uiso   1.00
N135   N     0.14860   0.49466   0.91845   0.00000  Uiso   1.00
N136   N     0.41481   0.67457   0.69488   0.00000  Uiso   1.00
N137   N     0.58618   0.46504   0.92188   0.00000  Uiso   1.00
N138   N     0.20315   0.57637   0.99930   0.00000  Uiso   1.00
C139   C     0.21812   0.90255   0.82813   0.00000  Uiso   1.00
C140   C     0.15622   0.92424   0.85256   0.00000  Uiso   1.00
C141   C     0.09106   0.89223   0.83141   0.00000  Uiso   1.00
C142   C     0.04142   0.91990   0.85980   0.00000  Uiso   1.00
C143   C     0.94303   0.94480   0.89048   0.00000  Uiso   1.00
C144   C     0.26584   0.90858   0.89272   0.00000  Uiso   1.00
C145   C     0.29285   0.86340   0.90532   0.00000  Uiso   1.00
C146   C     0.33548   0.87790   0.96752   0.00000  Uiso   1.00
C147   C     0.40731   0.87849   0.06052   0.00000  Uiso   1.00
C148   C     0.25127   0.94753   0.79946   0.00000  Uiso   1.00
C149   C     0.26606   0.93510   0.73365   0.00000  Uiso   1.00
C150   C     0.29645   0.98239   0.71733   0.00000  Uiso   1.00
C151   C     0.34567   0.04347   0.66553   0.00000  Uiso   1.00
C152   C     0.24583   0.00864   0.91618   0.00000  Uiso   1.00
C153   C     0.17128   0.98186   0.90039   0.00000  Uiso   1.00
C154   C     0.12172   0.00960   0.92882   0.00000  Uiso   1.00
C155   C     0.05650   0.97763   0.90771   0.00000  Uiso   1.00
C156   C     0.28089   0.96620   0.94054   0.00000  Uiso   1.00
C157   C     0.32350   0.98077   0.00273   0.00000  Uiso   1.00
C158   C     0.35056   0.93562   0.01543   0.00000  Uiso   1.00
C159   C     0.26633   0.00516   0.84728   0.00000  Uiso   1.00
C160   C     0.29671   0.05247   0.83106   0.00000  Uiso   1.00
C161   C     0.31153   0.04012   0.76524   0.00000  Uiso   1.00
H162   H     0.20640   0.85769   0.79090   0.00000  Uiso   1.00
H163   H     0.07943   0.84763   0.79440   0.00000  Uiso   1.00
H164   H     0.28119   0.81881   0.86830   0.00000  Uiso   1.00
H165   H     0.25440   0.89051   0.69666   0.00000  Uiso   1.00
H166   H     0.94531   0.86188   0.81939   0.00000  Uiso   1.00
H167   H     0.37074   0.80112   0.97520   0.00000  Uiso   1.00
H168   H     0.31425   0.95230   0.61325   0.00000  Uiso   1.00
H169   H     0.25755   0.05350   0.95341   0.00000  Uiso   1.00
H170   H     0.13338   0.05419   0.96583   0.00000  Uiso   1.00
H171   H     0.33514   0.02536   0.03973   0.00000  Uiso   1.00
H172   H     0.30835   0.09706   0.86808   0.00000  Uiso   1.00
H173   H     0.98910   0.02953   0.95852   0.00000  Uiso   1.00
H174   H     0.41454   0.96876   0.11433   0.00000  Uiso   1.00
H175   H     0.35804   0.11994   0.75239   0.00000  Uiso   1.00
O176   O     0.88461   0.94261   0.89421   0.00000  Uiso   1.00
O177   O     0.44277   0.86290   0.09861   0.00000  Uiso   1.00
O178   O     0.36865   0.06124   0.62375   0.00000  Uiso   1.00
N179   N     0.97265   0.90125   0.85042   0.00000  Uiso   1.00
N180   N     0.37040   0.84444   0.99610   0.00000  Uiso   1.00
N181   N     0.31760   0.98577   0.65771   0.00000  Uiso   1.00
N182   N     0.99622   0.99146   0.92529   0.00000  Uiso   1.00
N183   N     0.39396   0.93464   0.07096   0.00000  Uiso   1.00
N184   N     0.34116   0.07598   0.73258   0.00000  Uiso   1.00
C185   C     0.90589   0.88989   0.17526   0.00000  Uiso   1.00
C186   C     0.96190   0.87433   0.13473   0.00000  Uiso   1.00
C187   C     0.95718   0.85939   0.06411   0.00000  Uiso   1.00
C188   C     0.01404   0.84665   0.03685   0.00000  Uiso   1.00
C189   C     0.09198   0.82219   0.96755   0.00000  Uiso   1.00
C190   C     0.93333   0.95088   0.22934   0.00000  Uiso   1.00
C191   C     0.90459   0.00030   0.23827   0.00000  Uiso   1.00
C192   C     0.93741   0.05200   0.29065   0.00000  Uiso   1.00
C193   C     0.97097   0.14638   0.36827   0.00000  Uiso   1.00
C194   C     0.89740   0.84716   0.21457   0.00000  Uiso   1.00
C195   C     0.83845   0.80939   0.21111   0.00000  Uiso   1.00
C196   C     0.84101   0.77377   0.25107   0.00000  Uiso   1.00
C197   C     0.81879   0.70710   0.30575   0.00000  Uiso   1.00
C198   C     0.01527   0.89381   0.25240   0.00000  Uiso   1.00
C199   C     0.02131   0.87646   0.17663   0.00000  Uiso   1.00
C200   C     0.07820   0.86373   0.14946   0.00000  Uiso   1.00
C201   C     0.07356   0.84878   0.07882   0.00000  Uiso   1.00
C202   C     0.99274   0.95301   0.27124   0.00000  Uiso   1.00
C203   C     0.02561   0.00465   0.32362   0.00000  Uiso   1.00
C204   C     0.99693   0.05414   0.33263   0.00000  Uiso   1.00
C205   C     0.95682   0.84929   0.25647   0.00000  Uiso   1.00
C206   C     0.95947   0.81373   0.29645   0.00000  Uiso   1.00
C207   C     0.90053   0.77590   0.29305   0.00000  Uiso   1.00
H208   H     0.85964   0.88824   0.14264   0.00000  Uiso   1.00
H209   H     0.91119   0.85775   0.03171   0.00000  Uiso   1.00
H210   H     0.85861   0.99864   0.20584   0.00000  Uiso   1.00
H211   H     0.79248   0.80775   0.17867   0.00000  Uiso   1.00
H212   H     0.99456   0.82492   0.92720   0.00000  Uiso   1.00
H213   H     0.88368   0.12198   0.29439   0.00000  Uiso   1.00
H214   H     0.74423   0.71945   0.23710   0.00000  Uiso   1.00
H215   H     0.06153   0.89548   0.28503   0.00000  Uiso   1.00
H216   H     0.12417   0.86539   0.18190   0.00000  Uiso   1.00
H217   H     0.07158   0.00628   0.35604   0.00000  Uiso   1.00
H218   H     0.00545   0.81539   0.32887   0.00000  Uiso   1.00
H219   H     0.16742   0.83112   0.04911   0.00000  Uiso   1.00
H220   H     0.05653   0.12818   0.41630   0.00000  Uiso   1.00
H221   H     0.91709   0.72565   0.35901   0.00000  Uiso   1.00
O222   O     0.11856   0.80812   0.91775   0.00000  Uiso   1.00
O223   O     0.97307   0.19784   0.39950   0.00000  Uiso   1.00
O224   O     0.79012   0.66974   0.32433   0.00000  Uiso   1.00
N225   N     0.02664   0.83050   0.97004   0.00000  Uiso   1.00
N226   N     0.92298   0.10823   0.31334   0.00000  Uiso   1.00
N227   N     0.79260   0.73192   0.25979   0.00000  Uiso   1.00
N228   N     0.11965   0.83383   0.03564   0.00000  Uiso   1.00
N229   N     0.01599   0.11157   0.37893   0.00000  Uiso   1.00
N230   N     0.88561   0.73525   0.32539   0.00000  Uiso   1.00
C231   C     0.88851   0.37319   0.11402   0.00000  Uiso   1.00
C232   C     0.92337   0.34650   0.16179   0.00000  Uiso   1.00
C233   C     0.96025   0.30233   0.14245   0.00000  Uiso   1.00
C234   C     0.98819   0.28394   0.19383   0.00000  Uiso   1.00
C235   C     0.04367   0.23872   0.25763   0.00000  Uiso   1.00
C236   C     0.91607   0.43954   0.14428   0.00000  Uiso   1.00
C237   C     0.94681   0.47361   0.11022   0.00000  Uiso   1.00
C238   C     0.96859   0.53354   0.14685   0.00000  Uiso   1.00
C239   C     0.01269   0.63278   0.18346   0.00000  Uiso   1.00
C240   C     0.81516   0.36497   0.12207   0.00000  Uiso   1.00
C241   C     0.76103   0.33636   0.06933   0.00000  Uiso   1.00
C242   C     0.69785   0.33352   0.08727   0.00000  Uiso   1.00
C243   C     0.58526   0.31699   0.08939   0.00000  Uiso   1.00
C244   C     0.87255   0.41906   0.23964   0.00000  Uiso   1.00
C245   C     0.91470   0.37142   0.23002   0.00000  Uiso   1.00
C246   C     0.94259   0.35308   0.28144   0.00000  Uiso   1.00
C247   C     0.97950   0.30890   0.26218   0.00000  Uiso   1.00
C248   C     0.90740   0.46446   0.21251   0.00000  Uiso   1.00
C249   C     0.92914   0.52436   0.24920   0.00000  Uiso   1.00
C250   C     0.95991   0.55850   0.21521   0.00000  Uiso   1.00
C251   C     0.80648   0.38989   0.19030   0.00000  Uiso   1.00
C252   C     0.74337   0.38710   0.20832   0.00000  Uiso   1.00
C253   C     0.68916   0.35848   0.15563   0.00000  Uiso   1.00
H254   H     0.89526   0.35380   0.06089   0.00000  Uiso   1.00
H255   H     0.96696   0.28306   0.08964   0.00000  Uiso   1.00
H256   H     0.95350   0.45431   0.05741   0.00000  Uiso   1.00
H257   H     0.76776   0.31708   0.01654   0.00000  Uiso   1.00
H258   H     0.04264   0.21565   0.15161   0.00000  Uiso   1.00
H259   H     0.01425   0.57674   0.08364   0.00000  Uiso   1.00
H260   H     0.62258   0.28736   0.99745   0.00000  Uiso   1.00
H261   H     0.86579   0.43846   0.29276   0.00000  Uiso   1.00
H262   H     0.93587   0.37237   0.33424   0.00000  Uiso   1.00
H263   H     0.92242   0.54362   0.30200   0.00000  Uiso   1.00
H264   H     0.73668   0.40639   0.26113   0.00000  Uiso   1.00
H265   H     0.01741   0.28813   0.35013   0.00000  Uiso   1.00
H266   H     0.98902   0.64923   0.28216   0.00000  Uiso   1.00
H267   H     0.59735   0.35984   0.19597   0.00000  Uiso   1.00
O268   O     0.07667   0.20690   0.27398   0.00000  Uiso   1.00
O269   O     0.03942   0.68064   0.18480   0.00000  Uiso   1.00
O270   O     0.52556   0.30098   0.07171   0.00000  Uiso   1.00
N271   N     0.02707   0.24177   0.19264   0.00000  Uiso   1.00
N272   N     0.00054   0.57937   0.12910   0.00000  Uiso   1.00
N273   N     0.63436   0.30883   0.04851   0.00000  Uiso   1.00
N274   N     0.01350   0.28077   0.29946   0.00000  Uiso   1.00
N275   N     0.98697   0.61837   0.23592   0.00000  Uiso   1.00
N276   N     0.62078   0.34784   0.15533   0.00000  Uiso   1.00
C277   C     0.23655   0.57077   0.40706   0.00000  Uiso   1.00
C278   C     0.22509   0.54776   0.32871   0.00000  Uiso   1.00
C279   C     0.27189   0.52796   0.28835   0.00000  Uiso   1.00
C280   C     0.25165   0.50867   0.21761   0.00000  Uiso   1.00
C281   C     0.24368   0.47285   0.10041   0.00000  Uiso   1.00
C282   C     0.18253   0.53268   0.42718   0.00000  Uiso   1.00
C283   C     0.19356   0.50020   0.46961   0.00000  Uiso   1.00
C284   C     0.13748   0.46822   0.48176   0.00000  Uiso   1.00
C285   C     0.06344   0.40901   0.51747   0.00000  Uiso   1.00
C286   C     0.22037   0.63251   0.42838   0.00000  Uiso   1.00
C287   C     0.26321   0.68397   0.47184   0.00000  Uiso   1.00
C288   C     0.23900   0.73604   0.48502   0.00000  Uiso   1.00
C289   C     0.22371   0.83184   0.52259   0.00000  Uiso   1.00
C290   C     0.11737   0.57173   0.35321   0.00000  Uiso   1.00
C291   C     0.16035   0.54829   0.29947   0.00000  Uiso   1.00
C292   C     0.14003   0.52903   0.22877   0.00000  Uiso   1.00
C293   C     0.18680   0.50920   0.18831   0.00000  Uiso   1.00
C294   C     0.11779   0.53320   0.39793   0.00000  Uiso   1.00
C295   C     0.06169   0.50127   0.41003   0.00000  Uiso   1.00
C296   C     0.07263   0.46874   0.45246   0.00000  Uiso   1.00
C297   C     0.15564   0.63304   0.39913   0.00000  Uiso   1.00
C298   C     0.13135   0.68504   0.41226   0.00000  Uiso   1.00
C299   C     0.17415   0.73657   0.45572   0.00000  Uiso   1.00
H300   H     0.28695   0.57036   0.42983   0.00000  Uiso   1.00
H301   H     0.32199   0.52755   0.31100   0.00000  Uiso   1.00
H302   H     0.24366   0.49981   0.49224   0.00000  Uiso   1.00
H303   H     0.31330   0.68355   0.49446   0.00000  Uiso   1.00
H304   H     0.33227   0.48031   0.16636   0.00000  Uiso   1.00
H305   H     0.16711   0.42182   0.54853   0.00000  Uiso   1.00
H306   H     0.31398   0.80928   0.55322   0.00000  Uiso   1.00
H307   H     0.06697   0.57214   0.33044   0.00000  Uiso   1.00
H308   H     0.08993   0.52944   0.20615   0.00000  Uiso   1.00
H309   H     0.01161   0.50169   0.38739   0.00000  Uiso   1.00
H310   H     0.08125   0.68543   0.38961   0.00000  Uiso   1.00
H311   H     0.14393   0.48184   0.08126   0.00000  Uiso   1.00
H312   H     0.97877   0.42335   0.46343   0.00000  Uiso   1.00
H313   H     0.12563   0.81080   0.46812   0.00000  Uiso   1.00
O314   O     0.25717   0.45293   0.04384   0.00000  Uiso   1.00
O315   O     0.04049   0.37620   0.54524   0.00000  Uiso   1.00
O316   O     0.23317   0.88453   0.55139   0.00000  Uiso   1.00
N317   N     0.28480   0.48654   0.16339   0.00000  Uiso   1.00
N318   N     0.13038   0.43185   0.52068   0.00000  Uiso   1.00
N319   N     0.26768   0.79408   0.52508   0.00000  Uiso   1.00
N320   N     0.18345   0.48736   0.11760   0.00000  Uiso   1.00
N321   N     0.02904   0.43267   0.47489   0.00000  Uiso   1.00
N322   N     0.16634   0.79491   0.47929   0.00000  Uiso   1.00
C323   C     0.52853   0.24873   0.56823   0.00000  Uiso   1.00
C324   C     0.47681   0.28631   0.56131   0.00000  Uiso   1.00
C325   C     0.48903   0.33959   0.54997   0.00000  Uiso   1.00
C326   C     0.43504   0.36715   0.54516   0.00000  Uiso   1.00
C327   C     0.36444   0.42927   0.53342   0.00000  Uiso   1.00
C328   C     0.50131   0.18784   0.51386   0.00000  Uiso   1.00
C329   C     0.53413   0.15833   0.46265   0.00000  Uiso   1.00
C330   C     0.50077   0.10300   0.41791   0.00000  Uiso   1.00
C331   C     0.46822   0.01223   0.33254   0.00000  Uiso   1.00
C332   C     0.52687   0.24065   0.63747   0.00000  Uiso   1.00
C333   C     0.58120   0.25553   0.69018   0.00000  Uiso   1.00
C334   C     0.56936   0.24465   0.74951   0.00000  Uiso   1.00
C335   C     0.57650   0.23588   0.85606   0.00000  Uiso   1.00
C336   C     0.41091   0.20293   0.57984   0.00000  Uiso   1.00
C337   C     0.41292   0.26143   0.56761   0.00000  Uiso   1.00
C338   C     0.35889   0.28892   0.56282   0.00000  Uiso   1.00
C339   C     0.37104   0.34224   0.55149   0.00000  Uiso   1.00
C340   C     0.43742   0.16296   0.52017   0.00000  Uiso   1.00
C341   C     0.40400   0.10766   0.47550   0.00000  Uiso   1.00
C342   C     0.43676   0.07808   0.42423   0.00000  Uiso   1.00
C343   C     0.46298   0.21578   0.64378   0.00000  Uiso   1.00
C344   C     0.45106   0.20487   0.70303   0.00000  Uiso   1.00
C345   C     0.50535   0.21973   0.75583   0.00000  Uiso   1.00
H346   H     0.57827   0.26809   0.56331   0.00000  Uiso   1.00
H347   H     0.53848   0.35882   0.54509   0.00000  Uiso   1.00
H348   H     0.58358   0.17759   0.45778   0.00000  Uiso   1.00
H349   H     0.63063   0.27478   0.68528   0.00000  Uiso   1.00
H350   H     0.46619   0.44843   0.52763   0.00000  Uiso   1.00
H351   H     0.56128   0.06629   0.34356   0.00000  Uiso   1.00
H352   H     0.66051   0.27123   0.82329   0.00000  Uiso   1.00
H353   H     0.36116   0.18356   0.58476   0.00000  Uiso   1.00
H354   H     0.30946   0.26966   0.56771   0.00000  Uiso   1.00
H355   H     0.35456   0.08843   0.48040   0.00000  Uiso   1.00
H356   H     0.40161   0.18562   0.70790   0.00000  Uiso   1.00
H357   H     0.28030   0.37607   0.54599   0.00000  Uiso   1.00
H358   H     0.37540   0.99392   0.36192   0.00000  Uiso   1.00
H359   H     0.47462   0.19886   0.84165   0.00000  Uiso   1.00
O360   O     0.34315   0.47040   0.52519   0.00000  Uiso   1.00
O361   O     0.46792   0.96904   0.28370   0.00000  Uiso   1.00
O362   O     0.59809   0.23792   0.91309   0.00000  Uiso   1.00
N363   N     0.42954   0.41959   0.53431   0.00000  Uiso   1.00
N364   N     0.51844   0.06231   0.36221   0.00000  Uiso   1.00
N365   N     0.61121   0.25390   0.81070   0.00000  Uiso   1.00
N366   N     0.32952   0.38065   0.54419   0.00000  Uiso   1.00
N367   N     0.41842   0.02337   0.37208   0.00000  Uiso   1.00
N368   N     0.51119   0.21496   0.82058   0.00000  Uiso   1.00
C369   C     0.59730   0.57151   0.23554   0.00000  Uiso   1.00
C370   C     0.57974   0.52617   0.26991   0.00000  Uiso   1.00
C371   C     0.59712   0.53519   0.33928   0.00000  Uiso   1.00
C372   C     0.57630   0.48819   0.36063   0.00000  Uiso   1.00
C373   C     0.55461   0.42601   0.42107   0.00000  Uiso   1.00
C374   C     0.53102   0.57743   0.19967   0.00000  Uiso   1.00
C375   C     0.50745   0.62956   0.20998   0.00000  Uiso   1.00
C376   C     0.44561   0.62570   0.17219   0.00000  Uiso   1.00
C377   C     0.34831   0.64312   0.12354   0.00000  Uiso   1.00
C378   C     0.63461   0.54272   0.17849   0.00000  Uiso   1.00
C379   C     0.69813   0.56568   0.17098   0.00000  Uiso   1.00
C380   C     0.72351   0.53260   0.11535   0.00000  Uiso   1.00
C381   C     0.78704   0.49613   0.03382   0.00000  Uiso   1.00
C382   C     0.52940   0.47197   0.15011   0.00000  Uiso   1.00
C383   C     0.54286   0.47210   0.22351   0.00000  Uiso   1.00
C384   C     0.52200   0.42506   0.24476   0.00000  Uiso   1.00
C385   C     0.53936   0.43402   0.31415   0.00000  Uiso   1.00
C386   C     0.49414   0.52336   0.15327   0.00000  Uiso   1.00
C387   C     0.43233   0.51943   0.11546   0.00000  Uiso   1.00
C388   C     0.40867   0.57154   0.12571   0.00000  Uiso   1.00
C389   C     0.59773   0.48865   0.13209   0.00000  Uiso   1.00
C390   C     0.62301   0.45554   0.07646   0.00000  Uiso   1.00
C391   C     0.68656   0.47844   0.06886   0.00000  Uiso   1.00
H392   H     0.62601   0.61360   0.27166   0.00000  Uiso   1.00
H393   H     0.62566   0.57705   0.37517   0.00000  Uiso   1.00
H394   H     0.53600   0.67139   0.24588   0.00000  Uiso   1.00
H395   H     0.72665   0.60752   0.20689   0.00000  Uiso   1.00
H396   H     0.60899   0.51268   0.46947   0.00000  Uiso   1.00
H397   H     0.41995   0.71162   0.19684   0.00000  Uiso   1.00
H398   H     0.82198   0.57692   0.11462   0.00000  Uiso   1.00
H399   H     0.50069   0.42987   0.11398   0.00000  Uiso   1.00
H400   H     0.49347   0.38323   0.20884   0.00000  Uiso   1.00
H401   H     0.40380   0.47758   0.07955   0.00000  Uiso   1.00
H402   H     0.59446   0.41370   0.04056   0.00000  Uiso   1.00
H403   H     0.50169   0.35537   0.33447   0.00000  Uiso   1.00
H404   H     0.31265   0.55431   0.06184   0.00000  Uiso   1.00
H405   H     0.71468   0.41962   0.97962   0.00000  Uiso   1.00
O406   O     0.55283   0.40666   0.46722   0.00000  Uiso   1.00
O407   O     0.30482   0.66767   0.10953   0.00000  Uiso   1.00
O408   O     0.83228   0.49095   0.00167   0.00000  Uiso   1.00
N409   N     0.58474   0.48205   0.42468   0.00000  Uiso   1.00
N410   N     0.40799   0.66805   0.16980   0.00000  Uiso   1.00
N411   N     0.78385   0.54213   0.09292   0.00000  Uiso   1.00
N412   N     0.52700   0.39740   0.35204   0.00000  Uiso   1.00
N413   N     0.35026   0.58340   0.09715   0.00000  Uiso   1.00
N414   N     0.72611   0.45748   0.02028   0.00000  Uiso   1.00
C415   C     0.68174   0.02706   0.03472   0.00000  Uiso   1.00
C416   C     0.68615   0.96545   0.98824   0.00000  Uiso   1.00
C417   C     0.74012   0.95042   0.95670   0.00000  Uiso   1.00
C418   C     0.73442   0.89167   0.91614   0.00000  Uiso   1.00
C419   C     0.75003   0.80243   0.84525   0.00000  Uiso   1.00
C420   C     0.61897   0.04164   0.00264   0.00000  Uiso   1.00
C421   C     0.61645   0.09067   0.98322   0.00000  Uiso   1.00
C422   C     0.55418   0.09606   0.95479   0.00000  Uiso   1.00
C423   C     0.46548   0.12512   0.90631   0.00000  Uiso   1.00
C424   C     0.66737   0.02089   0.10235   0.00000  Uiso   1.00
C425   C     0.70553   0.05249   0.16678   0.00000  Uiso   1.00
C426   C     0.68400   0.04041   0.22231   0.00000  Uiso   1.00
C427   C     0.67045   0.03726   0.32865   0.00000  Uiso   1.00
C428   C     0.57562   0.94944   0.01878   0.00000  Uiso   1.00
C429   C     0.62851   0.92329   0.97958   0.00000  Uiso   1.00
C430   C     0.62272   0.86455   0.93906   0.00000  Uiso   1.00
C431   C     0.67668   0.84943   0.90747   0.00000  Uiso   1.00
C432   C     0.56133   0.99948   0.99398   0.00000  Uiso   1.00
C433   C     0.49905   0.00480   0.96558   0.00000  Uiso   1.00
C434   C     0.49644   0.05382   0.94612   0.00000  Uiso   1.00
C435   C     0.60973   0.97873   0.09370   0.00000  Uiso   1.00
C436   C     0.58813   0.96661   0.14914   0.00000  Uiso   1.00
C437   C     0.62626   0.99818   0.21364   0.00000  Uiso   1.00
H438   H     0.72660   0.05988   0.04146   0.00000  Uiso   1.00
H439   H     0.78472   0.98307   0.96340   0.00000  Uiso   1.00
H440   H     0.66106   0.12329   0.98993   0.00000  Uiso   1.00
H441   H     0.75013   0.08511   0.17346   0.00000  Uiso   1.00
H442   H     0.82372   0.87931   0.87303   0.00000  Uiso   1.00
H443   H     0.56298   0.17500   0.92898   0.00000  Uiso   1.00
H444   H     0.75080   0.09449   0.31599   0.00000  Uiso   1.00
H445   H     0.53075   0.91661   0.01204   0.00000  Uiso   1.00
H446   H     0.57811   0.83193   0.93237   0.00000  Uiso   1.00
H447   H     0.45446   0.97216   0.95889   0.00000  Uiso   1.00
H448   H     0.54353   0.93398   0.14242   0.00000  Uiso   1.00
H449   H     0.65603   0.75664   0.84784   0.00000  Uiso   1.00
H450   H     0.39529   0.05234   0.90379   0.00000  Uiso   1.00
H451   H     0.58312   0.97182   0.29080   0.00000  Uiso   1.00
O452   O     0.77456   0.76486   0.80854   0.00000  Uiso   1.00
O453   O     0.43248   0.15280   0.88196   0.00000  Uiso   1.00
O454   O     0.67890   0.04716   0.38970   0.00000  Uiso   1.00
N455   N     0.77776   0.86206   0.87804   0.00000  Uiso   1.00
N456   N     0.53398   0.13851   0.93035   0.00000  Uiso   1.00
N457   N     0.70957   0.06324   0.29217   0.00000  Uiso   1.00
N458   N     0.68753   0.79605   0.86449   0.00000  Uiso   1.00
N459   N     0.44375   0.07250   0.91679   0.00000  Uiso   1.00
N460   N     0.61934   0.99724   0.27861   0.00000  Uiso   1.00
C461   C     0.16045   0.14486   0.72204   0.00000  Uiso   1.00
C462   C     0.11783   0.15391   0.77843   0.00000  Uiso   1.00
C463   C     0.14002   0.16116   0.84653   0.00000  Uiso   1.00
C464   C     0.09326   0.16883   0.89011   0.00000  Uiso   1.00
C465   C     0.03720   0.18278   0.98126   0.00000  Uiso   1.00
C466   C     0.12547   0.08733   0.66511   0.00000  Uiso   1.00
C467   C     0.15409   0.03860   0.63793   0.00000  Uiso   1.00
C468   C     0.11377   0.99023   0.58611   0.00000  Uiso   1.00
C469   C     0.06959   0.90083   0.50130   0.00000  Uiso   1.00
C470   C     0.15409   0.19385   0.69265   0.00000  Uiso   1.00
C471   C     0.20677   0.23468   0.68861   0.00000  Uiso   1.00
C472   C     0.19054   0.27599   0.65997   0.00000  Uiso   1.00
C473   C     0.19080   0.35199   0.61793   0.00000  Uiso   1.00
C474   C     0.03795   0.14560   0.67835   0.00000  Uiso   1.00
C475   C     0.05129   0.15431   0.75469   0.00000  Uiso   1.00
C476   C     0.00449   0.16198   0.79819   0.00000  Uiso   1.00
C477   C     0.02661   0.16923   0.86634   0.00000  Uiso   1.00
C478   C     0.05894   0.08773   0.64138   0.00000  Uiso   1.00
C479   C     0.01856   0.03942   0.58959   0.00000  Uiso   1.00
C480   C     0.04711   0.99063   0.56233   0.00000  Uiso   1.00
C481   C     0.08755   0.19426   0.66892   0.00000  Uiso   1.00
C482   C     0.07124   0.23550   0.64028   0.00000  Uiso   1.00
C483   C     0.12389   0.27639   0.63620   0.00000  Uiso   1.00
H484   H     0.21225   0.14455   0.74052   0.00000  Uiso   1.00
H485   H     0.19152   0.16084   0.86487   0.00000  Uiso   1.00
H486   H     0.20559   0.03831   0.65630   0.00000  Uiso   1.00
H487   H     0.25826   0.23436   0.70698   0.00000  Uiso   1.00
H488   H     0.13918   0.17906   0.99227   0.00000  Uiso   1.00
H489   H     0.16886   0.92069   0.55246   0.00000  Uiso   1.00
H490   H     0.27992   0.33411   0.65934   0.00000  Uiso   1.00
H491   H     0.98614   0.14591   0.65987   0.00000  Uiso   1.00
H492   H     0.95300   0.16228   0.77981   0.00000  Uiso   1.00
H493   H     0.96708   0.03975   0.57123   0.00000  Uiso   1.00
H494   H     0.01975   0.23580   0.62192   0.00000  Uiso   1.00
H495   H     0.94559   0.18022   0.92323   0.00000  Uiso   1.00
H496   H     0.97527   0.92186   0.48342   0.00000  Uiso   1.00
H497   H     0.08634   0.33528   0.59030   0.00000  Uiso   1.00
O498   O     0.02466   0.19036   0.03809   0.00000  Uiso   1.00
O499   O     0.06360   0.85141   0.46108   0.00000  Uiso   1.00
O500   O     0.20932   0.39380   0.60130   0.00000  Uiso   1.00
N501   N     0.09817   0.17710   0.95956   0.00000  Uiso   1.00
N502   N     0.12591   0.93554   0.54838   0.00000  Uiso   1.00
N503   N     0.22975   0.32204   0.64828   0.00000  Uiso   1.00
N504   N     0.99400   0.17773   0.92241   0.00000  Uiso   1.00
N505   N     0.02175   0.93617   0.51123   0.00000  Uiso   1.00
N506   N     0.12559   0.32267   0.61113   0.00000  Uiso   1.00
C507   C     0.98773   0.61574   0.86878   0.00000  Uiso   1.00
C508   C     0.95312   0.62420   0.80499   0.00000  Uiso   1.00
C509   C     0.90822   0.66142   0.80424   0.00000  Uiso   1.00
C510   C     0.88204   0.66289   0.74063   0.00000  Uiso   1.00
C511   C     0.82552   0.68125   0.65080   0.00000  Uiso   1.00
C512   C     0.97030   0.54975   0.85631   0.00000  Uiso   1.00
C513   C     0.93986   0.52438   0.89871   0.00000  Uiso   1.00
C514   C     0.92814   0.46318   0.87830   0.00000  Uiso   1.00
C515   C     0.89834   0.36596   0.86818   0.00000  Uiso   1.00
C516   C     0.06260   0.62971   0.86852   0.00000  Uiso   1.00
C517   C     0.10978   0.67154   0.92120   0.00000  Uiso   1.00
C518   C     0.17578   0.67764   0.91108   0.00000  Uiso   1.00
C519   C     0.28930   0.70456   0.91992   0.00000  Uiso   1.00
C520   C     0.02106   0.55217   0.75713   0.00000  Uiso   1.00
C521   C     0.97122   0.58967   0.74435   0.00000  Uiso   1.00
C522   C     0.94510   0.59109   0.68072   0.00000  Uiso   1.00
C523   C     0.90017   0.62830   0.67987   0.00000  Uiso   1.00
C524   C     0.98840   0.51523   0.79567   0.00000  Uiso   1.00
C525   C     0.97673   0.45405   0.77519   0.00000  Uiso   1.00
C526   C     0.94628   0.42858   0.81755   0.00000  Uiso   1.00
C527   C     0.08071   0.59518   0.80788   0.00000  Uiso   1.00
C528   C     0.14665   0.60121   0.79767   0.00000  Uiso   1.00
C529   C     0.19392   0.64305   0.85033   0.00000  Uiso   1.00
H530   H     0.97363   0.64262   0.91599   0.00000  Uiso   1.00
H531   H     0.89422   0.68813   0.85118   0.00000  Uiso   1.00
H532   H     0.92586   0.55111   0.94564   0.00000  Uiso   1.00
H533   H     0.09575   0.69825   0.96812   0.00000  Uiso   1.00
H534   H     0.81415   0.72334   0.75258   0.00000  Uiso   1.00
H535   H     0.88087   0.43443   0.95177   0.00000  Uiso   1.00
H536   H     0.23913   0.74471   0.99918   0.00000  Uiso   1.00
H537   H     0.03515   0.52529   0.70992   0.00000  Uiso   1.00
H538   H     0.95911   0.56436   0.63380   0.00000  Uiso   1.00
H539   H     0.99075   0.42734   0.72826   0.00000  Uiso   1.00
H540   H     0.16064   0.57448   0.75074   0.00000  Uiso   1.00
H541   H     0.86681   0.62288   0.57615   0.00000  Uiso   1.00
H542   H     0.93354   0.33397   0.77534   0.00000  Uiso   1.00
H543   H     0.29179   0.64425   0.82274   0.00000  Uiso   1.00
O544   O     0.78933   0.70092   0.61801   0.00000  Uiso   1.00
O545   O     0.87689   0.32188   0.87934   0.00000  Uiso   1.00
O546   O     0.34691   0.72896   0.94154   0.00000  Uiso   1.00
N547   N     0.83699   0.69434   0.72151   0.00000  Uiso   1.00
N548   N     0.89936   0.42423   0.90773   0.00000  Uiso   1.00
N549   N     0.23430   0.71430   0.95206   0.00000  Uiso   1.00
N550   N     0.86532   0.64029   0.62657   0.00000  Uiso   1.00
N551   N     0.92770   0.37017   0.81279   0.00000  Uiso   1.00
N552   N     0.26264   0.66025   0.85712   0.00000  Uiso   1.00
