data_job_04667
_audit_creation_date              2018-12-19
_audit_creation_method            'Materials Studio'
_symmetry_space_group_name_H-M    'P1'
_symmetry_Int_Tables_number       1
_symmetry_cell_setting            triclinic
loop_
_symmetry_equiv_pos_as_xyz
  x,y,z
_cell_length_a                    16.9643
_cell_length_b                    16.9643
_cell_length_c                    16.1436
_cell_angle_alpha                 90.0000
_cell_angle_beta                  90.0000
_cell_angle_gamma                 90.0000
loop_
_atom_site_label
_atom_site_type_symbol
_atom_site_fract_x
_atom_site_fract_y
_atom_site_fract_z
_atom_site_U_iso_or_equiv
_atom_site_adp_type
_atom_site_occupancy
C1     C     0.79894   0.75602   0.36798   0.00000  Uiso   1.00
C2     C     0.81317   0.72676   0.27993   0.00000  Uiso   1.00
C3     C     0.75520   0.70950   0.22205   0.00000  Uiso   1.00
C4     C     0.78029   0.68348   0.14490   0.00000  Uiso   1.00
C5     C     0.79019   0.63930   0.01100   0.00000  Uiso   1.00
C6     C     0.84043   0.69745   0.42486   0.00000  Uiso   1.00
C7     C     0.80537   0.65556   0.48886   0.00000  Uiso   1.00
C8     C     0.85341   0.60488   0.53371   0.00000  Uiso   1.00
C9     C     0.90564   0.51524   0.62486   0.00000  Uiso   1.00
C10    C     0.84441   0.83320   0.37578   0.00000  Uiso   1.00
C11    C     0.81270   0.90544   0.39854   0.00000  Uiso   1.00
C12    C     0.86410   0.96904   0.40209   0.00000  Uiso   1.00
C13    C     0.92250   0.09017   0.41704   0.00000  Uiso   1.00
C14    C     0.94660   0.74051   0.33386   0.00000  Uiso   1.00
C15    C     0.89338   0.71834   0.26140   0.00000  Uiso   1.00
C16    C     0.91857   0.69234   0.18430   0.00000  Uiso   1.00
C17    C     0.86064   0.67504   0.12633   0.00000  Uiso   1.00
C18    C     0.92063   0.68903   0.40633   0.00000  Uiso   1.00
C19    C     0.96874   0.63841   0.45110   0.00000  Uiso   1.00
C20    C     0.93376   0.59644   0.51514   0.00000  Uiso   1.00
C21    C     0.92461   0.82478   0.35725   0.00000  Uiso   1.00
C22    C     0.97607   0.88828   0.36078   0.00000  Uiso   1.00
C23    C     0.94445   0.96061   0.38352   0.00000  Uiso   1.00
H24    H     0.73650   0.76257   0.38242   0.00000  Uiso   1.00
H25    H     0.69313   0.71601   0.23642   0.00000  Uiso   1.00
H26    H     0.74330   0.66209   0.50319   0.00000  Uiso   1.00
H27    H     0.75063   0.91193   0.41287   0.00000  Uiso   1.00
H28    H     0.68043   0.66066   0.06640   0.00000  Uiso   1.00
H29    H     0.78621   0.54699   0.62890   0.00000  Uiso   1.00
H30    H     0.80167   0.07382   0.43847   0.00000  Uiso   1.00
H31    H     0.00905   0.73395   0.31943   0.00000  Uiso   1.00
H32    H     0.98064   0.68583   0.16998   0.00000  Uiso   1.00
H33    H     0.03081   0.63191   0.43674   0.00000  Uiso   1.00
H34    H     0.03814   0.88175   0.34643   0.00000  Uiso   1.00
H35    H     0.91378   0.63616   0.01247   0.00000  Uiso   1.00
H36    H     0.01956   0.52249   0.57498   0.00000  Uiso   1.00
H37    H     0.03502   0.04932   0.38454   0.00000  Uiso   1.00
O38    O     0.77349   0.61724   0.94227   0.00000  Uiso   1.00
O39    O     0.91229   0.46812   0.68026   0.00000  Uiso   1.00
O40    O     0.93256   0.15931   0.43040   0.00000  Uiso   1.00
N41    N     0.73924   0.66151   0.07421   0.00000  Uiso   1.00
N42    N     0.83815   0.55522   0.60011   0.00000  Uiso   1.00
N43    N     0.85260   0.04776   0.42209   0.00000  Uiso   1.00
N44    N     0.86481   0.64833   0.04519   0.00000  Uiso   1.00
N45    N     0.96371   0.54204   0.57109   0.00000  Uiso   1.00
N46    N     0.97816   0.03458   0.39307   0.00000  Uiso   1.00
C47    C     0.20106   0.24398   0.86798   0.00000  Uiso   1.00
C48    C     0.18683   0.27324   0.77993   0.00000  Uiso   1.00
C49    C     0.24480   0.29050   0.72205   0.00000  Uiso   1.00
C50    C     0.21971   0.31652   0.64490   0.00000  Uiso   1.00
C51    C     0.20981   0.36070   0.51100   0.00000  Uiso   1.00
C52    C     0.15957   0.30255   0.92486   0.00000  Uiso   1.00
C53    C     0.19463   0.34444   0.98886   0.00000  Uiso   1.00
C54    C     0.14659   0.39512   0.03371   0.00000  Uiso   1.00
C55    C     0.09436   0.48476   0.12486   0.00000  Uiso   1.00
C56    C     0.15559   0.16680   0.87578   0.00000  Uiso   1.00
C57    C     0.18730   0.09456   0.89854   0.00000  Uiso   1.00
C58    C     0.13590   0.03096   0.90209   0.00000  Uiso   1.00
C59    C     0.07750   0.90983   0.91704   0.00000  Uiso   1.00
C60    C     0.05340   0.25949   0.83386   0.00000  Uiso   1.00
C61    C     0.10662   0.28166   0.76140   0.00000  Uiso   1.00
C62    C     0.08143   0.30766   0.68430   0.00000  Uiso   1.00
C63    C     0.13936   0.32496   0.62633   0.00000  Uiso   1.00
C64    C     0.07937   0.31097   0.90633   0.00000  Uiso   1.00
C65    C     0.03126   0.36159   0.95110   0.00000  Uiso   1.00
C66    C     0.06624   0.40356   0.01514   0.00000  Uiso   1.00
C67    C     0.07539   0.17522   0.85725   0.00000  Uiso   1.00
C68    C     0.02393   0.11172   0.86078   0.00000  Uiso   1.00
C69    C     0.05555   0.03939   0.88352   0.00000  Uiso   1.00
H70    H     0.26350   0.23743   0.88242   0.00000  Uiso   1.00
H71    H     0.30687   0.28399   0.73642   0.00000  Uiso   1.00
H72    H     0.25670   0.33791   0.00319   0.00000  Uiso   1.00
H73    H     0.24937   0.08807   0.91287   0.00000  Uiso   1.00
H74    H     0.31957   0.33934   0.56640   0.00000  Uiso   1.00
H75    H     0.21379   0.45301   0.12890   0.00000  Uiso   1.00
H76    H     0.19833   0.92618   0.93847   0.00000  Uiso   1.00
H77    H     0.99095   0.26605   0.81943   0.00000  Uiso   1.00
H78    H     0.01936   0.31417   0.66998   0.00000  Uiso   1.00
H79    H     0.96919   0.36809   0.93674   0.00000  Uiso   1.00
H80    H     0.96186   0.11825   0.84643   0.00000  Uiso   1.00
H81    H     0.08622   0.36384   0.51247   0.00000  Uiso   1.00
H82    H     0.98044   0.47751   0.07498   0.00000  Uiso   1.00
H83    H     0.96498   0.95068   0.88454   0.00000  Uiso   1.00
O84    O     0.22651   0.38276   0.44227   0.00000  Uiso   1.00
O85    O     0.08771   0.53188   0.18026   0.00000  Uiso   1.00
O86    O     0.06744   0.84069   0.93040   0.00000  Uiso   1.00
N87    N     0.26076   0.33849   0.57421   0.00000  Uiso   1.00
N88    N     0.16185   0.44478   0.10011   0.00000  Uiso   1.00
N89    N     0.14740   0.95224   0.92209   0.00000  Uiso   1.00
N90    N     0.13519   0.35167   0.54519   0.00000  Uiso   1.00
N91    N     0.03629   0.45796   0.07109   0.00000  Uiso   1.00
N92    N     0.02184   0.96542   0.89307   0.00000  Uiso   1.00
C93    C     0.74398   0.29894   0.11798   0.00000  Uiso   1.00
C94    C     0.77324   0.31317   0.02993   0.00000  Uiso   1.00
C95    C     0.79050   0.25520   0.97205   0.00000  Uiso   1.00
C96    C     0.81652   0.28029   0.89490   0.00000  Uiso   1.00
C97    C     0.86070   0.29019   0.76100   0.00000  Uiso   1.00
C98    C     0.80255   0.34043   0.17486   0.00000  Uiso   1.00
C99    C     0.84444   0.30537   0.23886   0.00000  Uiso   1.00
C100   C     0.89512   0.35341   0.28371   0.00000  Uiso   1.00
C101   C     0.98476   0.40564   0.37486   0.00000  Uiso   1.00
C102   C     0.66680   0.34441   0.12578   0.00000  Uiso   1.00
C103   C     0.59456   0.31270   0.14854   0.00000  Uiso   1.00
C104   C     0.53096   0.36410   0.15209   0.00000  Uiso   1.00
C105   C     0.40983   0.42250   0.16704   0.00000  Uiso   1.00
C106   C     0.75949   0.44660   0.08386   0.00000  Uiso   1.00
C107   C     0.78166   0.39338   0.01140   0.00000  Uiso   1.00
C108   C     0.80766   0.41857   0.93430   0.00000  Uiso   1.00
C109   C     0.82496   0.36064   0.87633   0.00000  Uiso   1.00
C110   C     0.81097   0.42063   0.15633   0.00000  Uiso   1.00
C111   C     0.86159   0.46874   0.20110   0.00000  Uiso   1.00
C112   C     0.90356   0.43376   0.26514   0.00000  Uiso   1.00
C113   C     0.67522   0.42461   0.10725   0.00000  Uiso   1.00
C114   C     0.61172   0.47607   0.11078   0.00000  Uiso   1.00
C115   C     0.53939   0.44445   0.13352   0.00000  Uiso   1.00
H116   H     0.73743   0.23650   0.13242   0.00000  Uiso   1.00
H117   H     0.78399   0.19313   0.98642   0.00000  Uiso   1.00
H118   H     0.83791   0.24330   0.25319   0.00000  Uiso   1.00
H119   H     0.58807   0.25063   0.16287   0.00000  Uiso   1.00
H120   H     0.83934   0.18043   0.81640   0.00000  Uiso   1.00
H121   H     0.95301   0.28621   0.37890   0.00000  Uiso   1.00
H122   H     0.42618   0.30167   0.18847   0.00000  Uiso   1.00
H123   H     0.76605   0.50905   0.06943   0.00000  Uiso   1.00
H124   H     0.81417   0.48064   0.91998   0.00000  Uiso   1.00
H125   H     0.86809   0.53081   0.18674   0.00000  Uiso   1.00
H126   H     0.61825   0.53814   0.09643   0.00000  Uiso   1.00
H127   H     0.86384   0.41378   0.76247   0.00000  Uiso   1.00
H128   H     0.97751   0.51956   0.32498   0.00000  Uiso   1.00
H129   H     0.45068   0.53502   0.13454   0.00000  Uiso   1.00
O130   O     0.88276   0.27349   0.69227   0.00000  Uiso   1.00
O131   O     0.03188   0.41229   0.43026   0.00000  Uiso   1.00
O132   O     0.34069   0.43256   0.18040   0.00000  Uiso   1.00
N133   N     0.83849   0.23924   0.82421   0.00000  Uiso   1.00
N134   N     0.94478   0.33815   0.35011   0.00000  Uiso   1.00
N135   N     0.45224   0.35260   0.17209   0.00000  Uiso   1.00
N136   N     0.85167   0.36481   0.79519   0.00000  Uiso   1.00
N137   N     0.95796   0.46371   0.32109   0.00000  Uiso   1.00
N138   N     0.46542   0.47816   0.14307   0.00000  Uiso   1.00
C139   C     0.25602   0.70106   0.61798   0.00000  Uiso   1.00
C140   C     0.22676   0.68683   0.52993   0.00000  Uiso   1.00
C141   C     0.20950   0.74480   0.47205   0.00000  Uiso   1.00
C142   C     0.18348   0.71971   0.39490   0.00000  Uiso   1.00
C143   C     0.13930   0.70981   0.26100   0.00000  Uiso   1.00
C144   C     0.19745   0.65957   0.67486   0.00000  Uiso   1.00
C145   C     0.15556   0.69463   0.73886   0.00000  Uiso   1.00
C146   C     0.10488   0.64659   0.78371   0.00000  Uiso   1.00
C147   C     0.01524   0.59436   0.87486   0.00000  Uiso   1.00
C148   C     0.33320   0.65559   0.62578   0.00000  Uiso   1.00
C149   C     0.40544   0.68730   0.64854   0.00000  Uiso   1.00
C150   C     0.46904   0.63590   0.65209   0.00000  Uiso   1.00
C151   C     0.59017   0.57750   0.66704   0.00000  Uiso   1.00
C152   C     0.24051   0.55340   0.58386   0.00000  Uiso   1.00
C153   C     0.21834   0.60662   0.51140   0.00000  Uiso   1.00
C154   C     0.19234   0.58143   0.43430   0.00000  Uiso   1.00
C155   C     0.17504   0.63936   0.37633   0.00000  Uiso   1.00
C156   C     0.18903   0.57937   0.65633   0.00000  Uiso   1.00
C157   C     0.13841   0.53126   0.70110   0.00000  Uiso   1.00
C158   C     0.09644   0.56624   0.76514   0.00000  Uiso   1.00
C159   C     0.32478   0.57539   0.60725   0.00000  Uiso   1.00
C160   C     0.38828   0.52393   0.61078   0.00000  Uiso   1.00
C161   C     0.46061   0.55555   0.63352   0.00000  Uiso   1.00
H162   H     0.26257   0.76350   0.63242   0.00000  Uiso   1.00
H163   H     0.21601   0.80687   0.48642   0.00000  Uiso   1.00
H164   H     0.16209   0.75670   0.75319   0.00000  Uiso   1.00
H165   H     0.41193   0.74937   0.66287   0.00000  Uiso   1.00
H166   H     0.16066   0.81957   0.31640   0.00000  Uiso   1.00
H167   H     0.04699   0.71379   0.87890   0.00000  Uiso   1.00
H168   H     0.57382   0.69833   0.68847   0.00000  Uiso   1.00
H169   H     0.23395   0.49095   0.56943   0.00000  Uiso   1.00
H170   H     0.18583   0.51936   0.41998   0.00000  Uiso   1.00
H171   H     0.13191   0.46919   0.68674   0.00000  Uiso   1.00
H172   H     0.38175   0.46186   0.59643   0.00000  Uiso   1.00
H173   H     0.13616   0.58622   0.26247   0.00000  Uiso   1.00
H174   H     0.02249   0.48044   0.82498   0.00000  Uiso   1.00
H175   H     0.54932   0.46498   0.63454   0.00000  Uiso   1.00
O176   O     0.11724   0.72651   0.19227   0.00000  Uiso   1.00
O177   O     0.96812   0.58771   0.93026   0.00000  Uiso   1.00
O178   O     0.65931   0.56744   0.68040   0.00000  Uiso   1.00
N179   N     0.16151   0.76076   0.32421   0.00000  Uiso   1.00
N180   N     0.05522   0.66185   0.85011   0.00000  Uiso   1.00
N181   N     0.54776   0.64740   0.67209   0.00000  Uiso   1.00
N182   N     0.14833   0.63519   0.29519   0.00000  Uiso   1.00
N183   N     0.04204   0.53629   0.82109   0.00000  Uiso   1.00
N184   N     0.53458   0.52184   0.64307   0.00000  Uiso   1.00
C185   C     0.70106   0.25602   0.38202   0.00000  Uiso   1.00
C186   C     0.68683   0.22676   0.47007   0.00000  Uiso   1.00
C187   C     0.74480   0.20950   0.52795   0.00000  Uiso   1.00
C188   C     0.71971   0.18348   0.60510   0.00000  Uiso   1.00
C189   C     0.70981   0.13930   0.73900   0.00000  Uiso   1.00
C190   C     0.65957   0.19745   0.32514   0.00000  Uiso   1.00
C191   C     0.69463   0.15556   0.26114   0.00000  Uiso   1.00
C192   C     0.64659   0.10488   0.21629   0.00000  Uiso   1.00
C193   C     0.59436   0.01524   0.12514   0.00000  Uiso   1.00
C194   C     0.65559   0.33320   0.37422   0.00000  Uiso   1.00
C195   C     0.68730   0.40544   0.35146   0.00000  Uiso   1.00
C196   C     0.63590   0.46904   0.34791   0.00000  Uiso   1.00
C197   C     0.57750   0.59017   0.33296   0.00000  Uiso   1.00
C198   C     0.55340   0.24051   0.41614   0.00000  Uiso   1.00
C199   C     0.60662   0.21834   0.48860   0.00000  Uiso   1.00
C200   C     0.58143   0.19234   0.56570   0.00000  Uiso   1.00
C201   C     0.63936   0.17504   0.62367   0.00000  Uiso   1.00
C202   C     0.57937   0.18903   0.34367   0.00000  Uiso   1.00
C203   C     0.53126   0.13841   0.29890   0.00000  Uiso   1.00
C204   C     0.56624   0.09644   0.23486   0.00000  Uiso   1.00
C205   C     0.57539   0.32478   0.39275   0.00000  Uiso   1.00
C206   C     0.52393   0.38828   0.38922   0.00000  Uiso   1.00
C207   C     0.55555   0.46061   0.36648   0.00000  Uiso   1.00
H208   H     0.76350   0.26257   0.36758   0.00000  Uiso   1.00
H209   H     0.80687   0.21601   0.51358   0.00000  Uiso   1.00
H210   H     0.75670   0.16209   0.24681   0.00000  Uiso   1.00
H211   H     0.74937   0.41193   0.33713   0.00000  Uiso   1.00
H212   H     0.81957   0.16066   0.68360   0.00000  Uiso   1.00
H213   H     0.71379   0.04699   0.12110   0.00000  Uiso   1.00
H214   H     0.69833   0.57382   0.31153   0.00000  Uiso   1.00
H215   H     0.49095   0.23395   0.43057   0.00000  Uiso   1.00
H216   H     0.51936   0.18583   0.58002   0.00000  Uiso   1.00
H217   H     0.46919   0.13191   0.31326   0.00000  Uiso   1.00
H218   H     0.46186   0.38175   0.40357   0.00000  Uiso   1.00
H219   H     0.58622   0.13616   0.73753   0.00000  Uiso   1.00
H220   H     0.48044   0.02249   0.17502   0.00000  Uiso   1.00
H221   H     0.46498   0.54932   0.36546   0.00000  Uiso   1.00
O222   O     0.72651   0.11724   0.80773   0.00000  Uiso   1.00
O223   O     0.58771   0.96812   0.06974   0.00000  Uiso   1.00
O224   O     0.56744   0.65931   0.31960   0.00000  Uiso   1.00
N225   N     0.76076   0.16151   0.67579   0.00000  Uiso   1.00
N226   N     0.66185   0.05522   0.14989   0.00000  Uiso   1.00
N227   N     0.64740   0.54776   0.32791   0.00000  Uiso   1.00
N228   N     0.63519   0.14833   0.70481   0.00000  Uiso   1.00
N229   N     0.53629   0.04204   0.17891   0.00000  Uiso   1.00
N230   N     0.52184   0.53458   0.35693   0.00000  Uiso   1.00
C231   C     0.29894   0.74398   0.88202   0.00000  Uiso   1.00
C232   C     0.31317   0.77324   0.97007   0.00000  Uiso   1.00
C233   C     0.25520   0.79050   0.02795   0.00000  Uiso   1.00
C234   C     0.28029   0.81652   0.10510   0.00000  Uiso   1.00
C235   C     0.29019   0.86070   0.23900   0.00000  Uiso   1.00
C236   C     0.34043   0.80255   0.82514   0.00000  Uiso   1.00
C237   C     0.30537   0.84444   0.76114   0.00000  Uiso   1.00
C238   C     0.35341   0.89512   0.71629   0.00000  Uiso   1.00
C239   C     0.40564   0.98476   0.62514   0.00000  Uiso   1.00
C240   C     0.34441   0.66680   0.87422   0.00000  Uiso   1.00
C241   C     0.31270   0.59456   0.85146   0.00000  Uiso   1.00
C242   C     0.36410   0.53096   0.84791   0.00000  Uiso   1.00
C243   C     0.42250   0.40983   0.83296   0.00000  Uiso   1.00
C244   C     0.44660   0.75949   0.91614   0.00000  Uiso   1.00
C245   C     0.39338   0.78166   0.98860   0.00000  Uiso   1.00
C246   C     0.41857   0.80766   0.06570   0.00000  Uiso   1.00
C247   C     0.36064   0.82496   0.12367   0.00000  Uiso   1.00
C248   C     0.42063   0.81097   0.84367   0.00000  Uiso   1.00
C249   C     0.46874   0.86159   0.79890   0.00000  Uiso   1.00
C250   C     0.43376   0.90356   0.73486   0.00000  Uiso   1.00
C251   C     0.42461   0.67522   0.89275   0.00000  Uiso   1.00
C252   C     0.47607   0.61172   0.88922   0.00000  Uiso   1.00
C253   C     0.44445   0.53939   0.86648   0.00000  Uiso   1.00
H254   H     0.23650   0.73743   0.86758   0.00000  Uiso   1.00
H255   H     0.19313   0.78399   0.01358   0.00000  Uiso   1.00
H256   H     0.24330   0.83791   0.74681   0.00000  Uiso   1.00
H257   H     0.25063   0.58807   0.83713   0.00000  Uiso   1.00
H258   H     0.18043   0.83934   0.18360   0.00000  Uiso   1.00
H259   H     0.28621   0.95301   0.62110   0.00000  Uiso   1.00
H260   H     0.30167   0.42618   0.81153   0.00000  Uiso   1.00
H261   H     0.50905   0.76605   0.93057   0.00000  Uiso   1.00
H262   H     0.48064   0.81417   0.08002   0.00000  Uiso   1.00
H263   H     0.53081   0.86809   0.81326   0.00000  Uiso   1.00
H264   H     0.53814   0.61825   0.90357   0.00000  Uiso   1.00
H265   H     0.41378   0.86384   0.23753   0.00000  Uiso   1.00
H266   H     0.51956   0.97751   0.67502   0.00000  Uiso   1.00
H267   H     0.53502   0.45068   0.86546   0.00000  Uiso   1.00
O268   O     0.27349   0.88276   0.30773   0.00000  Uiso   1.00
O269   O     0.41229   0.03188   0.56974   0.00000  Uiso   1.00
O270   O     0.43256   0.34069   0.81960   0.00000  Uiso   1.00
N271   N     0.23924   0.83849   0.17579   0.00000  Uiso   1.00
N272   N     0.33815   0.94478   0.64989   0.00000  Uiso   1.00
N273   N     0.35260   0.45224   0.82791   0.00000  Uiso   1.00
N274   N     0.36481   0.85167   0.20481   0.00000  Uiso   1.00
N275   N     0.46371   0.95796   0.67891   0.00000  Uiso   1.00
N276   N     0.47816   0.46542   0.85693   0.00000  Uiso   1.00
C277   C     0.75602   0.79894   0.63202   0.00000  Uiso   1.00
C278   C     0.72676   0.81317   0.72007   0.00000  Uiso   1.00
C279   C     0.70950   0.75520   0.77795   0.00000  Uiso   1.00
C280   C     0.68348   0.78029   0.85510   0.00000  Uiso   1.00
C281   C     0.63930   0.79019   0.98900   0.00000  Uiso   1.00
C282   C     0.69745   0.84043   0.57514   0.00000  Uiso   1.00
C283   C     0.65556   0.80537   0.51114   0.00000  Uiso   1.00
C284   C     0.60488   0.85341   0.46629   0.00000  Uiso   1.00
C285   C     0.51524   0.90564   0.37514   0.00000  Uiso   1.00
C286   C     0.83320   0.84441   0.62422   0.00000  Uiso   1.00
C287   C     0.90544   0.81270   0.60146   0.00000  Uiso   1.00
C288   C     0.96904   0.86410   0.59791   0.00000  Uiso   1.00
C289   C     0.09017   0.92250   0.58296   0.00000  Uiso   1.00
C290   C     0.74051   0.94660   0.66614   0.00000  Uiso   1.00
C291   C     0.71834   0.89338   0.73860   0.00000  Uiso   1.00
C292   C     0.69234   0.91857   0.81570   0.00000  Uiso   1.00
C293   C     0.67504   0.86064   0.87367   0.00000  Uiso   1.00
C294   C     0.68903   0.92063   0.59367   0.00000  Uiso   1.00
C295   C     0.63841   0.96874   0.54890   0.00000  Uiso   1.00
C296   C     0.59644   0.93376   0.48486   0.00000  Uiso   1.00
C297   C     0.82478   0.92461   0.64275   0.00000  Uiso   1.00
C298   C     0.88828   0.97607   0.63922   0.00000  Uiso   1.00
C299   C     0.96061   0.94445   0.61648   0.00000  Uiso   1.00
H300   H     0.76257   0.73650   0.61758   0.00000  Uiso   1.00
H301   H     0.71601   0.69313   0.76358   0.00000  Uiso   1.00
H302   H     0.66209   0.74330   0.49681   0.00000  Uiso   1.00
H303   H     0.91193   0.75063   0.58713   0.00000  Uiso   1.00
H304   H     0.66066   0.68043   0.93360   0.00000  Uiso   1.00
H305   H     0.54699   0.78621   0.37110   0.00000  Uiso   1.00
H306   H     0.07382   0.80167   0.56153   0.00000  Uiso   1.00
H307   H     0.73395   0.00905   0.68057   0.00000  Uiso   1.00
H308   H     0.68583   0.98064   0.83002   0.00000  Uiso   1.00
H309   H     0.63191   0.03081   0.56326   0.00000  Uiso   1.00
H310   H     0.88175   0.03814   0.65357   0.00000  Uiso   1.00
H311   H     0.63616   0.91378   0.98753   0.00000  Uiso   1.00
H312   H     0.52249   0.01956   0.42502   0.00000  Uiso   1.00
H313   H     0.04932   0.03502   0.61546   0.00000  Uiso   1.00
O314   O     0.61724   0.77349   0.05773   0.00000  Uiso   1.00
O315   O     0.46812   0.91229   0.31974   0.00000  Uiso   1.00
O316   O     0.15931   0.93256   0.56960   0.00000  Uiso   1.00
N317   N     0.66151   0.73924   0.92579   0.00000  Uiso   1.00
N318   N     0.55522   0.83815   0.39989   0.00000  Uiso   1.00
N319   N     0.04776   0.85260   0.57791   0.00000  Uiso   1.00
N320   N     0.64833   0.86481   0.95481   0.00000  Uiso   1.00
N321   N     0.54204   0.96371   0.42891   0.00000  Uiso   1.00
N322   N     0.03458   0.97816   0.60693   0.00000  Uiso   1.00
C323   C     0.24398   0.20106   0.13202   0.00000  Uiso   1.00
C324   C     0.27324   0.18683   0.22007   0.00000  Uiso   1.00
C325   C     0.29050   0.24480   0.27795   0.00000  Uiso   1.00
C326   C     0.31652   0.21971   0.35510   0.00000  Uiso   1.00
C327   C     0.36070   0.20981   0.48900   0.00000  Uiso   1.00
C328   C     0.30255   0.15957   0.07514   0.00000  Uiso   1.00
C329   C     0.34444   0.19463   0.01114   0.00000  Uiso   1.00
C330   C     0.39512   0.14659   0.96629   0.00000  Uiso   1.00
C331   C     0.48476   0.09436   0.87514   0.00000  Uiso   1.00
C332   C     0.16680   0.15559   0.12422   0.00000  Uiso   1.00
C333   C     0.09456   0.18730   0.10146   0.00000  Uiso   1.00
C334   C     0.03096   0.13590   0.09791   0.00000  Uiso   1.00
C335   C     0.90983   0.07750   0.08296   0.00000  Uiso   1.00
C336   C     0.25949   0.05340   0.16614   0.00000  Uiso   1.00
C337   C     0.28166   0.10662   0.23860   0.00000  Uiso   1.00
C338   C     0.30766   0.08143   0.31570   0.00000  Uiso   1.00
C339   C     0.32496   0.13936   0.37367   0.00000  Uiso   1.00
C340   C     0.31097   0.07937   0.09367   0.00000  Uiso   1.00
C341   C     0.36159   0.03126   0.04890   0.00000  Uiso   1.00
C342   C     0.40356   0.06624   0.98486   0.00000  Uiso   1.00
C343   C     0.17522   0.07539   0.14275   0.00000  Uiso   1.00
C344   C     0.11172   0.02393   0.13922   0.00000  Uiso   1.00
C345   C     0.03939   0.05555   0.11648   0.00000  Uiso   1.00
H346   H     0.23743   0.26350   0.11758   0.00000  Uiso   1.00
H347   H     0.28399   0.30687   0.26358   0.00000  Uiso   1.00
H348   H     0.33791   0.25670   0.99681   0.00000  Uiso   1.00
H349   H     0.08807   0.24937   0.08713   0.00000  Uiso   1.00
H350   H     0.33934   0.31957   0.43360   0.00000  Uiso   1.00
H351   H     0.45301   0.21379   0.87110   0.00000  Uiso   1.00
H352   H     0.92618   0.19833   0.06153   0.00000  Uiso   1.00
H353   H     0.26605   0.99095   0.18057   0.00000  Uiso   1.00
H354   H     0.31417   0.01936   0.33002   0.00000  Uiso   1.00
H355   H     0.36809   0.96919   0.06326   0.00000  Uiso   1.00
H356   H     0.11825   0.96186   0.15357   0.00000  Uiso   1.00
H357   H     0.36384   0.08622   0.48753   0.00000  Uiso   1.00
H358   H     0.47751   0.98044   0.92502   0.00000  Uiso   1.00
H359   H     0.95068   0.96498   0.11546   0.00000  Uiso   1.00
O360   O     0.38276   0.22651   0.55773   0.00000  Uiso   1.00
O361   O     0.53188   0.08771   0.81974   0.00000  Uiso   1.00
O362   O     0.84069   0.06744   0.06960   0.00000  Uiso   1.00
N363   N     0.33849   0.26076   0.42579   0.00000  Uiso   1.00
N364   N     0.44478   0.16185   0.89989   0.00000  Uiso   1.00
N365   N     0.95224   0.14740   0.07791   0.00000  Uiso   1.00
N366   N     0.35167   0.13519   0.45481   0.00000  Uiso   1.00
N367   N     0.45796   0.03629   0.92891   0.00000  Uiso   1.00
N368   N     0.96542   0.02184   0.10693   0.00000  Uiso   1.00
