data_job_00789
_audit_creation_date              2018-12-19
_audit_creation_method            'Materials Studio'
_symmetry_space_group_name_H-M    'P1'
_symmetry_Int_Tables_number       1
_symmetry_cell_setting            triclinic
loop_
_symmetry_equiv_pos_as_xyz
  x,y,z
_cell_length_a                    21.5870
_cell_length_b                    12.4632
_cell_length_c                    10.4203
_cell_angle_alpha                 90.0000
_cell_angle_beta                  90.0000
_cell_angle_gamma                 90.0000
loop_
_atom_site_label
_atom_site_type_symbol
_atom_site_fract_x
_atom_site_fract_y
_atom_site_fract_z
_atom_site_U_iso_or_equiv
_atom_site_adp_type
_atom_site_occupancy
C1     C     0.79627   0.60172   0.12230   0.00000  Uiso   1.00
C2     C     0.79028   0.70393   0.20178   0.00000  Uiso   1.00
C3     C     0.73637   0.76282   0.21921   0.00000  Uiso   1.00
C4     C     0.74049   0.85395   0.29536   0.00000  Uiso   1.00
C5     C     0.72267   0.00797   0.41011   0.00000  Uiso   1.00
C6     C     0.84698   0.62369   0.02386   0.00000  Uiso   1.00
C7     C     0.84074   0.61510   0.89170   0.00000  Uiso   1.00
C8     C     0.89259   0.63868   0.81808   0.00000  Uiso   1.00
C9     C     0.96281   0.66805   0.65660   0.00000  Uiso   1.00
C10    C     0.82227   0.51668   0.21269   0.00000  Uiso   1.00
C11    C     0.79527   0.41810   0.23928   0.00000  Uiso   1.00
C12    C     0.82632   0.35157   0.32463   0.00000  Uiso   1.00
C13    C     0.85817   0.21480   0.45634   0.00000  Uiso   1.00
C14    C     0.89945   0.65884   0.22655   0.00000  Uiso   1.00
C15    C     0.84632   0.73495   0.25840   0.00000  Uiso   1.00
C16    C     0.85053   0.82602   0.33455   0.00000  Uiso   1.00
C17    C     0.79663   0.88503   0.35209   0.00000  Uiso   1.00
C18    C     0.90302   0.65472   0.08047   0.00000  Uiso   1.00
C19    C     0.95489   0.67830   0.00703   0.00000  Uiso   1.00
C20    C     0.94874   0.66976   0.87480   0.00000  Uiso   1.00
C21    C     0.87831   0.54771   0.26932   0.00000  Uiso   1.00
C22    C     0.90942   0.48131   0.35462   0.00000  Uiso   1.00
C23    C     0.88247   0.38266   0.38135   0.00000  Uiso   1.00
H24    H     0.75265   0.57756   0.07821   0.00000  Uiso   1.00
H25    H     0.69301   0.73878   0.17537   0.00000  Uiso   1.00
H26    H     0.79737   0.59108   0.84791   0.00000  Uiso   1.00
H27    H     0.75190   0.39412   0.19545   0.00000  Uiso   1.00
H28    H     0.65162   0.93123   0.30802   0.00000  Uiso   1.00
H29    H     0.87166   0.61976   0.61755   0.00000  Uiso   1.00
H30    H     0.77578   0.20443   0.35040   0.00000  Uiso   1.00
H31    H     0.94308   0.68300   0.27063   0.00000  Uiso   1.00
H32    H     0.89390   0.85001   0.37835   0.00000  Uiso   1.00
H33    H     0.99826   0.70231   0.05088   0.00000  Uiso   1.00
H34    H     0.95279   0.50535   0.39842   0.00000  Uiso   1.00
H35    H     0.81467   0.02151   0.47276   0.00000  Uiso   1.00
H36    H     0.03471   0.71003   0.78229   0.00000  Uiso   1.00
H37    H     0.93883   0.29471   0.51514   0.00000  Uiso   1.00
O38    O     0.69736   0.08436   0.45774   0.00000  Uiso   1.00
O39    O     0.98605   0.67569   0.55188   0.00000  Uiso   1.00
O40    O     0.86025   0.13079   0.51337   0.00000  Uiso   1.00
N41    N     0.69674   0.92955   0.33203   0.00000  Uiso   1.00
N42    N     0.90247   0.63835   0.68648   0.00000  Uiso   1.00
N43    N     0.81283   0.25004   0.37161   0.00000  Uiso   1.00
N44    N     0.78448   0.97813   0.42067   0.00000  Uiso   1.00
N45    N     0.99020   0.68693   0.77513   0.00000  Uiso   1.00
N46    N     0.90057   0.29862   0.46025   0.00000  Uiso   1.00
C47    C     0.20373   0.39828   0.12230   0.00000  Uiso   1.00
C48    C     0.20972   0.29607   0.20178   0.00000  Uiso   1.00
C49    C     0.26363   0.23718   0.21921   0.00000  Uiso   1.00
C50    C     0.25951   0.14605   0.29536   0.00000  Uiso   1.00
C51    C     0.27733   0.99203   0.41011   0.00000  Uiso   1.00
C52    C     0.15302   0.37631   0.02386   0.00000  Uiso   1.00
C53    C     0.15926   0.38490   0.89170   0.00000  Uiso   1.00
C54    C     0.10741   0.36132   0.81808   0.00000  Uiso   1.00
C55    C     0.03719   0.33195   0.65660   0.00000  Uiso   1.00
C56    C     0.17773   0.48332   0.21269   0.00000  Uiso   1.00
C57    C     0.20473   0.58190   0.23928   0.00000  Uiso   1.00
C58    C     0.17368   0.64843   0.32463   0.00000  Uiso   1.00
C59    C     0.14183   0.78520   0.45634   0.00000  Uiso   1.00
C60    C     0.10055   0.34116   0.22655   0.00000  Uiso   1.00
C61    C     0.15368   0.26505   0.25840   0.00000  Uiso   1.00
C62    C     0.14947   0.17398   0.33455   0.00000  Uiso   1.00
C63    C     0.20337   0.11497   0.35209   0.00000  Uiso   1.00
C64    C     0.09698   0.34528   0.08047   0.00000  Uiso   1.00
C65    C     0.04511   0.32170   0.00703   0.00000  Uiso   1.00
C66    C     0.05126   0.33024   0.87480   0.00000  Uiso   1.00
C67    C     0.12169   0.45229   0.26932   0.00000  Uiso   1.00
C68    C     0.09058   0.51869   0.35462   0.00000  Uiso   1.00
C69    C     0.11753   0.61734   0.38135   0.00000  Uiso   1.00
H70    H     0.24735   0.42244   0.07821   0.00000  Uiso   1.00
H71    H     0.30699   0.26122   0.17537   0.00000  Uiso   1.00
H72    H     0.20263   0.40892   0.84791   0.00000  Uiso   1.00
H73    H     0.24810   0.60588   0.19545   0.00000  Uiso   1.00
H74    H     0.34838   0.06877   0.30802   0.00000  Uiso   1.00
H75    H     0.12834   0.38024   0.61755   0.00000  Uiso   1.00
H76    H     0.22422   0.79557   0.35040   0.00000  Uiso   1.00
H77    H     0.05692   0.31700   0.27063   0.00000  Uiso   1.00
H78    H     0.10610   0.14999   0.37835   0.00000  Uiso   1.00
H79    H     0.00174   0.29769   0.05088   0.00000  Uiso   1.00
H80    H     0.04721   0.49465   0.39842   0.00000  Uiso   1.00
H81    H     0.18533   0.97849   0.47276   0.00000  Uiso   1.00
H82    H     0.96529   0.28997   0.78229   0.00000  Uiso   1.00
H83    H     0.06117   0.70529   0.51514   0.00000  Uiso   1.00
O84    O     0.30264   0.91564   0.45774   0.00000  Uiso   1.00
O85    O     0.01395   0.32431   0.55188   0.00000  Uiso   1.00
O86    O     0.13975   0.86921   0.51337   0.00000  Uiso   1.00
N87    N     0.30326   0.07045   0.33203   0.00000  Uiso   1.00
N88    N     0.09753   0.36165   0.68648   0.00000  Uiso   1.00
N89    N     0.18717   0.74996   0.37161   0.00000  Uiso   1.00
N90    N     0.21552   0.02187   0.42067   0.00000  Uiso   1.00
N91    N     0.00980   0.31307   0.77513   0.00000  Uiso   1.00
N92    N     0.09943   0.70138   0.46025   0.00000  Uiso   1.00
C93    C     0.70373   0.10172   0.87770   0.00000  Uiso   1.00
C94    C     0.70972   0.20393   0.79822   0.00000  Uiso   1.00
C95    C     0.76363   0.26282   0.78079   0.00000  Uiso   1.00
C96    C     0.75951   0.35395   0.70464   0.00000  Uiso   1.00
C97    C     0.77733   0.50797   0.58989   0.00000  Uiso   1.00
C98    C     0.65302   0.12369   0.97614   0.00000  Uiso   1.00
C99    C     0.65926   0.11510   0.10830   0.00000  Uiso   1.00
C100   C     0.60741   0.13868   0.18192   0.00000  Uiso   1.00
C101   C     0.53719   0.16805   0.34340   0.00000  Uiso   1.00
C102   C     0.67773   0.01668   0.78731   0.00000  Uiso   1.00
C103   C     0.70473   0.91810   0.76072   0.00000  Uiso   1.00
C104   C     0.67368   0.85157   0.67537   0.00000  Uiso   1.00
C105   C     0.64183   0.71480   0.54366   0.00000  Uiso   1.00
C106   C     0.60055   0.15884   0.77345   0.00000  Uiso   1.00
C107   C     0.65368   0.23495   0.74160   0.00000  Uiso   1.00
C108   C     0.64947   0.32602   0.66545   0.00000  Uiso   1.00
C109   C     0.70337   0.38503   0.64791   0.00000  Uiso   1.00
C110   C     0.59698   0.15472   0.91953   0.00000  Uiso   1.00
C111   C     0.54511   0.17830   0.99297   0.00000  Uiso   1.00
C112   C     0.55126   0.16976   0.12520   0.00000  Uiso   1.00
C113   C     0.62169   0.04771   0.73068   0.00000  Uiso   1.00
C114   C     0.59058   0.98131   0.64538   0.00000  Uiso   1.00
C115   C     0.61753   0.88266   0.61865   0.00000  Uiso   1.00
H116   H     0.74735   0.07756   0.92179   0.00000  Uiso   1.00
H117   H     0.80699   0.23878   0.82463   0.00000  Uiso   1.00
H118   H     0.70263   0.09108   0.15209   0.00000  Uiso   1.00
H119   H     0.74810   0.89412   0.80455   0.00000  Uiso   1.00
H120   H     0.84838   0.43123   0.69198   0.00000  Uiso   1.00
H121   H     0.62834   0.11976   0.38245   0.00000  Uiso   1.00
H122   H     0.72422   0.70443   0.64960   0.00000  Uiso   1.00
H123   H     0.55692   0.18300   0.72937   0.00000  Uiso   1.00
H124   H     0.60610   0.35001   0.62165   0.00000  Uiso   1.00
H125   H     0.50174   0.20231   0.94912   0.00000  Uiso   1.00
H126   H     0.54721   0.00535   0.60158   0.00000  Uiso   1.00
H127   H     0.68533   0.52151   0.52724   0.00000  Uiso   1.00
H128   H     0.46529   0.21003   0.21771   0.00000  Uiso   1.00
H129   H     0.56117   0.79471   0.48486   0.00000  Uiso   1.00
O130   O     0.80264   0.58436   0.54226   0.00000  Uiso   1.00
O131   O     0.51395   0.17569   0.44812   0.00000  Uiso   1.00
O132   O     0.63975   0.63079   0.48663   0.00000  Uiso   1.00
N133   N     0.80326   0.42955   0.66797   0.00000  Uiso   1.00
N134   N     0.59753   0.13835   0.31352   0.00000  Uiso   1.00
N135   N     0.68717   0.75004   0.62839   0.00000  Uiso   1.00
N136   N     0.71552   0.47813   0.57933   0.00000  Uiso   1.00
N137   N     0.50980   0.18693   0.22487   0.00000  Uiso   1.00
N138   N     0.59943   0.79862   0.53975   0.00000  Uiso   1.00
C139   C     0.29627   0.89828   0.87770   0.00000  Uiso   1.00
C140   C     0.29028   0.79607   0.79822   0.00000  Uiso   1.00
C141   C     0.23637   0.73718   0.78079   0.00000  Uiso   1.00
C142   C     0.24049   0.64605   0.70464   0.00000  Uiso   1.00
C143   C     0.22267   0.49203   0.58989   0.00000  Uiso   1.00
C144   C     0.34698   0.87631   0.97614   0.00000  Uiso   1.00
C145   C     0.34074   0.88490   0.10830   0.00000  Uiso   1.00
C146   C     0.39259   0.86132   0.18192   0.00000  Uiso   1.00
C147   C     0.46281   0.83195   0.34340   0.00000  Uiso   1.00
C148   C     0.32227   0.98332   0.78731   0.00000  Uiso   1.00
C149   C     0.29527   0.08190   0.76072   0.00000  Uiso   1.00
C150   C     0.32632   0.14843   0.67537   0.00000  Uiso   1.00
C151   C     0.35817   0.28520   0.54366   0.00000  Uiso   1.00
C152   C     0.39945   0.84116   0.77345   0.00000  Uiso   1.00
C153   C     0.34632   0.76505   0.74160   0.00000  Uiso   1.00
C154   C     0.35053   0.67398   0.66545   0.00000  Uiso   1.00
C155   C     0.29663   0.61497   0.64791   0.00000  Uiso   1.00
C156   C     0.40302   0.84528   0.91953   0.00000  Uiso   1.00
C157   C     0.45489   0.82170   0.99297   0.00000  Uiso   1.00
C158   C     0.44874   0.83024   0.12520   0.00000  Uiso   1.00
C159   C     0.37831   0.95229   0.73068   0.00000  Uiso   1.00
C160   C     0.40942   0.01869   0.64538   0.00000  Uiso   1.00
C161   C     0.38247   0.11734   0.61865   0.00000  Uiso   1.00
H162   H     0.25265   0.92244   0.92179   0.00000  Uiso   1.00
H163   H     0.19301   0.76122   0.82463   0.00000  Uiso   1.00
H164   H     0.29737   0.90892   0.15209   0.00000  Uiso   1.00
H165   H     0.25190   0.10588   0.80455   0.00000  Uiso   1.00
H166   H     0.15162   0.56877   0.69198   0.00000  Uiso   1.00
H167   H     0.37166   0.88024   0.38245   0.00000  Uiso   1.00
H168   H     0.27578   0.29557   0.64960   0.00000  Uiso   1.00
H169   H     0.44308   0.81700   0.72937   0.00000  Uiso   1.00
H170   H     0.39390   0.64999   0.62165   0.00000  Uiso   1.00
H171   H     0.49826   0.79769   0.94912   0.00000  Uiso   1.00
H172   H     0.45279   0.99465   0.60158   0.00000  Uiso   1.00
H173   H     0.31467   0.47849   0.52724   0.00000  Uiso   1.00
H174   H     0.53471   0.78997   0.21771   0.00000  Uiso   1.00
H175   H     0.43883   0.20529   0.48486   0.00000  Uiso   1.00
O176   O     0.19736   0.41564   0.54226   0.00000  Uiso   1.00
O177   O     0.48605   0.82431   0.44812   0.00000  Uiso   1.00
O178   O     0.36025   0.36921   0.48663   0.00000  Uiso   1.00
N179   N     0.19674   0.57045   0.66797   0.00000  Uiso   1.00
N180   N     0.40247   0.86165   0.31352   0.00000  Uiso   1.00
N181   N     0.31283   0.24996   0.62839   0.00000  Uiso   1.00
N182   N     0.28448   0.52187   0.57933   0.00000  Uiso   1.00
N183   N     0.49020   0.81307   0.22487   0.00000  Uiso   1.00
N184   N     0.40057   0.20138   0.53975   0.00000  Uiso   1.00
