data_job_06782
_audit_creation_date              2018-12-19
_audit_creation_method            'Materials Studio'
_symmetry_space_group_name_H-M    'P1'
_symmetry_Int_Tables_number       1
_symmetry_cell_setting            triclinic
loop_
_symmetry_equiv_pos_as_xyz
  x,y,z
_cell_length_a                    21.8001
_cell_length_b                    22.0816
_cell_length_c                    22.1214
_cell_angle_alpha                 114.8377
_cell_angle_beta                  115.9868
_cell_angle_gamma                 68.6725
loop_
_atom_site_label
_atom_site_type_symbol
_atom_site_fract_x
_atom_site_fract_y
_atom_site_fract_z
_atom_site_U_iso_or_equiv
_atom_site_adp_type
_atom_site_occupancy
C1     C     0.41860   0.01678   0.16881   0.00000  Uiso   1.00
C2     C     0.40114   0.09378   0.18246   0.00000  Uiso   1.00
C3     C     0.38223   0.12560   0.13254   0.00000  Uiso   1.00
C4     C     0.36834   0.19659   0.15554   0.00000  Uiso   1.00
C5     C     0.34052   0.31041   0.16603   0.00000  Uiso   1.00
C6     C     0.49170   0.00016   0.22100   0.00000  Uiso   1.00
C7     C     0.54893   0.95325   0.20348   0.00000  Uiso   1.00
C8     C     0.61127   0.94543   0.25893   0.00000  Uiso   1.00
C9     C     0.72403   0.91385   0.32926   0.00000  Uiso   1.00
C10    C     0.36910   0.00403   0.19181   0.00000  Uiso   1.00
C11    C     0.32326   0.96038   0.14975   0.00000  Uiso   1.00
C12    C     0.28238   0.95580   0.18064   0.00000  Uiso   1.00
C13    C     0.20479   0.93025   0.20565   0.00000  Uiso   1.00
C14    C     0.42754   0.08627   0.29845   0.00000  Uiso   1.00
C15    C     0.40600   0.13152   0.25288   0.00000  Uiso   1.00
C16    C     0.39212   0.20248   0.27597   0.00000  Uiso   1.00
C17    C     0.37320   0.23441   0.22608   0.00000  Uiso   1.00
C18    C     0.49656   0.03790   0.29142   0.00000  Uiso   1.00
C19    C     0.55882   0.03013   0.34691   0.00000  Uiso   1.00
C20    C     0.61613   0.98323   0.32948   0.00000  Uiso   1.00
C21    C     0.37395   0.04178   0.26223   0.00000  Uiso   1.00
C22    C     0.33315   0.03726   0.29319   0.00000  Uiso   1.00
C23    C     0.28725   0.99361   0.25118   0.00000  Uiso   1.00
H24    H     0.41483   0.98740   0.11399   0.00000  Uiso   1.00
H25    H     0.37849   0.09638   0.07805   0.00000  Uiso   1.00
H26    H     0.54515   0.92405   0.14898   0.00000  Uiso   1.00
H27    H     0.31952   0.93118   0.09527   0.00000  Uiso   1.00
H28    H     0.34037   0.23384   0.06926   0.00000  Uiso   1.00
H29    H     0.69179   0.87046   0.21883   0.00000  Uiso   1.00
H30    H     0.21599   0.88550   0.10555   0.00000  Uiso   1.00
H31    H     0.43133   0.11565   0.35328   0.00000  Uiso   1.00
H32    H     0.39589   0.23168   0.33046   0.00000  Uiso   1.00
H33    H     0.56256   0.05935   0.40140   0.00000  Uiso   1.00
H34    H     0.33692   0.06648   0.34768   0.00000  Uiso   1.00
H35    H     0.35449   0.34366   0.27413   0.00000  Uiso   1.00
H36    H     0.70592   0.98027   0.42370   0.00000  Uiso   1.00
H37    H     0.23011   0.99531   0.31042   0.00000  Uiso   1.00
O38    O     0.32384   0.36276   0.15237   0.00000  Uiso   1.00
O39    O     0.78489   0.88601   0.34860   0.00000  Uiso   1.00
O40    O     0.16065   0.90573   0.19999   0.00000  Uiso   1.00
N41    N     0.34854   0.24377   0.12060   0.00000  Uiso   1.00
N42    N     0.67710   0.90403   0.26044   0.00000  Uiso   1.00
N43    N     0.23228   0.91808   0.15454   0.00000  Uiso   1.00
N44    N     0.35614   0.30286   0.23084   0.00000  Uiso   1.00
N45    N     0.68470   0.96313   0.37068   0.00000  Uiso   1.00
N46    N     0.23988   0.97717   0.26478   0.00000  Uiso   1.00
C47    C     0.46139   0.77417   0.45504   0.00000  Uiso   1.00
C48    C     0.42339   0.81071   0.50885   0.00000  Uiso   1.00
C49    C     0.41358   0.88005   0.54613   0.00000  Uiso   1.00
C50    C     0.37745   0.90357   0.59293   0.00000  Uiso   1.00
C51    C     0.32233   0.96704   0.67512   0.00000  Uiso   1.00
C52    C     0.51928   0.71714   0.48102   0.00000  Uiso   1.00
C53    C     0.59009   0.70780   0.49489   0.00000  Uiso   1.00
C54    C     0.63468   0.65255   0.51827   0.00000  Uiso   1.00
C55    C     0.72843   0.57071   0.55721   0.00000  Uiso   1.00
C56    C     0.40950   0.73878   0.38678   0.00000  Uiso   1.00
C57    C     0.38801   0.74763   0.32141   0.00000  Uiso   1.00
C58    C     0.34017   0.71058   0.26544   0.00000  Uiso   1.00
C59    C     0.26346   0.66236   0.15806   0.00000  Uiso   1.00
C60    C     0.41467   0.69263   0.47187   0.00000  Uiso   1.00
C61    C     0.39802   0.76642   0.51799   0.00000  Uiso   1.00
C62    C     0.36189   0.78984   0.56475   0.00000  Uiso   1.00
C63    C     0.35202   0.85921   0.60209   0.00000  Uiso   1.00
C64    C     0.49391   0.67285   0.49017   0.00000  Uiso   1.00
C65    C     0.53840   0.61759   0.51352   0.00000  Uiso   1.00
C66    C     0.60926   0.60818   0.52743   0.00000  Uiso   1.00
C67    C     0.38412   0.69449   0.39593   0.00000  Uiso   1.00
C68    C     0.33631   0.65742   0.34004   0.00000  Uiso   1.00
C69    C     0.31475   0.66621   0.27460   0.00000  Uiso   1.00
H70    H     0.48116   0.80865   0.44792   0.00000  Uiso   1.00
H71    H     0.43323   0.91431   0.53904   0.00000  Uiso   1.00
H72    H     0.60972   0.74208   0.48781   0.00000  Uiso   1.00
H73    H     0.40766   0.78191   0.31436   0.00000  Uiso   1.00
H74    H     0.36893   0.01192   0.64411   0.00000  Uiso   1.00
H75    H     0.74105   0.64875   0.53606   0.00000  Uiso   1.00
H76    H     0.31498   0.73273   0.17031   0.00000  Uiso   1.00
H77    H     0.39491   0.65815   0.47899   0.00000  Uiso   1.00
H78    H     0.34225   0.75556   0.57182   0.00000  Uiso   1.00
H79    H     0.51874   0.58333   0.52059   0.00000  Uiso   1.00
H80    H     0.31668   0.62315   0.34713   0.00000  Uiso   1.00
H81    H     0.29509   0.88307   0.67072   0.00000  Uiso   1.00
H82    H     0.66722   0.51990   0.56267   0.00000  Uiso   1.00
H83    H     0.24114   0.60388   0.19691   0.00000  Uiso   1.00
O84    O     0.29895   0.01428   0.71794   0.00000  Uiso   1.00
O85    O     0.78716   0.53782   0.57617   0.00000  Uiso   1.00
O86    O     0.22815   0.64800   0.09631   0.00000  Uiso   1.00
N87    N     0.35877   0.96823   0.63762   0.00000  Uiso   1.00
N88    N     0.70668   0.62870   0.53662   0.00000  Uiso   1.00
N89    N     0.30835   0.70720   0.19466   0.00000  Uiso   1.00
N90    N     0.31904   0.89890   0.65194   0.00000  Uiso   1.00
N91    N     0.66695   0.55936   0.55093   0.00000  Uiso   1.00
N92    N     0.26862   0.63786   0.20898   0.00000  Uiso   1.00
C93    C     0.25759   0.66546   0.93490   0.00000  Uiso   1.00
C94    C     0.26927   0.60186   0.87342   0.00000  Uiso   1.00
C95    C     0.30232   0.53619   0.87766   0.00000  Uiso   1.00
C96    C     0.30781   0.48493   0.81542   0.00000  Uiso   1.00
C97    C     0.33003   0.38406   0.72972   0.00000  Uiso   1.00
C98    C     0.29093   0.71679   0.93745   0.00000  Uiso   1.00
C99    C     0.34217   0.74776   0.99553   0.00000  Uiso   1.00
C100   C     0.36588   0.79326   0.98720   0.00000  Uiso   1.00
C101   C     0.42168   0.87086   0.00093   0.00000  Uiso   1.00
C102   C     0.17899   0.69538   0.91291   0.00000  Uiso   1.00
C103   C     0.13613   0.70836   0.95037   0.00000  Uiso   1.00
C104   C     0.06560   0.73586   0.92138   0.00000  Uiso   1.00
C105   C     0.94761   0.78021   0.89700   0.00000  Uiso   1.00
C106   C     0.20857   0.69122   0.81683   0.00000  Uiso   1.00
C107   C     0.24265   0.61586   0.80929   0.00000  Uiso   1.00
C108   C     0.24808   0.56469   0.74703   0.00000  Uiso   1.00
C109   C     0.28113   0.49895   0.75117   0.00000  Uiso   1.00
C110   C     0.26430   0.73078   0.87333   0.00000  Uiso   1.00
C111   C     0.28794   0.77626   0.86490   0.00000  Uiso   1.00
C112   C     0.33921   0.80728   0.92295   0.00000  Uiso   1.00
C113   C     0.15237   0.70937   0.84878   0.00000  Uiso   1.00
C114   C     0.08189   0.73686   0.81973   0.00000  Uiso   1.00
C115   C     0.03893   0.74987   0.85713   0.00000  Uiso   1.00
H116   H     0.27833   0.65457   0.98483   0.00000  Uiso   1.00
H117   H     0.32293   0.52538   0.92730   0.00000  Uiso   1.00
H118   H     0.36276   0.73692   0.04516   0.00000  Uiso   1.00
H119   H     0.15675   0.69753  -0.00001   0.00000  Uiso   1.00
H120   H     0.36065   0.38833   0.83525   0.00000  Uiso   1.00
H121   H     0.44464   0.83439   0.08376   0.00000  Uiso   1.00
H122   H     0.01022   0.75132   0.98852   0.00000  Uiso   1.00
H123   H     0.18784   0.70212   0.76690   0.00000  Uiso   1.00
H124   H     0.22747   0.57553   0.69741   0.00000  Uiso   1.00
H125   H     0.26731   0.78708   0.81527   0.00000  Uiso   1.00
H126   H     0.06130   0.74768   0.77010   0.00000  Uiso   1.00
H127   H     0.28318   0.42903   0.64865   0.00000  Uiso   1.00
H128   H     0.36717   0.87510   0.89717   0.00000  Uiso   1.00
H129   H     0.93275   0.79203   0.80193   0.00000  Uiso   1.00
O130   O     0.34964   0.32456   0.70017   0.00000  Uiso   1.00
O131   O     0.45982   0.90978   0.02622   0.00000  Uiso   1.00
O132   O     0.88988   0.80080   0.90127   0.00000  Uiso   1.00
N133   N     0.33697   0.41528   0.80086   0.00000  Uiso   1.00
N134   N     0.41550   0.83231   0.03321   0.00000  Uiso   1.00
N135   N     0.00936   0.75467   0.94418   0.00000  Uiso   1.00
N136   N     0.29528   0.43718   0.70046   0.00000  Uiso   1.00
N137   N     0.37381   0.85422   0.93280   0.00000  Uiso   1.00
N138   N     0.96767   0.77657   0.84378   0.00000  Uiso   1.00
C139   C     0.89441   0.23717   0.52422   0.00000  Uiso   1.00
C140   C     0.89391   0.24657   0.45952   0.00000  Uiso   1.00
C141   C     0.91012   0.30159   0.45911   0.00000  Uiso   1.00
C142   C     0.90660   0.30066   0.39452   0.00000  Uiso   1.00
C143   C     0.90876   0.32344   0.30349   0.00000  Uiso   1.00
C144   C     0.94382   0.16839   0.52916   0.00000  Uiso   1.00
C145   C     0.00200   0.15769   0.58730   0.00000  Uiso   1.00
C146   C     0.04048   0.09095   0.58134   0.00000  Uiso   1.00
C147   C     0.12011   0.99237   0.59843   0.00000  Uiso   1.00
C148   C     0.82145   0.22837   0.50588   0.00000  Uiso   1.00
C149   C     0.77673   0.26808   0.54446   0.00000  Uiso   1.00
C150   C     0.71220   0.25182   0.51890   0.00000  Uiso   1.00
C151   C     0.60182   0.24636   0.49986   0.00000  Uiso   1.00
C152   C     0.85932   0.13766   0.41026   0.00000  Uiso   1.00
C153   C     0.87485   0.19251   0.39762   0.00000  Uiso   1.00
C154   C     0.87130   0.19149   0.33302   0.00000  Uiso   1.00
C155   C     0.88750   0.24651   0.33251   0.00000  Uiso   1.00
C156   C     0.92477   0.11434   0.46726   0.00000  Uiso   1.00
C157   C     0.96318   0.04760   0.46122   0.00000  Uiso   1.00
C158   C     0.02140   0.03680   0.51933   0.00000  Uiso   1.00
C159   C     0.80239   0.17432   0.44398   0.00000  Uiso   1.00
C160   C     0.73792   0.15799   0.41837   0.00000  Uiso   1.00
C161   C     0.69311   0.19767   0.45689   0.00000  Uiso   1.00
H162   H     0.90925   0.27925   0.57241   0.00000  Uiso   1.00
H163   H     0.92487   0.34341   0.50702   0.00000  Uiso   1.00
H164   H     0.01673   0.19953   0.63519   0.00000  Uiso   1.00
H165   H     0.79150   0.30991   0.59235   0.00000  Uiso   1.00
H166   H     0.93381   0.39069   0.40723   0.00000  Uiso   1.00
H167   H     0.12748   0.08732   0.67750   0.00000  Uiso   1.00
H168   H     0.65255   0.32006   0.58717   0.00000  Uiso   1.00
H169   H     0.84449   0.09558   0.36207   0.00000  Uiso   1.00
H170   H     0.85655   0.14966   0.28513   0.00000  Uiso   1.00
H171   H     0.94841   0.00578   0.41331   0.00000  Uiso   1.00
H172   H     0.72319   0.11616   0.37047   0.00000  Uiso   1.00
H173   H     0.87837   0.23343   0.22714   0.00000  Uiso   1.00
H174   H     0.07204   0.93006   0.49741   0.00000  Uiso   1.00
H175   H     0.59710   0.16280   0.40708   0.00000  Uiso   1.00
O176   O     0.91522   0.35094   0.27038   0.00000  Uiso   1.00
O177   O     0.16930   0.95292   0.62497   0.00000  Uiso   1.00
O178   O     0.54620   0.25828   0.50644   0.00000  Uiso   1.00
N179   N     0.91910   0.34626   0.37540   0.00000  Uiso   1.00
N180   N     0.10017   0.06263   0.62808   0.00000  Uiso   1.00
N181   N     0.65615   0.28021   0.54364   0.00000  Uiso   1.00
N182   N     0.88926   0.26164   0.27850   0.00000  Uiso   1.00
N183   N     0.07034   0.97801   0.53118   0.00000  Uiso   1.00
N184   N     0.62632   0.19559   0.44673   0.00000  Uiso   1.00
C185   C     0.90707   0.99968   0.66314   0.00000  Uiso   1.00
C186   C     0.87403   0.94101   0.64392   0.00000  Uiso   1.00
C187   C     0.84270   0.90146   0.57581   0.00000  Uiso   1.00
C188   C     0.81557   0.85022   0.56937   0.00000  Uiso   1.00
C189   C     0.76369   0.76080   0.53047   0.00000  Uiso   1.00
C190   C     0.98223   0.98186   0.71119   0.00000  Uiso   1.00
C191   C     0.04185   0.97668   0.69964   0.00000  Uiso   1.00
C192   C     0.10580   0.95984   0.74983   0.00000  Uiso   1.00
C193   C     0.22188   0.93390   0.81539   0.00000  Uiso   1.00
C194   C     0.87012   0.06200   0.70947   0.00000  Uiso   1.00
C195   C     0.83549   0.12420   0.69648   0.00000  Uiso   1.00
C196   C     0.80506   0.17484   0.74524   0.00000  Uiso   1.00
C197   C     0.74708   0.27332   0.80813   0.00000  Uiso   1.00
C198   C     0.91461   0.97901   0.77281   0.00000  Uiso   1.00
C199   C     0.87814   0.92978   0.70349   0.00000  Uiso   1.00
C200   C     0.85104   0.87859   0.69715   0.00000  Uiso   1.00
C201   C     0.81967   0.83897   0.62905   0.00000  Uiso   1.00
C202   C     0.98633   0.97064   0.77076   0.00000  Uiso   1.00
C203   C     0.05020   0.95381   0.82098   0.00000  Uiso   1.00
C204   C     0.10991   0.94859   0.80951   0.00000  Uiso   1.00
C205   C     0.87421   0.05077   0.76904   0.00000  Uiso   1.00
C206   C     0.84384   0.10133   0.81783   0.00000  Uiso   1.00
C207   C     0.80917   0.16359   0.80492   0.00000  Uiso   1.00
H208   H     0.90388   0.00842   0.61676   0.00000  Uiso   1.00
H209   H     0.83954   0.91016   0.52972   0.00000  Uiso   1.00
H210   H     0.03866   0.98537   0.65354   0.00000  Uiso   1.00
H211   H     0.83233   0.13287   0.65038   0.00000  Uiso   1.00
H212   H     0.77004   0.79625   0.45950   0.00000  Uiso   1.00
H213   H     0.18990   0.95487   0.72058   0.00000  Uiso   1.00
H214   H     0.75481   0.26590   0.71392   0.00000  Uiso   1.00
H215   H     0.91780   0.97027   0.81919   0.00000  Uiso   1.00
H216   H     0.85422   0.86991   0.74326   0.00000  Uiso   1.00
H217   H     0.05335   0.94513   0.86708   0.00000  Uiso   1.00
H218   H     0.84702   0.09262   0.86392   0.00000  Uiso   1.00
H219   H     0.78196   0.76359   0.63281   0.00000  Uiso   1.00
H220   H     0.20182   0.92221   0.89390   0.00000  Uiso   1.00
H221   H     0.76673   0.23323   0.88724   0.00000  Uiso   1.00
O222   O     0.73395   0.71458   0.49255   0.00000  Uiso   1.00
O223   O     0.28478   0.92269   0.83509   0.00000  Uiso   1.00
O224   O     0.71396   0.33074   0.82635   0.00000  Uiso   1.00
N225   N     0.78156   0.80235   0.51071   0.00000  Uiso   1.00
N226   N     0.17410   0.95063   0.75480   0.00000  Uiso   1.00
N227   N     0.76735   0.24142   0.74858   0.00000  Uiso   1.00
N228   N     0.78797   0.78477   0.60397   0.00000  Uiso   1.00
N229   N     0.18052   0.93306   0.84806   0.00000  Uiso   1.00
N230   N     0.77376   0.22385   0.84184   0.00000  Uiso   1.00
C231   C     0.69794   0.49651   0.82775   0.00000  Uiso   1.00
C232   C     0.71393   0.55518   0.89660   0.00000  Uiso   1.00
C233   C     0.72471   0.55444   0.96297   0.00000  Uiso   1.00
C234   C     0.73868   0.61322   0.01935   0.00000  Uiso   1.00
C235   C     0.76308   0.69557   0.12775   0.00000  Uiso   1.00
C236   C     0.75428   0.48114   0.79690   0.00000  Uiso   1.00
C237   C     0.79896   0.41813   0.77943   0.00000  Uiso   1.00
C238   C     0.84689   0.41458   0.75188   0.00000  Uiso   1.00
C239   C     0.93388   0.38196   0.70544   0.00000  Uiso   1.00
C240   C     0.62951   0.52565   0.77748   0.00000  Uiso   1.00
C241   C     0.56928   0.50007   0.74367   0.00000  Uiso   1.00
C242   C     0.51217   0.53398   0.69975   0.00000  Uiso   1.00
C243   C     0.40544   0.57048   0.62316   0.00000  Uiso   1.00
C244   C     0.70360   0.60221   0.80986   0.00000  Uiso   1.00
C245   C     0.71701   0.61260   0.88689   0.00000  Uiso   1.00
C246   C     0.73097   0.67139   0.94318   0.00000  Uiso   1.00
C247   C     0.74176   0.67074   0.00962   0.00000  Uiso   1.00
C248   C     0.75735   0.53855   0.78719   0.00000  Uiso   1.00
C249   C     0.80522   0.53508   0.75965   0.00000  Uiso   1.00
C250   C     0.84997   0.47209   0.74214   0.00000  Uiso   1.00
C251   C     0.63258   0.58307   0.76777   0.00000  Uiso   1.00
C252   C     0.57555   0.61702   0.72389   0.00000  Uiso   1.00
C253   C     0.51525   0.59150   0.69001   0.00000  Uiso   1.00
H254   H     0.69555   0.45181   0.83531   0.00000  Uiso   1.00
H255   H     0.72233   0.51000   0.97046   0.00000  Uiso   1.00
H256   H     0.79656   0.37371   0.78695   0.00000  Uiso   1.00
H257   H     0.56692   0.45564   0.75120   0.00000  Uiso   1.00
H258   H     0.75340   0.59982   0.11603   0.00000  Uiso   1.00
H259   H     0.90991   0.31245   0.72906   0.00000  Uiso   1.00
H260   H     0.42567   0.48520   0.65366   0.00000  Uiso   1.00
H261   H     0.70600   0.64691   0.80230   0.00000  Uiso   1.00
H262   H     0.73335   0.71581   0.93565   0.00000  Uiso   1.00
H263   H     0.80759   0.57952   0.75214   0.00000  Uiso   1.00
H264   H     0.57795   0.66145   0.71638   0.00000  Uiso   1.00
H265   H     0.76235   0.76686   0.08778   0.00000  Uiso   1.00
H266   H     0.91886   0.47949   0.70080   0.00000  Uiso   1.00
H267   H     0.43462   0.65224   0.62541   0.00000  Uiso   1.00
O268   O     0.77570   0.72513   0.19022   0.00000  Uiso   1.00
O269   O     0.98102   0.34811   0.68252   0.00000  Uiso   1.00
O270   O     0.34572   0.57476   0.58360   0.00000  Uiso   1.00
N271   N     0.75174   0.62968   0.09108   0.00000  Uiso   1.00
N272   N     0.89807   0.36101   0.72929   0.00000  Uiso   1.00
N273   N     0.44536   0.52251   0.65879   0.00000  Uiso   1.00
N274   N     0.75655   0.71957   0.07587   0.00000  Uiso   1.00
N275   N     0.90289   0.45089   0.71409   0.00000  Uiso   1.00
N276   N     0.45017   0.61239   0.64358   0.00000  Uiso   1.00
C277   C     0.58918   0.84925   0.93453   0.00000  Uiso   1.00
C278   C     0.55588   0.79251   0.92030   0.00000  Uiso   1.00
C279   C     0.57388   0.75623   0.96607   0.00000  Uiso   1.00
C280   C     0.53721   0.70633   0.94327   0.00000  Uiso   1.00
C281   C     0.49351   0.62025   0.93126   0.00000  Uiso   1.00
C282   C     0.52938   0.91161   0.92635   0.00000  Uiso   1.00
C283   C     0.52511   0.97547   0.97720   0.00000  Uiso   1.00
C284   C     0.46615   0.02584   0.95949   0.00000  Uiso   1.00
C285   C     0.38133   0.12468   0.95684   0.00000  Uiso   1.00
C286   C     0.61571   0.82711   0.87342   0.00000  Uiso   1.00
C287   C     0.68402   0.81993   0.87978   0.00000  Uiso   1.00
C288   C     0.69772   0.79917   0.81750   0.00000  Uiso   1.00
C289   C     0.74694   0.76681   0.73268   0.00000  Uiso   1.00
C290   C     0.49205   0.82516   0.81264   0.00000  Uiso   1.00
C291   C     0.50312   0.77943   0.85409   0.00000  Uiso   1.00
C292   C     0.46642   0.72957   0.83122   0.00000  Uiso   1.00
C293   C     0.48437   0.69322   0.87695   0.00000  Uiso   1.00
C294   C     0.47663   0.89853   0.86014   0.00000  Uiso   1.00
C295   C     0.41766   0.94882   0.84235   0.00000  Uiso   1.00
C296   C     0.41330   0.01273   0.89316   0.00000  Uiso   1.00
C297   C     0.56295   0.81402   0.80722   0.00000  Uiso   1.00
C298   C     0.57656   0.79328   0.74492   0.00000  Uiso   1.00
C299   C     0.64487   0.78606   0.75118   0.00000  Uiso   1.00
H300   H     0.63025   0.85944   0.98608   0.00000  Uiso   1.00
H301   H     0.61470   0.76637   0.01731   0.00000  Uiso   1.00
H302   H     0.56595   0.98558   0.02843   0.00000  Uiso   1.00
H303   H     0.72482   0.83006   0.93102   0.00000  Uiso   1.00
H304   H     0.57419   0.65744   0.02275   0.00000  Uiso   1.00
H305   H     0.47140   0.11966   0.04619   0.00000  Uiso   1.00
H306   H     0.80642   0.79172   0.84078   0.00000  Uiso   1.00
H307   H     0.45098   0.81497   0.76110   0.00000  Uiso   1.00
H308   H     0.42560   0.71946   0.77998   0.00000  Uiso   1.00
H309   H     0.37685   0.93867   0.79111   0.00000  Uiso   1.00
H310   H     0.53572   0.78316   0.69369   0.00000  Uiso   1.00
H311   H     0.42070   0.61937   0.83012   0.00000  Uiso   1.00
H312   H     0.31792   0.08159   0.85357   0.00000  Uiso   1.00
H313   H     0.65294   0.75365   0.64816   0.00000  Uiso   1.00
O314   O     0.48397   0.57639   0.94293   0.00000  Uiso   1.00
O315   O     0.34912   0.18281   0.97368   0.00000  Uiso   1.00
O316   O     0.78866   0.75256   0.70419   0.00000  Uiso   1.00
N317   N     0.54156   0.66158   0.97481   0.00000  Uiso   1.00
N318   N     0.44545   0.09372   0.99674   0.00000  Uiso   1.00
N319   N     0.75867   0.78715   0.80470   0.00000  Uiso   1.00
N320   N     0.45897   0.64109   0.87117   0.00000  Uiso   1.00
N321   N     0.36286   0.07324   0.89309   0.00000  Uiso   1.00
N322   N     0.67608   0.76666   0.70105   0.00000  Uiso   1.00
C323   C     0.60513   0.06769   0.79412   0.00000  Uiso   1.00
C324   C     0.62371   0.07585   0.73944   0.00000  Uiso   1.00
C325   C     0.64605   0.02292   0.68612   0.00000  Uiso   1.00
C326   C     0.66042   0.04101   0.64146   0.00000  Uiso   1.00
C327   C     0.69042   0.04326   0.55525   0.00000  Uiso   1.00
C328   C     0.53048   0.10911   0.78727   0.00000  Uiso   1.00
C329   C     0.47444   0.08414   0.77417   0.00000  Uiso   1.00
C330   C     0.41033   0.13023   0.76978   0.00000  Uiso   1.00
C331   C     0.29560   0.18413   0.75789   0.00000  Uiso   1.00
C332   C     0.65145   0.10462   0.86627   0.00000  Uiso   1.00
C333   C     0.69711   0.07587   0.91960   0.00000  Uiso   1.00
C334   C     0.73485   0.11818   0.98173   0.00000  Uiso   1.00
C335   C     0.80794   0.16509   0.09248   0.00000  Uiso   1.00
C336   C     0.59093   0.19394   0.80962   0.00000  Uiso   1.00
C337   C     0.61600   0.14443   0.74786   0.00000  Uiso   1.00
C338   C     0.63034   0.16260   0.70327   0.00000  Uiso   1.00
C339   C     0.65270   0.10970   0.64989   0.00000  Uiso   1.00
C340   C     0.52277   0.17769   0.79569   0.00000  Uiso   1.00
C341   C     0.45873   0.22383   0.79133   0.00000  Uiso   1.00
C342   C     0.40261   0.19893   0.77822   0.00000  Uiso   1.00
C343   C     0.64374   0.17319   0.87469   0.00000  Uiso   1.00
C344   C     0.68141   0.21555   0.93675   0.00000  Uiso   1.00
C345   C     0.72712   0.18688   0.99016   0.00000  Uiso   1.00
H346   H     0.61113   0.01430   0.78756   0.00000  Uiso   1.00
H347   H     0.65201   0.96986   0.67961   0.00000  Uiso   1.00
H348   H     0.48043   0.03107   0.76766   0.00000  Uiso   1.00
H349   H     0.70307   0.02280   0.91306   0.00000  Uiso   1.00
H350   H     0.69390   0.95083   0.56363   0.00000  Uiso   1.00
H351   H     0.33212   0.07991   0.74931   0.00000  Uiso   1.00
H352   H     0.80160   0.06246   0.05592   0.00000  Uiso   1.00
H353   H     0.58492   0.24733   0.81618   0.00000  Uiso   1.00
H354   H     0.62437   0.21568   0.70980   0.00000  Uiso   1.00
H355   H     0.45278   0.27689   0.79785   0.00000  Uiso   1.00
H356   H     0.67543   0.26862   0.94325   0.00000  Uiso   1.00
H357   H     0.67147   0.15034   0.58813   0.00000  Uiso   1.00
H358   H     0.30968   0.27942   0.77381   0.00000  Uiso   1.00
H359   H     0.77917   0.26198   0.08042   0.00000  Uiso   1.00
O360   O     0.70908   0.02555   0.50537   0.00000  Uiso   1.00
O361   O     0.23444   0.19491   0.74899   0.00000  Uiso   1.00
O362   O     0.85039   0.17202   0.15125   0.00000  Uiso   1.00
N363   N     0.68322   0.00213   0.58401   0.00000  Uiso   1.00
N364   N     0.34498   0.12281   0.75759   0.00000  Uiso   1.00
N365   N     0.78389   0.10650   0.04425   0.00000  Uiso   1.00
N366   N     0.67115   0.10948   0.59719   0.00000  Uiso   1.00
N367   N     0.33290   0.23017   0.77078   0.00000  Uiso   1.00
N368   N     0.77182   0.21386   0.05744   0.00000  Uiso   1.00
C369   C     0.66827   0.23210   0.19928   0.00000  Uiso   1.00
C370   C     0.64988   0.27089   0.26681   0.00000  Uiso   1.00
C371   C     0.68869   0.31257   0.32855   0.00000  Uiso   1.00
C372   C     0.66303   0.34353   0.38445   0.00000  Uiso   1.00
C373   C     0.64393   0.40536   0.49015   0.00000  Uiso   1.00
C374   C     0.60525   0.25520   0.14037   0.00000  Uiso   1.00
C375   C     0.60654   0.28368   0.09581   0.00000  Uiso   1.00
C376   C     0.54331   0.30143   0.04528   0.00000  Uiso   1.00
C377   C     0.45493   0.33886   0.95466   0.00000  Uiso   1.00
C378   C     0.67115   0.15712   0.18347   0.00000  Uiso   1.00
C379   C     0.72783   0.10312   0.17513   0.00000  Uiso   1.00
C380   C     0.72008   0.03828   0.16087   0.00000  Uiso   1.00
C381   C     0.73401   0.92342   0.13717   0.00000  Uiso   1.00
C382   C     0.55369   0.21297   0.18878   0.00000  Uiso   1.00
C383   C     0.58765   0.26050   0.26110   0.00000  Uiso   1.00
C384   C     0.56193   0.29140   0.31693   0.00000  Uiso   1.00
C385   C     0.60069   0.33312   0.37874   0.00000  Uiso   1.00
C386   C     0.54302   0.24481   0.13467   0.00000  Uiso   1.00
C387   C     0.47978   0.26252   0.08419   0.00000  Uiso   1.00
C388   C     0.48097   0.29102   0.03957   0.00000  Uiso   1.00
C389   C     0.60892   0.14672   0.17777   0.00000  Uiso   1.00
C390   C     0.60107   0.08195   0.16352   0.00000  Uiso   1.00
C391   C     0.65773   0.02787   0.15515   0.00000  Uiso   1.00
H392   H     0.71671   0.24019   0.20372   0.00000  Uiso   1.00
H393   H     0.73684   0.32060   0.33294   0.00000  Uiso   1.00
H394   H     0.65471   0.29171   0.10023   0.00000  Uiso   1.00
H395   H     0.77598   0.11118   0.17954   0.00000  Uiso   1.00
H396   H     0.73170   0.40519   0.47367   0.00000  Uiso   1.00
H397   H     0.55852   0.34425   0.98299   0.00000  Uiso   1.00
H398   H     0.81425   0.96356   0.15023   0.00000  Uiso   1.00
H399   H     0.50524   0.20488   0.18434   0.00000  Uiso   1.00
H400   H     0.51377   0.28335   0.31250   0.00000  Uiso   1.00
H401   H     0.43163   0.25446   0.07979   0.00000  Uiso   1.00
H402   H     0.55291   0.07393   0.15911   0.00000  Uiso   1.00
H403   H     0.55064   0.37496   0.45709   0.00000  Uiso   1.00
H404   H     0.37746   0.31401   0.96640   0.00000  Uiso   1.00
H405   H     0.63319   0.93333   0.13364   0.00000  Uiso   1.00
O406   O     0.65058   0.44235   0.55003   0.00000  Uiso   1.00
O407   O     0.42338   0.36238   0.90626   0.00000  Uiso   1.00
O408   O     0.75889   0.86293   0.12568   0.00000  Uiso   1.00
N409   N     0.68792   0.38729   0.45219   0.00000  Uiso   1.00
N410   N     0.52601   0.33033   0.99343   0.00000  Uiso   1.00
N411   N     0.76509   0.97441   0.14977   0.00000  Uiso   1.00
N412   N     0.59050   0.37102   0.44326   0.00000  Uiso   1.00
N413   N     0.42858   0.31406   0.98451   0.00000  Uiso   1.00
N414   N     0.66766   0.95814   0.14084   0.00000  Uiso   1.00
C415   C     0.08519   0.54575   0.55732   0.00000  Uiso   1.00
C416   C     0.06656   0.54726   0.61690   0.00000  Uiso   1.00
C417   C     0.09296   0.49649   0.64881   0.00000  Uiso   1.00
C418   C     0.06939   0.50751   0.70237   0.00000  Uiso   1.00
C419   C     0.04778   0.50076   0.79169   0.00000  Uiso   1.00
C420   C     0.01612   0.55484   0.49720   0.00000  Uiso   1.00
C421   C     0.00012   0.51045   0.42847   0.00000  Uiso   1.00
C422   C     0.93409   0.52786   0.38127   0.00000  Uiso   1.00
C423   C     0.83420   0.53290   0.28474   0.00000  Uiso   1.00
C424   C     0.11201   0.61043   0.58415   0.00000  Uiso   1.00
C425   C     0.17662   0.61279   0.58850   0.00000  Uiso   1.00
C426   C     0.19131   0.67700   0.61449   0.00000  Uiso   1.00
C427   C     0.24028   0.76836   0.65296   0.00000  Uiso   1.00
C428   C     0.99637   0.65561   0.59570   0.00000  Uiso   1.00
C429   C     0.01832   0.60693   0.63774   0.00000  Uiso   1.00
C430   C     0.99470   0.61803   0.69127   0.00000  Uiso   1.00
C431   C     0.02106   0.56728   0.72326   0.00000  Uiso   1.00
C432   C     0.96788   0.61451   0.51805   0.00000  Uiso   1.00
C433   C     0.90186   0.63199   0.47093   0.00000  Uiso   1.00
C434   C     0.88576   0.58763   0.40215   0.00000  Uiso   1.00
C435   C     0.06377   0.67010   0.60499   0.00000  Uiso   1.00
C436   C     0.07836   0.73433   0.63097   0.00000  Uiso   1.00
C437   C     0.14298   0.73678   0.63537   0.00000  Uiso   1.00
H438   H     0.12274   0.49930   0.54109   0.00000  Uiso   1.00
H439   H     0.13029   0.45032   0.63266   0.00000  Uiso   1.00
H440   H     0.03747   0.46428   0.41236   0.00000  Uiso   1.00
H441   H     0.21393   0.56660   0.57237   0.00000  Uiso   1.00
H442   H     0.11736   0.42231   0.74336   0.00000  Uiso   1.00
H443   H     0.92165   0.45177   0.27883   0.00000  Uiso   1.00
H444   H     0.29377   0.66753   0.61624   0.00000  Uiso   1.00
H445   H     0.95881   0.70206   0.61192   0.00000  Uiso   1.00
H446   H     0.95737   0.66421   0.70739   0.00000  Uiso   1.00
H447   H     0.86455   0.67817   0.48708   0.00000  Uiso   1.00
H448   H     0.04101   0.78049   0.64709   0.00000  Uiso   1.00
H449   H     0.97701   0.59592   0.80401   0.00000  Uiso   1.00
H450   H     0.78130   0.62537   0.33948   0.00000  Uiso   1.00
H451   H     0.15342   0.84113   0.67689   0.00000  Uiso   1.00
O452   O     0.04918   0.48055   0.83520   0.00000  Uiso   1.00
O453   O     0.79242   0.51919   0.22574   0.00000  Uiso   1.00
O454   O     0.28063   0.80227   0.66843   0.00000  Uiso   1.00
N455   N     0.08454   0.46837   0.74455   0.00000  Uiso   1.00
N456   N     0.90156   0.49590   0.31024   0.00000  Uiso   1.00
N457   N     0.24945   0.69763   0.62567   0.00000  Uiso   1.00
N458   N     0.00902   0.56179   0.77718   0.00000  Uiso   1.00
N459   N     0.82604   0.58932   0.34287   0.00000  Uiso   1.00
N460   N     0.17393   0.79104   0.65831   0.00000  Uiso   1.00
C461   C     0.14855   0.73905   0.44214   0.00000  Uiso   1.00
C462   C     0.15581   0.78710   0.41352   0.00000  Uiso   1.00
C463   C     0.18538   0.84383   0.45399   0.00000  Uiso   1.00
C464   C     0.18708   0.88123   0.41781   0.00000  Uiso   1.00
C465   C     0.20241   0.95870   0.38463   0.00000  Uiso   1.00
C466   C     0.07090   0.73890   0.41248   0.00000  Uiso   1.00
C467   C     0.02908   0.75510   0.45209   0.00000  Uiso   1.00
C468   C     0.95930   0.75191   0.41503   0.00000  Uiso   1.00
C469   C     0.84281   0.75450   0.38025   0.00000  Uiso   1.00
C470   C     0.18498   0.66754   0.40704   0.00000  Uiso   1.00
C471   C     0.23907   0.62372   0.44206   0.00000  Uiso   1.00
C472   C     0.26532   0.56044   0.40040   0.00000  Uiso   1.00
C473   C     0.32597   0.45224   0.35716   0.00000  Uiso   1.00
C474   C     0.09898   0.70458   0.30589   0.00000  Uiso   1.00
C475   C     0.12888   0.76837   0.33952   0.00000  Uiso   1.00
C476   C     0.13054   0.80569   0.30326   0.00000  Uiso   1.00
C477   C     0.16011   0.86247   0.34367   0.00000  Uiso   1.00
C478   C     0.04397   0.72018   0.33849   0.00000  Uiso   1.00
C479   C     0.97424   0.71696   0.30135   0.00000  Uiso   1.00
C480   C     0.93232   0.73315   0.34089   0.00000  Uiso   1.00
C481   C     0.15805   0.64881   0.33303   0.00000  Uiso   1.00
C482   C     0.18423   0.58559   0.29132   0.00000  Uiso   1.00
C483   C     0.23835   0.54168   0.32627   0.00000  Uiso   1.00
H484   H     0.16951   0.75363   0.49975   0.00000  Uiso   1.00
H485   H     0.20621   0.85831   0.51126   0.00000  Uiso   1.00
H486   H     0.04993   0.76958   0.50936   0.00000  Uiso   1.00
H487   H     0.25989   0.63823   0.49932   0.00000  Uiso   1.00
H488   H     0.23499   0.96612   0.49140   0.00000  Uiso   1.00
H489   H     0.90549   0.77901   0.48738   0.00000  Uiso   1.00
H490   H     0.34822   0.50203   0.46622   0.00000  Uiso   1.00
H491   H     0.07802   0.69000   0.24827   0.00000  Uiso   1.00
H492   H     0.10970   0.79119   0.24599   0.00000  Uiso   1.00
H493   H     0.95342   0.70246   0.24409   0.00000  Uiso   1.00
H494   H     0.16338   0.57111   0.23405   0.00000  Uiso   1.00
H495   H     0.15666   0.91165   0.27609   0.00000  Uiso   1.00
H496   H     0.82715   0.72453   0.27207   0.00000  Uiso   1.00
H497   H     0.26989   0.44756   0.25092   0.00000  Uiso   1.00
O498   O     0.21829   0.00661   0.38678   0.00000  Uiso   1.00
O499   O     0.78600   0.76111   0.38151   0.00000  Uiso   1.00
O500   O     0.36686   0.39773   0.35375   0.00000  Uiso   1.00
N501   N     0.21222   0.93941   0.44104   0.00000  Uiso   1.00
N502   N     0.90415   0.76448   0.43728   0.00000  Uiso   1.00
N503   N     0.31806   0.50552   0.41750   0.00000  Uiso   1.00
N504   N     0.17007   0.91009   0.32518   0.00000  Uiso   1.00
N505   N     0.86200   0.73517   0.32143   0.00000  Uiso   1.00
N506   N     0.27591   0.47621   0.30165   0.00000  Uiso   1.00
C507   C     0.16194   0.29926   0.17482   0.00000  Uiso   1.00
C508   C     0.15000   0.22661   0.13797   0.00000  Uiso   1.00
C509   C     0.19168   0.17129   0.10318   0.00000  Uiso   1.00
C510   C     0.17193   0.10904   0.07286   0.00000  Uiso   1.00
C511   C     0.16239   0.99723   0.01495   0.00000  Uiso   1.00
C512   C     0.09482   0.34515   0.14105   0.00000  Uiso   1.00
C513   C     0.09010   0.38951   0.10885   0.00000  Uiso   1.00
C514   C     0.02389   0.42706   0.08113   0.00000  Uiso   1.00
C515   C     0.92869   0.49933   0.02805   0.00000  Uiso   1.00
C516   C     0.16617   0.31769   0.25094   0.00000  Uiso   1.00
C517   C     0.22144   0.33898   0.31114   0.00000  Uiso   1.00
C518   C     0.21529   0.35343   0.37595   0.00000  Uiso   1.00
C519   C     0.23087   0.38306   0.49348   0.00000  Uiso   1.00
C520   C     0.05275   0.28708   0.18286   0.00000  Uiso   1.00
C521   C     0.09069   0.21999   0.14234   0.00000  Uiso   1.00
C522   C     0.07087   0.15781   0.11207   0.00000  Uiso   1.00
C523   C     0.11251   0.10241   0.07724   0.00000  Uiso   1.00
C524   C     0.03551   0.33854   0.14542   0.00000  Uiso   1.00
C525   C     0.96929   0.37603   0.11775   0.00000  Uiso   1.00
C526   C     0.96447   0.42043   0.08551   0.00000  Uiso   1.00
C527   C     0.10686   0.31107   0.25531   0.00000  Uiso   1.00
C528   C     0.10062   0.32550   0.32004   0.00000  Uiso   1.00
C529   C     0.15587   0.34680   0.38032   0.00000  Uiso   1.00
H530   H     0.20811   0.30442   0.17142   0.00000  Uiso   1.00
H531   H     0.23757   0.17643   0.09980   0.00000  Uiso   1.00
H532   H     0.13601   0.39462   0.10549   0.00000  Uiso   1.00
H533   H     0.26732   0.34409   0.30774   0.00000  Uiso   1.00
H534   H     0.24406   0.03162   0.02231   0.00000  Uiso   1.00
H535   H     0.02992   0.49170   0.03431   0.00000  Uiso   1.00
H536   H     0.30682   0.38516   0.46081   0.00000  Uiso   1.00
H537   H     0.00657   0.28193   0.18626   0.00000  Uiso   1.00
H538   H     0.02497   0.15271   0.11546   0.00000  Uiso   1.00
H539   H     0.92340   0.37090   0.12114   0.00000  Uiso   1.00
H540   H     0.05472   0.32037   0.32340   0.00000  Uiso   1.00
H541   H     0.07150   0.01237   0.03501   0.00000  Uiso   1.00
H542   H     0.85736   0.47246   0.04702   0.00000  Uiso   1.00
H543   H     0.13426   0.36591   0.47351   0.00000  Uiso   1.00
O544   O     0.17351   0.93739   0.98179   0.00000  Uiso   1.00
O545   O     0.89256   0.54102   0.99755   0.00000  Uiso   1.00
O546   O     0.25585   0.40123   0.55711   0.00000  Uiso   1.00
N547   N     0.20094   0.04482   0.03502   0.00000  Uiso   1.00
N548   N     0.00072   0.47496   0.04624   0.00000  Uiso   1.00
N549   N     0.25959   0.37537   0.44498   0.00000  Uiso   1.00
N550   N     0.10808   0.03446   0.04186   0.00000  Uiso   1.00
N551   N     0.90787   0.46460   0.05307   0.00000  Uiso   1.00
N552   N     0.16674   0.36501   0.45182   0.00000  Uiso   1.00
