data_job_06872
_audit_creation_date              2018-12-19
_audit_creation_method            'Materials Studio'
_symmetry_space_group_name_H-M    'P1'
_symmetry_Int_Tables_number       1
_symmetry_cell_setting            triclinic
loop_
_symmetry_equiv_pos_as_xyz
  x,y,z
_cell_length_a                    21.3230
_cell_length_b                    21.4704
_cell_length_c                    23.3067
_cell_angle_alpha                 77.2853
_cell_angle_beta                  70.2975
_cell_angle_gamma                 61.9553
loop_
_atom_site_label
_atom_site_type_symbol
_atom_site_fract_x
_atom_site_fract_y
_atom_site_fract_z
_atom_site_U_iso_or_equiv
_atom_site_adp_type
_atom_site_occupancy
C1     C     0.54660   0.12366   0.51408   0.00000  Uiso   1.00
C2     C     0.47371   0.18647   0.50934   0.00000  Uiso   1.00
C3     C     0.46242   0.25655   0.49507   0.00000  Uiso   1.00
C4     C     0.39169   0.30619   0.49301   0.00000  Uiso   1.00
C5     C     0.28723   0.40673   0.48388   0.00000  Uiso   1.00
C6     C     0.53098   0.08769   0.57797   0.00000  Uiso   1.00
C7     C     0.56784   0.07472   0.62139   0.00000  Uiso   1.00
C8     C     0.54531   0.04121   0.67710   0.00000  Uiso   1.00
C9     C     0.52979   0.98835   0.77450   0.00000  Uiso   1.00
C10    C     0.56278   0.07182   0.46984   0.00000  Uiso   1.00
C11    C     0.62638   0.04549   0.42236   0.00000  Uiso   1.00
C12    C     0.63064   0.99860   0.38704   0.00000  Uiso   1.00
C13    C     0.66450   0.92111   0.31656   0.00000  Uiso   1.00
C14    C     0.44107   0.08718   0.53581   0.00000  Uiso   1.00
C15    C     0.41639   0.16665   0.52114   0.00000  Uiso   1.00
C16    C     0.34566   0.21620   0.51910   0.00000  Uiso   1.00
C17    C     0.33426   0.28634   0.50483   0.00000  Uiso   1.00
C18    C     0.47366   0.06788   0.58977   0.00000  Uiso   1.00
C19    C     0.45108   0.03437   0.64542   0.00000  Uiso   1.00
C20    C     0.48789   0.02136   0.68892   0.00000  Uiso   1.00
C21    C     0.50546   0.05201   0.48164   0.00000  Uiso   1.00
C22    C     0.50962   0.00514   0.44639   0.00000  Uiso   1.00
C23    C     0.57322   0.97875   0.39887   0.00000  Uiso   1.00
H24    H     0.59122   0.13908   0.50490   0.00000  Uiso   1.00
H25    H     0.50679   0.27187   0.48594   0.00000  Uiso   1.00
H26    H     0.61219   0.09006   0.61224   0.00000  Uiso   1.00
H27    H     0.67073   0.06084   0.41324   0.00000  Uiso   1.00
H28    H     0.38790   0.41035   0.47015   0.00000  Uiso   1.00
H29    H     0.61017   0.02697   0.73646   0.00000  Uiso   1.00
H30    H     0.73360   0.96535   0.31682   0.00000  Uiso   1.00
H31    H     0.39644   0.07175   0.54499   0.00000  Uiso   1.00
H32    H     0.30131   0.20085   0.52823   0.00000  Uiso   1.00
H33    H     0.40672   0.01904   0.65454   0.00000  Uiso   1.00
H34    H     0.46526   0.98982   0.45554   0.00000  Uiso   1.00
H35    H     0.22112   0.35270   0.50448   0.00000  Uiso   1.00
H36    H     0.44340   0.96933   0.77079   0.00000  Uiso   1.00
H37    H     0.56683   0.90771   0.35115   0.00000  Uiso   1.00
O38    O     0.24544   0.46766   0.47559   0.00000  Uiso   1.00
O39    O     0.53707   0.96468   0.82496   0.00000  Uiso   1.00
O40    O     0.69900   0.88384   0.27441   0.00000  Uiso   1.00
N41    N     0.36170   0.37906   0.48052   0.00000  Uiso   1.00
N42    N     0.56951   0.02064   0.72950   0.00000  Uiso   1.00
N43    N     0.68492   0.96302   0.33719   0.00000  Uiso   1.00
N44    N     0.27197   0.34805   0.49899   0.00000  Uiso   1.00
N45    N     0.47977   0.98962   0.74797   0.00000  Uiso   1.00
N46    N     0.59518   0.93200   0.35566   0.00000  Uiso   1.00
C47    C     0.39838   0.78000   0.13349   0.00000  Uiso   1.00
C48    C     0.31503   0.82099   0.14372   0.00000  Uiso   1.00
C49    C     0.26328   0.83941   0.19978   0.00000  Uiso   1.00
C50    C     0.18968   0.87690   0.19950   0.00000  Uiso   1.00
C51    C     0.06347   0.93771   0.22366   0.00000  Uiso   1.00
C52    C     0.42172   0.71569   0.10010   0.00000  Uiso   1.00
C53    C     0.45967   0.64559   0.11948   0.00000  Uiso   1.00
C54    C     0.47588   0.59445   0.08247   0.00000  Uiso   1.00
C55    C     0.51534   0.49180   0.03890   0.00000  Uiso   1.00
C56    C     0.43187   0.82651   0.08800   0.00000  Uiso   1.00
C57    C     0.47838   0.84957   0.09719   0.00000  Uiso   1.00
C58    C     0.50316   0.89172   0.04999   0.00000  Uiso   1.00
C59    C     0.55838   0.96112   0.98762   0.00000  Uiso   1.00
C60    C     0.35970   0.81384   0.03331   0.00000  Uiso   1.00
C61    C     0.29403   0.83936   0.08931   0.00000  Uiso   1.00
C62    C     0.22049   0.87684   0.08894   0.00000  Uiso   1.00
C63    C     0.16863   0.89531   0.14499   0.00000  Uiso   1.00
C64    C     0.40071   0.73407   0.04569   0.00000  Uiso   1.00
C65    C     0.41688   0.68302   0.00864   0.00000  Uiso   1.00
C66    C     0.45484   0.61286   0.02796   0.00000  Uiso   1.00
C67    C     0.41086   0.84489   0.03359   0.00000  Uiso   1.00
C68    C     0.43558   0.88700   0.98636   0.00000  Uiso   1.00
C69    C     0.48211   0.91013   0.99548   0.00000  Uiso   1.00
H70    H     0.41473   0.76569   0.17585   0.00000  Uiso   1.00
H71    H     0.27956   0.82517   0.24188   0.00000  Uiso   1.00
H72    H     0.47593   0.63139   0.16159   0.00000  Uiso   1.00
H73    H     0.49462   0.83534   0.13930   0.00000  Uiso   1.00
H74    H     0.12043   0.89919   0.29108   0.00000  Uiso   1.00
H75    H     0.53450   0.49059   0.12178   0.00000  Uiso   1.00
H76    H     0.57393   0.92066   0.07479   0.00000  Uiso   1.00
H77    H     0.34334   0.82814   0.99095   0.00000  Uiso   1.00
H78    H     0.20425   0.89105   0.04683   0.00000  Uiso   1.00
H79    H     0.40061   0.69726   0.96654   0.00000  Uiso   1.00
H80    H     0.41931   0.90121   0.94426   0.00000  Uiso   1.00
H81    H     0.05930   0.95266   0.13277   0.00000  Uiso   1.00
H82    H     0.47337   0.54406   0.96347   0.00000  Uiso   1.00
H83    H     0.51280   0.97413   0.91648   0.00000  Uiso   1.00
O84    O     0.99965   0.96616   0.25202   0.00000  Uiso   1.00
O85    O     0.54291   0.43010   0.02990   0.00000  Uiso   1.00
O86    O     0.59463   0.99434   0.96825   0.00000  Uiso   1.00
N87    N     0.12513   0.90316   0.24615   0.00000  Uiso   1.00
N88    N     0.51225   0.52114   0.08787   0.00000  Uiso   1.00
N89    N     0.54913   0.92320   0.04393   0.00000  Uiso   1.00
N90    N     0.09224   0.93193   0.16097   0.00000  Uiso   1.00
N91    N     0.47936   0.54991   0.00268   0.00000  Uiso   1.00
N92    N     0.51624   0.95197   0.95875   0.00000  Uiso   1.00
C93    C     0.34422   0.65940   0.79000   0.00000  Uiso   1.00
C94    C     0.28558   0.69573   0.84639   0.00000  Uiso   1.00
C95    C     0.21577   0.69734   0.86911   0.00000  Uiso   1.00
C96    C     0.17024   0.73336   0.92121   0.00000  Uiso   1.00
C97    C     0.07561   0.78476   0.00445   0.00000  Uiso   1.00
C98    C     0.36424   0.71645   0.74792   0.00000  Uiso   1.00
C99    C     0.36057   0.73549   0.68783   0.00000  Uiso   1.00
C100   C     0.38127   0.78895   0.65703   0.00000  Uiso   1.00
C101   C     0.40880   0.87248   0.58737   0.00000  Uiso   1.00
C102   C     0.41251   0.60789   0.81141   0.00000  Uiso   1.00
C103   C     0.44943   0.53564   0.80470   0.00000  Uiso   1.00
C104   C     0.51079   0.49769   0.82734   0.00000  Uiso   1.00
C105   C     0.61326   0.41266   0.85627   0.00000  Uiso   1.00
C106   C     0.38753   0.72049   0.84213   0.00000  Uiso   1.00
C107   C     0.30911   0.72891   0.87471   0.00000  Uiso   1.00
C108   C     0.26368   0.76494   0.92679   0.00000  Uiso   1.00
C109   C     0.19381   0.76661   0.94958   0.00000  Uiso   1.00
C110   C     0.38777   0.74964   0.77623   0.00000  Uiso   1.00
C111   C     0.40848   0.80308   0.74552   0.00000  Uiso   1.00
C112   C     0.40484   0.82219   0.68540   0.00000  Uiso   1.00
C113   C     0.43603   0.64107   0.83973   0.00000  Uiso   1.00
C114   C     0.49735   0.60323   0.86238   0.00000  Uiso   1.00
C115   C     0.53435   0.53094   0.85571   0.00000  Uiso   1.00
H116   H     0.32590   0.63356   0.76795   0.00000  Uiso   1.00
H117   H     0.19758   0.67166   0.84718   0.00000  Uiso   1.00
H118   H     0.34237   0.70979   0.66593   0.00000  Uiso   1.00
H119   H     0.43121   0.50998   0.78278   0.00000  Uiso   1.00
H120   H     0.06567   0.72856   0.94749   0.00000  Uiso   1.00
H121   H     0.37098   0.80894   0.56531   0.00000  Uiso   1.00
H122   H     0.55834   0.38759   0.81171   0.00000  Uiso   1.00
H123   H     0.40585   0.74633   0.86418   0.00000  Uiso   1.00
H124   H     0.28190   0.79062   0.94870   0.00000  Uiso   1.00
H125   H     0.42669   0.82875   0.76744   0.00000  Uiso   1.00
H126   H     0.51554   0.62893   0.88430   0.00000  Uiso   1.00
H127   H     0.13411   0.82511   0.02989   0.00000  Uiso   1.00
H128   H     0.43943   0.90549   0.64770   0.00000  Uiso   1.00
H129   H     0.62678   0.48414   0.89411   0.00000  Uiso   1.00
O130   O     0.01690   0.80395   0.04254   0.00000  Uiso   1.00
O131   O     0.41748   0.90939   0.54113   0.00000  Uiso   1.00
O132   O     0.66328   0.35659   0.86440   0.00000  Uiso   1.00
N133   N     0.09879   0.74519   0.95529   0.00000  Uiso   1.00
N134   N     0.38423   0.82035   0.59798   0.00000  Uiso   1.00
N135   N     0.55940   0.42642   0.82833   0.00000  Uiso   1.00
N136   N     0.13562   0.79714   0.99963   0.00000  Uiso   1.00
N137   N     0.42106   0.87230   0.64232   0.00000  Uiso   1.00
N138   N     0.59623   0.47838   0.87267   0.00000  Uiso   1.00
C139   C     0.93826   0.97178   0.83387   0.00000  Uiso   1.00
C140   C     0.88145   0.03739   0.80813   0.00000  Uiso   1.00
C141   C     0.81619   0.08655   0.84230   0.00000  Uiso   1.00
C142   C     0.77164   0.14292   0.81017   0.00000  Uiso   1.00
C143   C     0.68038   0.24378   0.77994   0.00000  Uiso   1.00
C144   C     0.01134   0.97753   0.80676   0.00000  Uiso   1.00
C145   C     0.05531   0.97634   0.83976   0.00000  Uiso   1.00
C146   C     0.12011   0.98231   0.80647   0.00000  Uiso   1.00
C147   C     0.23054   0.99018   0.77410   0.00000  Uiso   1.00
C148   C     0.94731   0.90912   0.80599   0.00000  Uiso   1.00
C149   C     0.93746   0.85040   0.83835   0.00000  Uiso   1.00
C150   C     0.94837   0.79877   0.80441   0.00000  Uiso   1.00
C151   C     0.95939   0.70042   0.77086   0.00000  Uiso   1.00
C152   C     0.97519   0.98449   0.71606   0.00000  Uiso   1.00
C153   C     0.90151   0.04430   0.74415   0.00000  Uiso   1.00
C154   C     0.85704   0.10061   0.71196   0.00000  Uiso   1.00
C155   C     0.79173   0.14984   0.74607   0.00000  Uiso   1.00
C156   C     0.03140   0.98443   0.74277   0.00000  Uiso   1.00
C157   C     0.09616   0.99041   0.70942   0.00000  Uiso   1.00
C158   C     0.14020   0.98923   0.74237   0.00000  Uiso   1.00
C159   C     0.96737   0.91603   0.74200   0.00000  Uiso   1.00
C160   C     0.97831   0.86447   0.70801   0.00000  Uiso   1.00
C161   C     0.96847   0.80569   0.74031   0.00000  Uiso   1.00
H162   H     0.92266   0.96640   0.88369   0.00000  Uiso   1.00
H163   H     0.80069   0.08119   0.89182   0.00000  Uiso   1.00
H164   H     0.03977   0.97099   0.88928   0.00000  Uiso   1.00
H165   H     0.92194   0.84508   0.88787   0.00000  Uiso   1.00
H166   H     0.67433   0.21151   0.87261   0.00000  Uiso   1.00
H167   H     0.17846   0.97913   0.86726   0.00000  Uiso   1.00
H168   H     0.92999   0.71361   0.86428   0.00000  Uiso   1.00
H169   H     0.99081   0.98986   0.66625   0.00000  Uiso   1.00
H170   H     0.87258   0.10594   0.66244   0.00000  Uiso   1.00
H171   H     0.11166   0.99574   0.65991   0.00000  Uiso   1.00
H172   H     0.99383   0.86983   0.65849   0.00000  Uiso   1.00
H173   H     0.73268   0.23160   0.68644   0.00000  Uiso   1.00
H174   H     0.23681   0.99922   0.68109   0.00000  Uiso   1.00
H175   H     0.98833   0.73371   0.67811   0.00000  Uiso   1.00
O176   O     0.62451   0.29750   0.78094   0.00000  Uiso   1.00
O177   O     0.28591   0.99261   0.77393   0.00000  Uiso   1.00
O178   O     0.95992   0.64427   0.77002   0.00000  Uiso   1.00
N179   N     0.70428   0.20030   0.82932   0.00000  Uiso   1.00
N180   N     0.17560   0.98305   0.82432   0.00000  Uiso   1.00
N181   N     0.94332   0.73481   0.82153   0.00000  Uiso   1.00
N182   N     0.73567   0.21111   0.72914   0.00000  Uiso   1.00
N183   N     0.20700   0.99386   0.72414   0.00000  Uiso   1.00
N184   N     0.97472   0.74562   0.72136   0.00000  Uiso   1.00
C185   C     0.77337   0.66555   0.38038   0.00000  Uiso   1.00
C186   C     0.70300   0.65731   0.41662   0.00000  Uiso   1.00
C187   C     0.63217   0.71176   0.42930   0.00000  Uiso   1.00
C188   C     0.57511   0.69331   0.46313   0.00000  Uiso   1.00
C189   C     0.46381   0.69122   0.51626   0.00000  Uiso   1.00
C190   C     0.80945   0.61726   0.32811   0.00000  Uiso   1.00
C191   C     0.82814   0.63803   0.26637   0.00000  Uiso   1.00
C192   C     0.86070   0.58586   0.22570   0.00000  Uiso   1.00
C193   C     0.91472   0.52157   0.14142   0.00000  Uiso   1.00
C194   C     0.82452   0.63328   0.42214   0.00000  Uiso   1.00
C195   C     0.85590   0.66752   0.43945   0.00000  Uiso   1.00
C196   C     0.90117   0.62884   0.47793   0.00000  Uiso   1.00
C197   C     0.97858   0.58943   0.53965   0.00000  Uiso   1.00
C198   C     0.79799   0.53596   0.41792   0.00000  Uiso   1.00
C199   C     0.71637   0.58692   0.43700   0.00000  Uiso   1.00
C200   C     0.65941   0.56838   0.47083   0.00000  Uiso   1.00
C201   C     0.58851   0.62280   0.48355   0.00000  Uiso   1.00
C202   C     0.82283   0.54687   0.34849   0.00000  Uiso   1.00
C203   C     0.85538   0.49465   0.30790   0.00000  Uiso   1.00
C204   C     0.87410   0.51534   0.24612   0.00000  Uiso   1.00
C205   C     0.83789   0.56289   0.44253   0.00000  Uiso   1.00
C206   C     0.88313   0.52414   0.48098   0.00000  Uiso   1.00
C207   C     0.91456   0.55832   0.49836   0.00000  Uiso   1.00
H208   H     0.76296   0.72035   0.36451   0.00000  Uiso   1.00
H209   H     0.62184   0.76623   0.41351   0.00000  Uiso   1.00
H210   H     0.81779   0.69251   0.25061   0.00000  Uiso   1.00
H211   H     0.84554   0.72200   0.42366   0.00000  Uiso   1.00
H212   H     0.47129   0.78605   0.47680   0.00000  Uiso   1.00
H213   H     0.88447   0.63060   0.13333   0.00000  Uiso   1.00
H214   H     0.94299   0.69278   0.49825   0.00000  Uiso   1.00
H215   H     0.80840   0.48115   0.43379   0.00000  Uiso   1.00
H216   H     0.66978   0.51390   0.48660   0.00000  Uiso   1.00
H217   H     0.86572   0.44018   0.32370   0.00000  Uiso   1.00
H218   H     0.89347   0.46967   0.49675   0.00000  Uiso   1.00
H219   H     0.51019   0.58125   0.53612   0.00000  Uiso   1.00
H220   H     0.92337   0.42580   0.19265   0.00000  Uiso   1.00
H221   H     0.98189   0.48798   0.55757   0.00000  Uiso   1.00
O222   O     0.39872   0.70951   0.53993   0.00000  Uiso   1.00
O223   O     0.94081   0.50556   0.08931   0.00000  Uiso   1.00
O224   O     0.01758   0.58714   0.56807   0.00000  Uiso   1.00
N225   N     0.49947   0.73335   0.48353   0.00000  Uiso   1.00
N226   N     0.88576   0.58802   0.16240   0.00000  Uiso   1.00
N227   N     0.94048   0.64615   0.50355   0.00000  Uiso   1.00
N228   N     0.52040   0.62315   0.51545   0.00000  Uiso   1.00
N229   N     0.90669   0.47782   0.19432   0.00000  Uiso   1.00
N230   N     0.96141   0.53595   0.53547   0.00000  Uiso   1.00
C231   C     0.70455   0.29764   0.14970   0.00000  Uiso   1.00
C232   C     0.62947   0.35396   0.18039   0.00000  Uiso   1.00
C233   C     0.56252   0.36914   0.17128   0.00000  Uiso   1.00
C234   C     0.50002   0.42259   0.20367   0.00000  Uiso   1.00
C235   C     0.38276   0.50442   0.24526   0.00000  Uiso   1.00
C236   C     0.73647   0.24943   0.20135   0.00000  Uiso   1.00
C237   C     0.75950   0.17672   0.20986   0.00000  Uiso   1.00
C238   C     0.78708   0.14217   0.25990   0.00000  Uiso   1.00
C239   C     0.83600   0.06171   0.33400   0.00000  Uiso   1.00
C240   C     0.75325   0.33605   0.11788   0.00000  Uiso   1.00
C241   C     0.79039   0.33616   0.05621   0.00000  Uiso   1.00
C242   C     0.83212   0.37453   0.03597   0.00000  Uiso   1.00
C243   C     0.90708   0.42855   0.98047   0.00000  Uiso   1.00
C244   C     0.71262   0.36556   0.22342   0.00000  Uiso   1.00
C245   C     0.63386   0.39086   0.22044   0.00000  Uiso   1.00
C246   C     0.57145   0.44430   0.25285   0.00000  Uiso   1.00
C247   C     0.50441   0.45955   0.24379   0.00000  Uiso   1.00
C248   C     0.74086   0.28632   0.24140   0.00000  Uiso   1.00
C249   C     0.76843   0.25187   0.29143   0.00000  Uiso   1.00
C250   C     0.79148   0.17913   0.30001   0.00000  Uiso   1.00
C251   C     0.75763   0.37295   0.15792   0.00000  Uiso   1.00
C252   C     0.79931   0.41132   0.13778   0.00000  Uiso   1.00
C253   C     0.83651   0.41149   0.07609   0.00000  Uiso   1.00
H254   H     0.70114   0.26891   0.11852   0.00000  Uiso   1.00
H255   H     0.55914   0.34058   0.14029   0.00000  Uiso   1.00
H256   H     0.75610   0.14819   0.17886   0.00000  Uiso   1.00
H257   H     0.78698   0.30761   0.02523   0.00000  Uiso   1.00
H258   H     0.40364   0.43628   0.18210   0.00000  Uiso   1.00
H259   H     0.81896   0.03062   0.26342   0.00000  Uiso   1.00
H260   H     0.88409   0.36678   0.93946   0.00000  Uiso   1.00
H261   H     0.71604   0.39428   0.25460   0.00000  Uiso   1.00
H262   H     0.57486   0.47284   0.28383   0.00000  Uiso   1.00
H263   H     0.77181   0.28044   0.32241   0.00000  Uiso   1.00
H264   H     0.80270   0.43986   0.16878   0.00000  Uiso   1.00
H265   H     0.41640   0.54363   0.29861   0.00000  Uiso   1.00
H266   H     0.83172   0.13796   0.37992   0.00000  Uiso   1.00
H267   H     0.89684   0.47412   0.05597   0.00000  Uiso   1.00
O268   O     0.31687   0.53935   0.25714   0.00000  Uiso   1.00
O269   O     0.86177   0.00713   0.36382   0.00000  Uiso   1.00
O270   O     0.94721   0.44817   0.93880   0.00000  Uiso   1.00
N271   N     0.42602   0.45078   0.20550   0.00000  Uiso   1.00
N272   N     0.81431   0.07150   0.28153   0.00000  Uiso   1.00
N273   N     0.87521   0.38577   0.97866   0.00000  Uiso   1.00
N274   N     0.43288   0.50854   0.26819   0.00000  Uiso   1.00
N275   N     0.82117   0.12926   0.34422   0.00000  Uiso   1.00
N276   N     0.88207   0.44353   0.04135   0.00000  Uiso   1.00
C277   C     0.18470   0.82741   0.48393   0.00000  Uiso   1.00
C278   C     0.25165   0.84379   0.46243   0.00000  Uiso   1.00
C279   C     0.31207   0.81664   0.41274   0.00000  Uiso   1.00
C280   C     0.36766   0.83812   0.40056   0.00000  Uiso   1.00
C281   C     0.47233   0.85645   0.36164   0.00000  Uiso   1.00
C282   C     0.11756   0.89862   0.48449   0.00000  Uiso   1.00
C283   C     0.06524   0.91756   0.45335   0.00000  Uiso   1.00
C284   C     0.00794   0.98520   0.45975   0.00000  Uiso   1.00
C285   C     0.90440   0.08863   0.45511   0.00000  Uiso   1.00
C286   C     0.17889   0.79904   0.55060   0.00000  Uiso   1.00
C287   C     0.17812   0.73426   0.57506   0.00000  Uiso   1.00
C288   C     0.17245   0.71806   0.63712   0.00000  Uiso   1.00
C289   C     0.16414   0.66688   0.73513   0.00000  Uiso   1.00
C290   C     0.17597   0.91384   0.55066   0.00000  Uiso   1.00
C291   C     0.24691   0.89074   0.49867   0.00000  Uiso   1.00
C292   C     0.30242   0.91227   0.48656   0.00000  Uiso   1.00
C293   C     0.36291   0.88515   0.43687   0.00000  Uiso   1.00
C294   C     0.11282   0.94557   0.52073   0.00000  Uiso   1.00
C295   C     0.05558   0.01319   0.52718   0.00000  Uiso   1.00
C296   C     0.00319   0.03223   0.49606   0.00000  Uiso   1.00
C297   C     0.17416   0.84599   0.58684   0.00000  Uiso   1.00
C298   C     0.16847   0.82989   0.64888   0.00000  Uiso   1.00
C299   C     0.16770   0.76509   0.67343   0.00000  Uiso   1.00
H300   H     0.18838   0.79086   0.45571   0.00000  Uiso   1.00
H301   H     0.31572   0.78031   0.38470   0.00000  Uiso   1.00
H302   H     0.06892   0.88122   0.42531   0.00000  Uiso   1.00
H303   H     0.18179   0.69794   0.54700   0.00000  Uiso   1.00
H304   H     0.45479   0.78935   0.32193   0.00000  Uiso   1.00
H305   H     0.93438   0.00210   0.40759   0.00000  Uiso   1.00
H306   H     0.17240   0.61562   0.66418   0.00000  Uiso   1.00
H307   H     0.17228   0.95039   0.57888   0.00000  Uiso   1.00
H308   H     0.29873   0.94860   0.51462   0.00000  Uiso   1.00
H309   H     0.05193   0.04950   0.55523   0.00000  Uiso   1.00
H310   H     0.16481   0.86623   0.67691   0.00000  Uiso   1.00
H311   H     0.44100   0.92594   0.42738   0.00000  Uiso   1.00
H312   H     0.92059   0.13869   0.51304   0.00000  Uiso   1.00
H313   H     0.15861   0.75221   0.76963   0.00000  Uiso   1.00
O314   O     0.53136   0.85360   0.33015   0.00000  Uiso   1.00
O315   O     0.84860   0.13272   0.44254   0.00000  Uiso   1.00
O316   O     0.16087   0.62567   0.77918   0.00000  Uiso   1.00
N317   N     0.43420   0.82173   0.35558   0.00000  Uiso   1.00
N318   N     0.94765   0.02064   0.43565   0.00000  Uiso   1.00
N319   N     0.17016   0.65933   0.67555   0.00000  Uiso   1.00
N320   N     0.42678   0.89522   0.41232   0.00000  Uiso   1.00
N321   N     0.94024   0.09414   0.49239   0.00000  Uiso   1.00
N322   N     0.16274   0.73283   0.73229   0.00000  Uiso   1.00
C323   C     0.26453   0.29346   0.89825   0.00000  Uiso   1.00
C324   C     0.33952   0.25455   0.91187   0.00000  Uiso   1.00
C325   C     0.38819   0.28343   0.90430   0.00000  Uiso   1.00
C326   C     0.45403   0.23914   0.91935   0.00000  Uiso   1.00
C327   C     0.56795   0.18948   0.93720   0.00000  Uiso   1.00
C328   C     0.20840   0.28620   0.95741   0.00000  Uiso   1.00
C329   C     0.14682   0.34169   0.98811   0.00000  Uiso   1.00
C330   C     0.10227   0.32403   0.04148   0.00000  Uiso   1.00
C331   C     0.01260   0.32350   0.13000   0.00000  Uiso   1.00
C332   C     0.26645   0.25053   0.85303   0.00000  Uiso   1.00
C333   C     0.25367   0.27602   0.79597   0.00000  Uiso   1.00
C334   C     0.25797   0.22833   0.76147   0.00000  Uiso   1.00
C335   C     0.25844   0.17242   0.68793   0.00000  Uiso   1.00
C336   C     0.29489   0.16344   0.93844   0.00000  Uiso   1.00
C337   C     0.35601   0.18393   0.93370   0.00000  Uiso   1.00
C338   C     0.42179   0.13958   0.94876   0.00000  Uiso   1.00
C339   C     0.47055   0.16839   0.94121   0.00000  Uiso   1.00
C340   C     0.22489   0.21558   0.97923   0.00000  Uiso   1.00
C341   C     0.18042   0.19784   0.03257   0.00000  Uiso   1.00
C342   C     0.11879   0.25328   0.06334   0.00000  Uiso   1.00
C343   C     0.28295   0.17991   0.87485   0.00000  Uiso   1.00
C344   C     0.28727   0.13217   0.84043   0.00000  Uiso   1.00
C345   C     0.27449   0.15758   0.78334   0.00000  Uiso   1.00
H346   H     0.25168   0.34844   0.88126   0.00000  Uiso   1.00
H347   H     0.37541   0.33809   0.88741   0.00000  Uiso   1.00
H348   H     0.13407   0.39633   0.97120   0.00000  Uiso   1.00
H349   H     0.24090   0.33068   0.77910   0.00000  Uiso   1.00
H350   H     0.51984   0.29547   0.90388   0.00000  Uiso   1.00
H351   H     0.01096   0.41828   0.08054   0.00000  Uiso   1.00
H352   H     0.23623   0.27983   0.67545   0.00000  Uiso   1.00
H353   H     0.30773   0.10846   0.95544   0.00000  Uiso   1.00
H354   H     0.43454   0.08493   0.96565   0.00000  Uiso   1.00
H355   H     0.19320   0.14318   0.04944   0.00000  Uiso   1.00
H356   H     0.30003   0.07752   0.85734   0.00000  Uiso   1.00
H357   H     0.56783   0.09000   0.96738   0.00000  Uiso   1.00
H358   H     0.05894   0.21281   0.14404   0.00000  Uiso   1.00
H359   H     0.28422   0.07436   0.73895   0.00000  Uiso   1.00
O360   O     0.62623   0.18160   0.94103   0.00000  Uiso   1.00
O361   O     0.95859   0.34272   0.17280   0.00000  Uiso   1.00
O362   O     0.25415   0.16108   0.64133   0.00000  Uiso   1.00
N363   N     0.51374   0.25034   0.91741   0.00000  Uiso   1.00
N364   N     0.03797   0.36516   0.08258   0.00000  Uiso   1.00
N365   N     0.24856   0.23573   0.70386   0.00000  Uiso   1.00
N366   N     0.53957   0.13978   0.95158   0.00000  Uiso   1.00
N367   N     0.06379   0.25460   0.11675   0.00000  Uiso   1.00
N368   N     0.27439   0.12517   0.73804   0.00000  Uiso   1.00
C369   C     0.13885   0.64289   0.23677   0.00000  Uiso   1.00
C370   C     0.17254   0.61010   0.17551   0.00000  Uiso   1.00
C371   C     0.24002   0.60294   0.13498   0.00000  Uiso   1.00
C372   C     0.26105   0.57150   0.08135   0.00000  Uiso   1.00
C373   C     0.32021   0.52412   0.98816   0.00000  Uiso   1.00
C374   C     0.12410   0.58667   0.28456   0.00000  Uiso   1.00
C375   C     0.15085   0.55981   0.33572   0.00000  Uiso   1.00
C376   C     0.13110   0.50865   0.37390   0.00000  Uiso   1.00
C377   C     0.11502   0.42493   0.45003   0.00000  Uiso   1.00
C378   C     0.06326   0.70236   0.23437   0.00000  Uiso   1.00
C379   C     0.03884   0.77277   0.24335   0.00000  Uiso   1.00
C380   C     0.96786   0.81902   0.23929   0.00000  Uiso   1.00
C381   C     0.85731   0.91492   0.23750   0.00000  Uiso   1.00
C382   C     0.05619   0.59980   0.21362   0.00000  Uiso   1.00
C383   C     0.12764   0.58670   0.16294   0.00000  Uiso   1.00
C384   C     0.14858   0.55526   0.10936   0.00000  Uiso   1.00
C385   C     0.21608   0.54805   0.06875   0.00000  Uiso   1.00
C386   C     0.07921   0.56326   0.27199   0.00000  Uiso   1.00
C387   C     0.05941   0.51214   0.31010   0.00000  Uiso   1.00
C388   C     0.08613   0.48520   0.36130   0.00000  Uiso   1.00
C389   C     0.01837   0.67896   0.22180   0.00000  Uiso   1.00
C390   C     0.94740   0.72510   0.21773   0.00000  Uiso   1.00
C391   C     0.92289   0.79557   0.22669   0.00000  Uiso   1.00
H392   H     0.17380   0.66111   0.24657   0.00000  Uiso   1.00
H393   H     0.27475   0.62105   0.14473   0.00000  Uiso   1.00
H394   H     0.18559   0.57794   0.34544   0.00000  Uiso   1.00
H395   H     0.07360   0.79087   0.25308   0.00000  Uiso   1.00
H396   H     0.36689   0.56630   0.02629   0.00000  Uiso   1.00
H397   H     0.17887   0.47541   0.44952   0.00000  Uiso   1.00
H398   H     0.94272   0.92441   0.25476   0.00000  Uiso   1.00
H399   H     0.02124   0.58157   0.20383   0.00000  Uiso   1.00
H400   H     0.11382   0.53715   0.09964   0.00000  Uiso   1.00
H401   H     0.02466   0.49404   0.30036   0.00000  Uiso   1.00
H402   H     0.91268   0.70696   0.20799   0.00000  Uiso   1.00
H403   H     0.23628   0.49820   0.98969   0.00000  Uiso   1.00
H404   H     0.04825   0.40731   0.41292   0.00000  Uiso   1.00
H405   H     0.81211   0.85631   0.21816   0.00000  Uiso   1.00
O406   O     0.36525   0.50444   0.94023   0.00000  Uiso   1.00
O407   O     0.11856   0.38521   0.49550   0.00000  Uiso   1.00
O408   O     0.80874   0.97428   0.23998   0.00000  Uiso   1.00
N409   N     0.32344   0.55638   0.03197   0.00000  Uiso   1.00
N410   N     0.14766   0.47140   0.42766   0.00000  Uiso   1.00
N411   N     0.92687   0.89117   0.24559   0.00000  Uiso   1.00
N412   N     0.25316   0.51974   0.01227   0.00000  Uiso   1.00
N413   N     0.07738   0.43475   0.40796   0.00000  Uiso   1.00
N414   N     0.85659   0.85452   0.22590   0.00000  Uiso   1.00
C415   C     0.81027   0.89788   0.48381   0.00000  Uiso   1.00
C416   C     0.89118   0.84624   0.47704   0.00000  Uiso   1.00
C417   C     0.94578   0.82859   0.42224   0.00000  Uiso   1.00
C418   C     0.01641   0.78027   0.42575   0.00000  Uiso   1.00
C419   C     0.13969   0.70456   0.40667   0.00000  Uiso   1.00
C420   C     0.76581   0.85667   0.52068   0.00000  Uiso   1.00
C421   C     0.71499   0.84780   0.50258   0.00000  Uiso   1.00
C422   C     0.68007   0.80826   0.54283   0.00000  Uiso   1.00
C423   C     0.60867   0.74878   0.59153   0.00000  Uiso   1.00
C424   C     0.79325   0.95343   0.52475   0.00000  Uiso   1.00
C425   C     0.76548   0.02593   0.51007   0.00000  Uiso   1.00
C426   C     0.75365   0.06787   0.55376   0.00000  Uiso   1.00
C427   C     0.72485   0.15864   0.60877   0.00000  Uiso   1.00
C428   C     0.83861   0.84345   0.58749   0.00000  Uiso   1.00
C429   C     0.90657   0.81667   0.53336   0.00000  Uiso   1.00
C430   C     0.97714   0.76837   0.53695   0.00000  Uiso   1.00
C431   C     0.03183   0.75066   0.48216   0.00000  Uiso   1.00
C432   C     0.78120   0.82710   0.57700   0.00000  Uiso   1.00
C433   C     0.74634   0.78757   0.61729   0.00000  Uiso   1.00
C434   C     0.69549   0.77864   0.59925   0.00000  Uiso   1.00
C435   C     0.80864   0.92387   0.58107   0.00000  Uiso   1.00
C436   C     0.79684   0.96571   0.62478   0.00000  Uiso   1.00
C437   C     0.76907   0.03826   0.61018   0.00000  Uiso   1.00
H438   H     0.79828   0.92090   0.43996   0.00000  Uiso   1.00
H439   H     0.93384   0.85148   0.37867   0.00000  Uiso   1.00
H440   H     0.70308   0.87069   0.45900   0.00000  Uiso   1.00
H441   H     0.75357   0.04879   0.46649   0.00000  Uiso   1.00
H442   H     0.09092   0.76146   0.33554   0.00000  Uiso   1.00
H443   H     0.60433   0.80198   0.50493   0.00000  Uiso   1.00
H444   H     0.71079   0.17755   0.52073   0.00000  Uiso   1.00
H445   H     0.85059   0.82043   0.63133   0.00000  Uiso   1.00
H446   H     0.98903   0.74550   0.58054   0.00000  Uiso   1.00
H447   H     0.75827   0.76471   0.66087   0.00000  Uiso   1.00
H448   H     0.80876   0.94281   0.66836   0.00000  Uiso   1.00
H449   H     0.13571   0.67544   0.49938   0.00000  Uiso   1.00
H450   H     0.64912   0.71596   0.66878   0.00000  Uiso   1.00
H451   H     0.75559   0.09153   0.68458   0.00000  Uiso   1.00
O452   O     0.20343   0.67095   0.38059   0.00000  Uiso   1.00
O453   O     0.56504   0.72413   0.60283   0.00000  Uiso   1.00
O454   O     0.70472   0.21686   0.62356   0.00000  Uiso   1.00
N455   N     0.08247   0.75151   0.38107   0.00000  Uiso   1.00
N456   N     0.62754   0.78938   0.53944   0.00000  Uiso   1.00
N457   N     0.72706   0.14051   0.55422   0.00000  Uiso   1.00
N458   N     0.10657   0.70522   0.46924   0.00000  Uiso   1.00
N459   N     0.65164   0.74310   0.62760   0.00000  Uiso   1.00
N460   N     0.75116   0.09423   0.64238   0.00000  Uiso   1.00
C461   C     0.80163   0.41191   0.78472   0.00000  Uiso   1.00
C462   C     0.87283   0.41910   0.74959   0.00000  Uiso   1.00
C463   C     0.94329   0.36399   0.73785   0.00000  Uiso   1.00
C464   C     0.00124   0.38151   0.70495   0.00000  Uiso   1.00
C465   C     0.11364   0.38201   0.65354   0.00000  Uiso   1.00
C466   C     0.76502   0.46040   0.83691   0.00000  Uiso   1.00
C467   C     0.74483   0.44001   0.89858   0.00000  Uiso   1.00
C468   C     0.71202   0.49229   0.93918   0.00000  Uiso   1.00
C469   C     0.65699   0.55691   0.02332   0.00000  Uiso   1.00
C470   C     0.75171   0.44472   0.74193   0.00000  Uiso   1.00
C471   C     0.72032   0.41116   0.72376   0.00000  Uiso   1.00
C472   C     0.67629   0.45025   0.68440   0.00000  Uiso   1.00
C473   C     0.60061   0.49052   0.62108   0.00000  Uiso   1.00
C474   C     0.77925   0.54102   0.74716   0.00000  Uiso   1.00
C475   C     0.86067   0.48923   0.72919   0.00000  Uiso   1.00
C476   C     0.91853   0.50683   0.69630   0.00000  Uiso   1.00
C477   C     0.98907   0.45176   0.68451   0.00000  Uiso   1.00
C478   C     0.75286   0.53052   0.81651   0.00000  Uiso   1.00
C479   C     0.72007   0.58285   0.85703   0.00000  Uiso   1.00
C480   C     0.69984   0.56254   0.91875   0.00000  Uiso   1.00
C481   C     0.73956   0.51485   0.72153   0.00000  Uiso   1.00
C482   C     0.69556   0.55400   0.68220   0.00000  Uiso   1.00
C483   C     0.66411   0.52050   0.66397   0.00000  Uiso   1.00
H484   H     0.81109   0.35732   0.80061   0.00000  Uiso   1.00
H485   H     0.95267   0.30973   0.75365   0.00000  Uiso   1.00
H486   H     0.75423   0.38574   0.91435   0.00000  Uiso   1.00
H487   H     0.72974   0.35689   0.73955   0.00000  Uiso   1.00
H488   H     0.10428   0.28790   0.69262   0.00000  Uiso   1.00
H489   H     0.68584   0.44817   0.03147   0.00000  Uiso   1.00
H490   H     0.63418   0.38733   0.66287   0.00000  Uiso   1.00
H491   H     0.76979   0.59562   0.73128   0.00000  Uiso   1.00
H492   H     0.90911   0.56111   0.68052   0.00000  Uiso   1.00
H493   H     0.71067   0.63711   0.84123   0.00000  Uiso   1.00
H494   H     0.68617   0.60826   0.66642   0.00000  Uiso   1.00
H495   H     0.06893   0.49193   0.63326   0.00000  Uiso   1.00
H496   H     0.65048   0.65219   0.97212   0.00000  Uiso   1.00
H497   H     0.59882   0.59136   0.60351   0.00000  Uiso   1.00
O498   O     0.17900   0.36291   0.63082   0.00000  Uiso   1.00
O499   O     0.63001   0.57318   0.07537   0.00000  Uiso   1.00
O500   O     0.56223   0.49337   0.59178   0.00000  Uiso   1.00
N501   N     0.07684   0.34065   0.68561   0.00000  Uiso   1.00
N502   N     0.68564   0.49049   0.00241   0.00000  Uiso   1.00
N503   N     0.63732   0.43362   0.65781   0.00000  Uiso   1.00
N504   N     0.05782   0.45044   0.65367   0.00000  Uiso   1.00
N505   N     0.66661   0.60027   0.97047   0.00000  Uiso   1.00
N506   N     0.61829   0.54341   0.62587   0.00000  Uiso   1.00
C507   C     0.80313   0.79197   0.02524   0.00000  Uiso   1.00
C508   C     0.87234   0.72407   0.00581   0.00000  Uiso   1.00
C509   C     0.94100   0.70508   0.01352   0.00000  Uiso   1.00
C510   C     0.99731   0.64078   0.99264   0.00000  Uiso   1.00
C511   C     0.10661   0.54200   0.96663   0.00000  Uiso   1.00
C512   C     0.77764   0.82787   0.96778   0.00000  Uiso   1.00
C513   C     0.76667   0.89617   0.94352   0.00000  Uiso   1.00
C514   C     0.74326   0.91925   0.89064   0.00000  Uiso   1.00
C515   C     0.70549   0.98165   0.80562   0.00000  Uiso   1.00
C516   C     0.74426   0.76886   0.06732   0.00000  Uiso   1.00
C517   C     0.70521   0.78754   0.12676   0.00000  Uiso   1.00
C518   C     0.65367   0.76094   0.15767   0.00000  Uiso   1.00
C519   C     0.56408   0.73171   0.22720   0.00000  Uiso   1.00
C520   C     0.78103   0.71153   0.97444   0.00000  Uiso   1.00
C521   C     0.86034   0.68038   0.97822   0.00000  Uiso   1.00
C522   C     0.91655   0.61608   0.95732   0.00000  Uiso   1.00
C523   C     0.98529   0.59701   0.96500   0.00000  Uiso   1.00
C524   C     0.76564   0.78418   0.94019   0.00000  Uiso   1.00
C525   C     0.74223   0.80717   0.88733   0.00000  Uiso   1.00
C526   C     0.73123   0.87548   0.86300   0.00000  Uiso   1.00
C527   C     0.73226   0.72516   0.03973   0.00000  Uiso   1.00
C528   C     0.68077   0.69854   0.07056   0.00000  Uiso   1.00
C529   C     0.64165   0.71718   0.13003   0.00000  Uiso   1.00
H530   H     0.81247   0.82599   0.04672   0.00000  Uiso   1.00
H531   H     0.95027   0.73892   0.03487   0.00000  Uiso   1.00
H532   H     0.77596   0.92997   0.96489   0.00000  Uiso   1.00
H533   H     0.71451   0.82135   0.14809   0.00000  Uiso   1.00
H534   H     0.09775   0.62312   0.00954   0.00000  Uiso   1.00
H535   H     0.73020   0.02598   0.86200   0.00000  Uiso   1.00
H536   H     0.60061   0.79694   0.24832   0.00000  Uiso   1.00
H537   H     0.77169   0.67752   0.95296   0.00000  Uiso   1.00
H538   H     0.90725   0.58228   0.93597   0.00000  Uiso   1.00
H539   H     0.73295   0.77334   0.86599   0.00000  Uiso   1.00
H540   H     0.67150   0.66473   0.04919   0.00000  Uiso   1.00
H541   H     0.06284   0.49599   0.92927   0.00000  Uiso   1.00
H542   H     0.69528   0.89885   0.78173   0.00000  Uiso   1.00
H543   H     0.56570   0.66982   0.16805   0.00000  Uiso   1.00
O544   O     0.17022   0.49960   0.95990   0.00000  Uiso   1.00
O545   O     0.68798   0.02814   0.76634   0.00000  Uiso   1.00
O546   O     0.51798   0.72765   0.27318   0.00000  Uiso   1.00
N547   N     0.07093   0.60626   0.99300   0.00000  Uiso   1.00
N548   N     0.72730   0.98291   0.85504   0.00000  Uiso   1.00
N549   N     0.60613   0.76879   0.21621   0.00000  Uiso   1.00
N550   N     0.05214   0.53785   0.94980   0.00000  Uiso   1.00
N551   N     0.70851   0.91450   0.81185   0.00000  Uiso   1.00
N552   N     0.58735   0.70039   0.17302   0.00000  Uiso   1.00
