data_job_01644
_audit_creation_date              2018-12-19
_audit_creation_method            'Materials Studio'
_symmetry_space_group_name_H-M    'P1'
_symmetry_Int_Tables_number       1
_symmetry_cell_setting            triclinic
loop_
_symmetry_equiv_pos_as_xyz
  x,y,z
_cell_length_a                    14.6126
_cell_length_b                    17.2803
_cell_length_c                    9.7711
_cell_angle_alpha                 90.0000
_cell_angle_beta                  90.0000
_cell_angle_gamma                 90.0000
loop_
_atom_site_label
_atom_site_type_symbol
_atom_site_fract_x
_atom_site_fract_y
_atom_site_fract_z
_atom_site_U_iso_or_equiv
_atom_site_adp_type
_atom_site_occupancy
C1     C     0.01812   0.70696   0.12269   0.00000  Uiso   1.00
C2     C     0.06625   0.78421   0.14533   0.00000  Uiso   1.00
C3     C     0.10671   0.80841   0.26649   0.00000  Uiso   1.00
C4     C     0.14721   0.88109   0.26642   0.00000  Uiso   1.00
C5     C     0.22191   0.99394   0.31941   0.00000  Uiso   1.00
C6     C     0.92186   0.72662   0.07345   0.00000  Uiso   1.00
C7     C     0.84092   0.70239   0.13416   0.00000  Uiso   1.00
C8     C     0.75988   0.72658   0.07356   0.00000  Uiso   1.00
C9     C     0.61041   0.74997   0.01489   0.00000  Uiso   1.00
C10    C     0.06624   0.66902   0.00155   0.00000  Uiso   1.00
C11    C     0.10668   0.59635   0.00180   0.00000  Uiso   1.00
C12    C     0.14717   0.57204   0.88065   0.00000  Uiso   1.00
C13    C     0.22187   0.50600   0.71036   0.00000  Uiso   1.00
C14    C     0.01812   0.79300   0.90711   0.00000  Uiso   1.00
C15    C     0.06625   0.83094   0.02824   0.00000  Uiso   1.00
C16    C     0.10670   0.90360   0.02798   0.00000  Uiso   1.00
C17    C     0.14722   0.92790   0.14911   0.00000  Uiso   1.00
C18    C     0.92186   0.77335   0.95636   0.00000  Uiso   1.00
C19    C     0.84092   0.79758   0.89565   0.00000  Uiso   1.00
C20    C     0.75988   0.77339   0.95625   0.00000  Uiso   1.00
C21    C     0.06624   0.71575   0.88446   0.00000  Uiso   1.00
C22    C     0.10667   0.69154   0.76328   0.00000  Uiso   1.00
C23    C     0.14717   0.61885   0.76335   0.00000  Uiso   1.00
H24    H     0.01812   0.67058   0.21385   0.00000  Uiso   1.00
H25    H     0.10669   0.77223   0.35709   0.00000  Uiso   1.00
H26    H     0.84095   0.66622   0.22477   0.00000  Uiso   1.00
H27    H     0.10666   0.56020   0.09243   0.00000  Uiso   1.00
H28    H     0.20486   0.90555   0.46428   0.00000  Uiso   1.00
H29    H     0.64452   0.68199   0.18524   0.00000  Uiso   1.00
H30    H     0.20484   0.45844   0.90618   0.00000  Uiso   1.00
H31    H     0.01811   0.82938   0.81594   0.00000  Uiso   1.00
H32    H     0.10669   0.93975   0.93734   0.00000  Uiso   1.00
H33    H     0.84094   0.83374   0.80503   0.00000  Uiso   1.00
H34    H     0.10666   0.72772   0.67269   0.00000  Uiso   1.00
H35    H     0.20485   0.04152   0.12360   0.00000  Uiso   1.00
H36    H     0.64452   0.81796   0.84456   0.00000  Uiso   1.00
H37    H     0.20483   0.59441   0.56550   0.00000  Uiso   1.00
O38    O     0.26309   0.04329   0.38099   0.00000  Uiso   1.00
O39    O     0.52796   0.74997   0.01490   0.00000  Uiso   1.00
O40    O     0.26308   0.45668   0.64878   0.00000  Uiso   1.00
N41    N     0.19272   0.92240   0.36743   0.00000  Uiso   1.00
N42    N     0.66884   0.71340   0.10656   0.00000  Uiso   1.00
N43    N     0.19266   0.50438   0.84565   0.00000  Uiso   1.00
N44    N     0.19271   0.99556   0.18411   0.00000  Uiso   1.00
N45    N     0.66884   0.78656   0.92324   0.00000  Uiso   1.00
N46    N     0.19266   0.57754   0.66233   0.00000  Uiso   1.00
C47    C     0.98188   0.29304   0.62269   0.00000  Uiso   1.00
C48    C     0.93375   0.21579   0.64533   0.00000  Uiso   1.00
C49    C     0.89329   0.19159   0.76649   0.00000  Uiso   1.00
C50    C     0.85279   0.11891   0.76642   0.00000  Uiso   1.00
C51    C     0.77809   0.00606   0.81941   0.00000  Uiso   1.00
C52    C     0.07814   0.27338   0.57345   0.00000  Uiso   1.00
C53    C     0.15908   0.29761   0.63416   0.00000  Uiso   1.00
C54    C     0.24012   0.27342   0.57356   0.00000  Uiso   1.00
C55    C     0.38959   0.25003   0.51489   0.00000  Uiso   1.00
C56    C     0.93376   0.33098   0.50155   0.00000  Uiso   1.00
C57    C     0.89332   0.40365   0.50180   0.00000  Uiso   1.00
C58    C     0.85283   0.42796   0.38065   0.00000  Uiso   1.00
C59    C     0.77813   0.49400   0.21036   0.00000  Uiso   1.00
C60    C     0.98188   0.20700   0.40711   0.00000  Uiso   1.00
C61    C     0.93375   0.16906   0.52824   0.00000  Uiso   1.00
C62    C     0.89330   0.09640   0.52798   0.00000  Uiso   1.00
C63    C     0.85278   0.07210   0.64911   0.00000  Uiso   1.00
C64    C     0.07814   0.22665   0.45636   0.00000  Uiso   1.00
C65    C     0.15908   0.20242   0.39565   0.00000  Uiso   1.00
C66    C     0.24012   0.22661   0.45625   0.00000  Uiso   1.00
C67    C     0.93376   0.28425   0.38446   0.00000  Uiso   1.00
C68    C     0.89333   0.30846   0.26328   0.00000  Uiso   1.00
C69    C     0.85283   0.38115   0.26335   0.00000  Uiso   1.00
H70    H     0.98188   0.32942   0.71385   0.00000  Uiso   1.00
H71    H     0.89331   0.22777   0.85709   0.00000  Uiso   1.00
H72    H     0.15905   0.33378   0.72477   0.00000  Uiso   1.00
H73    H     0.89334   0.43980   0.59243   0.00000  Uiso   1.00
H74    H     0.79514   0.09445   0.96428   0.00000  Uiso   1.00
H75    H     0.35548   0.31801   0.68524   0.00000  Uiso   1.00
H76    H     0.79516   0.54156   0.40618   0.00000  Uiso   1.00
H77    H     0.98189   0.17062   0.31594   0.00000  Uiso   1.00
H78    H     0.89331   0.06025   0.43734   0.00000  Uiso   1.00
H79    H     0.15906   0.16626   0.30503   0.00000  Uiso   1.00
H80    H     0.89334   0.27228   0.17269   0.00000  Uiso   1.00
H81    H     0.79515   0.95848   0.62360   0.00000  Uiso   1.00
H82    H     0.35548   0.18204   0.34456   0.00000  Uiso   1.00
H83    H     0.79517   0.40559   0.06550   0.00000  Uiso   1.00
O84    O     0.73691   0.95671   0.88099   0.00000  Uiso   1.00
O85    O     0.47204   0.25003   0.51490   0.00000  Uiso   1.00
O86    O     0.73692   0.54332   0.14878   0.00000  Uiso   1.00
N87    N     0.80728   0.07760   0.86743   0.00000  Uiso   1.00
N88    N     0.33116   0.28660   0.60656   0.00000  Uiso   1.00
N89    N     0.80734   0.49562   0.34565   0.00000  Uiso   1.00
N90    N     0.80729   0.00444   0.68411   0.00000  Uiso   1.00
N91    N     0.33116   0.21344   0.42324   0.00000  Uiso   1.00
N92    N     0.80734   0.42246   0.16233   0.00000  Uiso   1.00
C93    C     0.51812   0.29304   0.12269   0.00000  Uiso   1.00
C94    C     0.56625   0.21579   0.14533   0.00000  Uiso   1.00
C95    C     0.60671   0.19159   0.26649   0.00000  Uiso   1.00
C96    C     0.64721   0.11891   0.26642   0.00000  Uiso   1.00
C97    C     0.72191   0.00606   0.31941   0.00000  Uiso   1.00
C98    C     0.42186   0.27338   0.07345   0.00000  Uiso   1.00
C99    C     0.34092   0.29761   0.13416   0.00000  Uiso   1.00
C100   C     0.25988   0.27342   0.07356   0.00000  Uiso   1.00
C101   C     0.11041   0.25003   0.01489   0.00000  Uiso   1.00
C102   C     0.56624   0.33098   0.00155   0.00000  Uiso   1.00
C103   C     0.60668   0.40365   0.00180   0.00000  Uiso   1.00
C104   C     0.64717   0.42796   0.88065   0.00000  Uiso   1.00
C105   C     0.72187   0.49400   0.71036   0.00000  Uiso   1.00
C106   C     0.51812   0.20700   0.90711   0.00000  Uiso   1.00
C107   C     0.56625   0.16906   0.02824   0.00000  Uiso   1.00
C108   C     0.60670   0.09640   0.02798   0.00000  Uiso   1.00
C109   C     0.64722   0.07210   0.14911   0.00000  Uiso   1.00
C110   C     0.42186   0.22665   0.95636   0.00000  Uiso   1.00
C111   C     0.34092   0.20242   0.89565   0.00000  Uiso   1.00
C112   C     0.25988   0.22661   0.95625   0.00000  Uiso   1.00
C113   C     0.56624   0.28425   0.88446   0.00000  Uiso   1.00
C114   C     0.60667   0.30846   0.76328   0.00000  Uiso   1.00
C115   C     0.64717   0.38115   0.76335   0.00000  Uiso   1.00
H116   H     0.51812   0.32942   0.21385   0.00000  Uiso   1.00
H117   H     0.60669   0.22777   0.35709   0.00000  Uiso   1.00
H118   H     0.34095   0.33378   0.22477   0.00000  Uiso   1.00
H119   H     0.60666   0.43980   0.09243   0.00000  Uiso   1.00
H120   H     0.70486   0.09445   0.46428   0.00000  Uiso   1.00
H121   H     0.14452   0.31801   0.18524   0.00000  Uiso   1.00
H122   H     0.70484   0.54156   0.90618   0.00000  Uiso   1.00
H123   H     0.51811   0.17062   0.81594   0.00000  Uiso   1.00
H124   H     0.60669   0.06025   0.93734   0.00000  Uiso   1.00
H125   H     0.34094   0.16626   0.80503   0.00000  Uiso   1.00
H126   H     0.60666   0.27228   0.67269   0.00000  Uiso   1.00
H127   H     0.70485   0.95848   0.12360   0.00000  Uiso   1.00
H128   H     0.14452   0.18204   0.84456   0.00000  Uiso   1.00
H129   H     0.70483   0.40559   0.56550   0.00000  Uiso   1.00
O130   O     0.76309   0.95671   0.38099   0.00000  Uiso   1.00
O131   O     0.02796   0.25003   0.01490   0.00000  Uiso   1.00
O132   O     0.76308   0.54332   0.64878   0.00000  Uiso   1.00
N133   N     0.69272   0.07760   0.36743   0.00000  Uiso   1.00
N134   N     0.16884   0.28660   0.10656   0.00000  Uiso   1.00
N135   N     0.69266   0.49562   0.84565   0.00000  Uiso   1.00
N136   N     0.69271   0.00444   0.18411   0.00000  Uiso   1.00
N137   N     0.16884   0.21344   0.92324   0.00000  Uiso   1.00
N138   N     0.69266   0.42246   0.66233   0.00000  Uiso   1.00
C139   C     0.48188   0.70696   0.62269   0.00000  Uiso   1.00
C140   C     0.43375   0.78421   0.64533   0.00000  Uiso   1.00
C141   C     0.39329   0.80841   0.76649   0.00000  Uiso   1.00
C142   C     0.35279   0.88109   0.76642   0.00000  Uiso   1.00
C143   C     0.27809   0.99394   0.81941   0.00000  Uiso   1.00
C144   C     0.57814   0.72662   0.57345   0.00000  Uiso   1.00
C145   C     0.65908   0.70239   0.63416   0.00000  Uiso   1.00
C146   C     0.74012   0.72658   0.57356   0.00000  Uiso   1.00
C147   C     0.88959   0.74997   0.51489   0.00000  Uiso   1.00
C148   C     0.43376   0.66902   0.50155   0.00000  Uiso   1.00
C149   C     0.39332   0.59635   0.50180   0.00000  Uiso   1.00
C150   C     0.35283   0.57204   0.38065   0.00000  Uiso   1.00
C151   C     0.27813   0.50600   0.21036   0.00000  Uiso   1.00
C152   C     0.48188   0.79300   0.40711   0.00000  Uiso   1.00
C153   C     0.43375   0.83094   0.52824   0.00000  Uiso   1.00
C154   C     0.39330   0.90360   0.52798   0.00000  Uiso   1.00
C155   C     0.35278   0.92790   0.64911   0.00000  Uiso   1.00
C156   C     0.57814   0.77335   0.45636   0.00000  Uiso   1.00
C157   C     0.65908   0.79758   0.39565   0.00000  Uiso   1.00
C158   C     0.74012   0.77339   0.45625   0.00000  Uiso   1.00
C159   C     0.43376   0.71575   0.38446   0.00000  Uiso   1.00
C160   C     0.39333   0.69154   0.26328   0.00000  Uiso   1.00
C161   C     0.35283   0.61885   0.26335   0.00000  Uiso   1.00
H162   H     0.48188   0.67058   0.71385   0.00000  Uiso   1.00
H163   H     0.39331   0.77223   0.85709   0.00000  Uiso   1.00
H164   H     0.65905   0.66622   0.72477   0.00000  Uiso   1.00
H165   H     0.39334   0.56020   0.59243   0.00000  Uiso   1.00
H166   H     0.29514   0.90555   0.96428   0.00000  Uiso   1.00
H167   H     0.85548   0.68199   0.68524   0.00000  Uiso   1.00
H168   H     0.29516   0.45844   0.40618   0.00000  Uiso   1.00
H169   H     0.48189   0.82938   0.31594   0.00000  Uiso   1.00
H170   H     0.39331   0.93975   0.43734   0.00000  Uiso   1.00
H171   H     0.65906   0.83374   0.30503   0.00000  Uiso   1.00
H172   H     0.39334   0.72772   0.17269   0.00000  Uiso   1.00
H173   H     0.29515   0.04152   0.62360   0.00000  Uiso   1.00
H174   H     0.85548   0.81796   0.34456   0.00000  Uiso   1.00
H175   H     0.29517   0.59441   0.06550   0.00000  Uiso   1.00
O176   O     0.23691   0.04329   0.88099   0.00000  Uiso   1.00
O177   O     0.97204   0.74997   0.51490   0.00000  Uiso   1.00
O178   O     0.23692   0.45668   0.14878   0.00000  Uiso   1.00
N179   N     0.30728   0.92240   0.86743   0.00000  Uiso   1.00
N180   N     0.83116   0.71340   0.60656   0.00000  Uiso   1.00
N181   N     0.30734   0.50438   0.34565   0.00000  Uiso   1.00
N182   N     0.30729   0.99556   0.68411   0.00000  Uiso   1.00
N183   N     0.83116   0.78656   0.42324   0.00000  Uiso   1.00
N184   N     0.30734   0.57754   0.16233   0.00000  Uiso   1.00
