data_job_03990
_audit_creation_date              2018-12-19
_audit_creation_method            'Materials Studio'
_symmetry_space_group_name_H-M    'P1'
_symmetry_Int_Tables_number       1
_symmetry_cell_setting            triclinic
loop_
_symmetry_equiv_pos_as_xyz
  x,y,z
_cell_length_a                    10.7318
_cell_length_b                    10.7318
_cell_length_c                    47.4800
_cell_angle_alpha                 90.0000
_cell_angle_beta                  90.0000
_cell_angle_gamma                 90.0000
loop_
_atom_site_label
_atom_site_type_symbol
_atom_site_fract_x
_atom_site_fract_y
_atom_site_fract_z
_atom_site_U_iso_or_equiv
_atom_site_adp_type
_atom_site_occupancy
C1     C     0.01141   0.23980   0.42283   0.00000  Uiso   1.00
C2     C     0.93558   0.19634   0.44816   0.00000  Uiso   1.00
C3     C     0.89081   0.27200   0.46959   0.00000  Uiso   1.00
C4     C     0.82343   0.21437   0.49089   0.00000  Uiso   1.00
C5     C     0.70905   0.16646   0.53024   0.00000  Uiso   1.00
C6     C     0.13148   0.16382   0.42329   0.00000  Uiso   1.00
C7     C     0.25141   0.21215   0.42381   0.00000  Uiso   1.00
C8     C     0.34893   0.12715   0.42417   0.00000  Uiso   1.00
C9     C     0.53867   0.02875   0.42489   0.00000  Uiso   1.00
C10    C     0.93975   0.19689   0.39685   0.00000  Uiso   1.00
C11    C     0.89850   0.27302   0.37514   0.00000  Uiso   1.00
C12    C     0.83463   0.21586   0.35324   0.00000  Uiso   1.00
C13    C     0.72669   0.16881   0.31291   0.00000  Uiso   1.00
C14    C     0.97136   0.00291   0.42254   0.00000  Uiso   1.00
C15    C     0.91383   0.06767   0.44800   0.00000  Uiso   1.00
C16    C     0.84650   0.00991   0.46926   0.00000  Uiso   1.00
C17    C     0.80163   0.08548   0.49072   0.00000  Uiso   1.00
C18    C     0.10973   0.03516   0.42313   0.00000  Uiso   1.00
C19    C     0.20709   0.95007   0.42348   0.00000  Uiso   1.00
C20    C     0.32714   0.99825   0.42401   0.00000  Uiso   1.00
C21    C     0.91799   0.06823   0.39669   0.00000  Uiso   1.00
C22    C     0.85418   0.01094   0.37481   0.00000  Uiso   1.00
C23    C     0.81284   0.08696   0.35308   0.00000  Uiso   1.00
H24    H     0.02836   0.33996   0.42296   0.00000  Uiso   1.00
H25    H     0.90768   0.37157   0.46971   0.00000  Uiso   1.00
H26    H     0.26821   0.31172   0.42394   0.00000  Uiso   1.00
H27    H     0.91536   0.37258   0.37527   0.00000  Uiso   1.00
H28    H     0.76432   0.34985   0.52148   0.00000  Uiso   1.00
H29    H     0.52453   0.22367   0.42495   0.00000  Uiso   1.00
H30    H     0.78047   0.35201   0.32233   0.00000  Uiso   1.00
H31    H     0.95443   0.90274   0.42241   0.00000  Uiso   1.00
H32    H     0.82968   0.91034   0.46913   0.00000  Uiso   1.00
H33    H     0.19022   0.85050   0.42336   0.00000  Uiso   1.00
H34    H     0.83737   0.91137   0.37470   0.00000  Uiso   1.00
H35    H     0.70102   0.97551   0.52101   0.00000  Uiso   1.00
H36    H     0.46124   0.84933   0.42448   0.00000  Uiso   1.00
H37    H     0.71717   0.97767   0.32187   0.00000  Uiso   1.00
O38    O     0.65198   0.17557   0.55199   0.00000  Uiso   1.00
O39    O     0.64934   0.01003   0.42534   0.00000  Uiso   1.00
O40    O     0.67315   0.17841   0.29072   0.00000  Uiso   1.00
N41    N     0.76652   0.26071   0.51495   0.00000  Uiso   1.00
N42    N     0.47727   0.14274   0.42471   0.00000  Uiso   1.00
N43    N     0.78167   0.26272   0.32877   0.00000  Uiso   1.00
N44    N     0.73246   0.05928   0.51470   0.00000  Uiso   1.00
N45    N     0.44321   0.94131   0.42445   0.00000  Uiso   1.00
N46    N     0.74761   0.06129   0.32852   0.00000  Uiso   1.00
C47    C     0.98859   0.76020   0.92283   0.00000  Uiso   1.00
C48    C     0.06442   0.80366   0.94816   0.00000  Uiso   1.00
C49    C     0.10919   0.72800   0.96959   0.00000  Uiso   1.00
C50    C     0.17657   0.78563   0.99089   0.00000  Uiso   1.00
C51    C     0.29095   0.83354   0.03024   0.00000  Uiso   1.00
C52    C     0.86852   0.83618   0.92329   0.00000  Uiso   1.00
C53    C     0.74859   0.78785   0.92381   0.00000  Uiso   1.00
C54    C     0.65107   0.87285   0.92417   0.00000  Uiso   1.00
C55    C     0.46133   0.97125   0.92489   0.00000  Uiso   1.00
C56    C     0.06025   0.80311   0.89685   0.00000  Uiso   1.00
C57    C     0.10150   0.72698   0.87514   0.00000  Uiso   1.00
C58    C     0.16537   0.78414   0.85324   0.00000  Uiso   1.00
C59    C     0.27331   0.83119   0.81291   0.00000  Uiso   1.00
C60    C     0.02864   0.99709   0.92254   0.00000  Uiso   1.00
C61    C     0.08617   0.93233   0.94800   0.00000  Uiso   1.00
C62    C     0.15350   0.99009   0.96926   0.00000  Uiso   1.00
C63    C     0.19837   0.91452   0.99072   0.00000  Uiso   1.00
C64    C     0.89027   0.96484   0.92313   0.00000  Uiso   1.00
C65    C     0.79291   0.04993   0.92348   0.00000  Uiso   1.00
C66    C     0.67286   0.00175   0.92401   0.00000  Uiso   1.00
C67    C     0.08201   0.93177   0.89669   0.00000  Uiso   1.00
C68    C     0.14582   0.98906   0.87481   0.00000  Uiso   1.00
C69    C     0.18716   0.91304   0.85308   0.00000  Uiso   1.00
H70    H     0.97164   0.66004   0.92296   0.00000  Uiso   1.00
H71    H     0.09232   0.62843   0.96971   0.00000  Uiso   1.00
H72    H     0.73179   0.68828   0.92394   0.00000  Uiso   1.00
H73    H     0.08464   0.62742   0.87527   0.00000  Uiso   1.00
H74    H     0.23568   0.65015   0.02148   0.00000  Uiso   1.00
H75    H     0.47547   0.77633   0.92495   0.00000  Uiso   1.00
H76    H     0.21953   0.64799   0.82233   0.00000  Uiso   1.00
H77    H     0.04557   0.09726   0.92241   0.00000  Uiso   1.00
H78    H     0.17032   0.08966   0.96913   0.00000  Uiso   1.00
H79    H     0.80978   0.14950   0.92336   0.00000  Uiso   1.00
H80    H     0.16263   0.08863   0.87470   0.00000  Uiso   1.00
H81    H     0.29898   0.02449   0.02101   0.00000  Uiso   1.00
H82    H     0.53876   0.15067   0.92448   0.00000  Uiso   1.00
H83    H     0.28283   0.02233   0.82187   0.00000  Uiso   1.00
O84    O     0.34802   0.82443   0.05199   0.00000  Uiso   1.00
O85    O     0.35066   0.98997   0.92534   0.00000  Uiso   1.00
O86    O     0.32685   0.82159   0.79072   0.00000  Uiso   1.00
N87    N     0.23348   0.73929   0.01495   0.00000  Uiso   1.00
N88    N     0.52273   0.85726   0.92471   0.00000  Uiso   1.00
N89    N     0.21833   0.73728   0.82877   0.00000  Uiso   1.00
N90    N     0.26754   0.94072   0.01470   0.00000  Uiso   1.00
N91    N     0.55679   0.05869   0.92445   0.00000  Uiso   1.00
N92    N     0.25239   0.93871   0.82852   0.00000  Uiso   1.00
C93    C     0.26020   0.51141   0.17283   0.00000  Uiso   1.00
C94    C     0.30366   0.43558   0.19816   0.00000  Uiso   1.00
C95    C     0.22800   0.39081   0.21959   0.00000  Uiso   1.00
C96    C     0.28563   0.32343   0.24089   0.00000  Uiso   1.00
C97    C     0.33354   0.20905   0.28024   0.00000  Uiso   1.00
C98    C     0.33618   0.63148   0.17329   0.00000  Uiso   1.00
C99    C     0.28785   0.75141   0.17381   0.00000  Uiso   1.00
C100   C     0.37285   0.84893   0.17417   0.00000  Uiso   1.00
C101   C     0.47125   0.03867   0.17489   0.00000  Uiso   1.00
C102   C     0.30311   0.43975   0.14685   0.00000  Uiso   1.00
C103   C     0.22698   0.39850   0.12514   0.00000  Uiso   1.00
C104   C     0.28414   0.33463   0.10324   0.00000  Uiso   1.00
C105   C     0.33119   0.22669   0.06291   0.00000  Uiso   1.00
C106   C     0.49709   0.47136   0.17254   0.00000  Uiso   1.00
C107   C     0.43233   0.41383   0.19800   0.00000  Uiso   1.00
C108   C     0.49009   0.34650   0.21926   0.00000  Uiso   1.00
C109   C     0.41452   0.30163   0.24072   0.00000  Uiso   1.00
C110   C     0.46484   0.60973   0.17313   0.00000  Uiso   1.00
C111   C     0.54993   0.70709   0.17348   0.00000  Uiso   1.00
C112   C     0.50175   0.82714   0.17401   0.00000  Uiso   1.00
C113   C     0.43177   0.41799   0.14669   0.00000  Uiso   1.00
C114   C     0.48906   0.35418   0.12481   0.00000  Uiso   1.00
C115   C     0.41304   0.31284   0.10308   0.00000  Uiso   1.00
H116   H     0.16004   0.52836   0.17296   0.00000  Uiso   1.00
H117   H     0.12843   0.40768   0.21971   0.00000  Uiso   1.00
H118   H     0.18828   0.76821   0.17394   0.00000  Uiso   1.00
H119   H     0.12742   0.41536   0.12527   0.00000  Uiso   1.00
H120   H     0.15015   0.26432   0.27148   0.00000  Uiso   1.00
H121   H     0.27633   0.02453   0.17495   0.00000  Uiso   1.00
H122   H     0.14799   0.28047   0.07233   0.00000  Uiso   1.00
H123   H     0.59726   0.45443   0.17241   0.00000  Uiso   1.00
H124   H     0.58966   0.32968   0.21913   0.00000  Uiso   1.00
H125   H     0.64950   0.69022   0.17336   0.00000  Uiso   1.00
H126   H     0.58863   0.33737   0.12470   0.00000  Uiso   1.00
H127   H     0.52449   0.20102   0.27101   0.00000  Uiso   1.00
H128   H     0.65067   0.96124   0.17448   0.00000  Uiso   1.00
H129   H     0.52233   0.21717   0.07187   0.00000  Uiso   1.00
O130   O     0.32443   0.15198   0.30199   0.00000  Uiso   1.00
O131   O     0.48997   0.14934   0.17534   0.00000  Uiso   1.00
O132   O     0.32159   0.17315   0.04072   0.00000  Uiso   1.00
N133   N     0.23929   0.26652   0.26495   0.00000  Uiso   1.00
N134   N     0.35726   0.97727   0.17471   0.00000  Uiso   1.00
N135   N     0.23728   0.28167   0.07877   0.00000  Uiso   1.00
N136   N     0.44072   0.23246   0.26470   0.00000  Uiso   1.00
N137   N     0.55869   0.94321   0.17445   0.00000  Uiso   1.00
N138   N     0.43871   0.24761   0.07852   0.00000  Uiso   1.00
C139   C     0.73980   0.48859   0.67283   0.00000  Uiso   1.00
C140   C     0.69634   0.56442   0.69816   0.00000  Uiso   1.00
C141   C     0.77200   0.60919   0.71959   0.00000  Uiso   1.00
C142   C     0.71437   0.67657   0.74089   0.00000  Uiso   1.00
C143   C     0.66646   0.79095   0.78024   0.00000  Uiso   1.00
C144   C     0.66382   0.36852   0.67329   0.00000  Uiso   1.00
C145   C     0.71215   0.24859   0.67381   0.00000  Uiso   1.00
C146   C     0.62715   0.15107   0.67417   0.00000  Uiso   1.00
C147   C     0.52875   0.96133   0.67489   0.00000  Uiso   1.00
C148   C     0.69689   0.56025   0.64685   0.00000  Uiso   1.00
C149   C     0.77302   0.60150   0.62514   0.00000  Uiso   1.00
C150   C     0.71586   0.66537   0.60324   0.00000  Uiso   1.00
C151   C     0.66881   0.77331   0.56291   0.00000  Uiso   1.00
C152   C     0.50291   0.52864   0.67254   0.00000  Uiso   1.00
C153   C     0.56767   0.58617   0.69800   0.00000  Uiso   1.00
C154   C     0.50991   0.65350   0.71926   0.00000  Uiso   1.00
C155   C     0.58548   0.69837   0.74072   0.00000  Uiso   1.00
C156   C     0.53516   0.39027   0.67313   0.00000  Uiso   1.00
C157   C     0.45007   0.29291   0.67348   0.00000  Uiso   1.00
C158   C     0.49825   0.17286   0.67401   0.00000  Uiso   1.00
C159   C     0.56823   0.58201   0.64669   0.00000  Uiso   1.00
C160   C     0.51094   0.64582   0.62481   0.00000  Uiso   1.00
C161   C     0.58696   0.68716   0.60308   0.00000  Uiso   1.00
H162   H     0.83996   0.47164   0.67296   0.00000  Uiso   1.00
H163   H     0.87157   0.59232   0.71971   0.00000  Uiso   1.00
H164   H     0.81172   0.23179   0.67394   0.00000  Uiso   1.00
H165   H     0.87258   0.58464   0.62527   0.00000  Uiso   1.00
H166   H     0.84985   0.73568   0.77148   0.00000  Uiso   1.00
H167   H     0.72367   0.97547   0.67495   0.00000  Uiso   1.00
H168   H     0.85201   0.71953   0.57233   0.00000  Uiso   1.00
H169   H     0.40274   0.54557   0.67241   0.00000  Uiso   1.00
H170   H     0.41034   0.67032   0.71913   0.00000  Uiso   1.00
H171   H     0.35050   0.30978   0.67336   0.00000  Uiso   1.00
H172   H     0.41137   0.66263   0.62470   0.00000  Uiso   1.00
H173   H     0.47551   0.79898   0.77101   0.00000  Uiso   1.00
H174   H     0.34933   0.03876   0.67448   0.00000  Uiso   1.00
H175   H     0.47767   0.78283   0.57187   0.00000  Uiso   1.00
O176   O     0.67557   0.84802   0.80199   0.00000  Uiso   1.00
O177   O     0.51003   0.85066   0.67534   0.00000  Uiso   1.00
O178   O     0.67841   0.82685   0.54072   0.00000  Uiso   1.00
N179   N     0.76071   0.73348   0.76495   0.00000  Uiso   1.00
N180   N     0.64274   0.02273   0.67471   0.00000  Uiso   1.00
N181   N     0.76272   0.71833   0.57877   0.00000  Uiso   1.00
N182   N     0.55928   0.76754   0.76470   0.00000  Uiso   1.00
N183   N     0.44131   0.05679   0.67445   0.00000  Uiso   1.00
N184   N     0.56129   0.75239   0.57852   0.00000  Uiso   1.00
C185   C     0.48859   0.73980   0.32717   0.00000  Uiso   1.00
C186   C     0.56442   0.69634   0.30184   0.00000  Uiso   1.00
C187   C     0.60919   0.77200   0.28041   0.00000  Uiso   1.00
C188   C     0.67657   0.71437   0.25911   0.00000  Uiso   1.00
C189   C     0.79095   0.66646   0.21976   0.00000  Uiso   1.00
C190   C     0.36852   0.66382   0.32671   0.00000  Uiso   1.00
C191   C     0.24859   0.71215   0.32619   0.00000  Uiso   1.00
C192   C     0.15107   0.62715   0.32583   0.00000  Uiso   1.00
C193   C     0.96133   0.52875   0.32511   0.00000  Uiso   1.00
C194   C     0.56025   0.69689   0.35315   0.00000  Uiso   1.00
C195   C     0.60150   0.77302   0.37486   0.00000  Uiso   1.00
C196   C     0.66537   0.71586   0.39676   0.00000  Uiso   1.00
C197   C     0.77331   0.66881   0.43709   0.00000  Uiso   1.00
C198   C     0.52864   0.50291   0.32746   0.00000  Uiso   1.00
C199   C     0.58617   0.56767   0.30200   0.00000  Uiso   1.00
C200   C     0.65350   0.50991   0.28074   0.00000  Uiso   1.00
C201   C     0.69837   0.58548   0.25928   0.00000  Uiso   1.00
C202   C     0.39027   0.53516   0.32687   0.00000  Uiso   1.00
C203   C     0.29291   0.45007   0.32652   0.00000  Uiso   1.00
C204   C     0.17286   0.49825   0.32599   0.00000  Uiso   1.00
C205   C     0.58201   0.56823   0.35331   0.00000  Uiso   1.00
C206   C     0.64582   0.51094   0.37519   0.00000  Uiso   1.00
C207   C     0.68716   0.58696   0.39692   0.00000  Uiso   1.00
H208   H     0.47164   0.83996   0.32704   0.00000  Uiso   1.00
H209   H     0.59232   0.87157   0.28029   0.00000  Uiso   1.00
H210   H     0.23179   0.81172   0.32606   0.00000  Uiso   1.00
H211   H     0.58464   0.87258   0.37473   0.00000  Uiso   1.00
H212   H     0.73568   0.84985   0.22852   0.00000  Uiso   1.00
H213   H     0.97547   0.72367   0.32505   0.00000  Uiso   1.00
H214   H     0.71953   0.85201   0.42767   0.00000  Uiso   1.00
H215   H     0.54557   0.40274   0.32759   0.00000  Uiso   1.00
H216   H     0.67032   0.41034   0.28087   0.00000  Uiso   1.00
H217   H     0.30978   0.35050   0.32664   0.00000  Uiso   1.00
H218   H     0.66263   0.41137   0.37530   0.00000  Uiso   1.00
H219   H     0.79898   0.47551   0.22899   0.00000  Uiso   1.00
H220   H     0.03876   0.34933   0.32552   0.00000  Uiso   1.00
H221   H     0.78283   0.47767   0.42813   0.00000  Uiso   1.00
O222   O     0.84802   0.67557   0.19801   0.00000  Uiso   1.00
O223   O     0.85066   0.51003   0.32466   0.00000  Uiso   1.00
O224   O     0.82685   0.67841   0.45928   0.00000  Uiso   1.00
N225   N     0.73348   0.76071   0.23505   0.00000  Uiso   1.00
N226   N     0.02273   0.64274   0.32529   0.00000  Uiso   1.00
N227   N     0.71833   0.76272   0.42123   0.00000  Uiso   1.00
N228   N     0.76754   0.55928   0.23530   0.00000  Uiso   1.00
N229   N     0.05679   0.44131   0.32555   0.00000  Uiso   1.00
N230   N     0.75239   0.56129   0.42148   0.00000  Uiso   1.00
C231   C     0.51141   0.26020   0.82717   0.00000  Uiso   1.00
C232   C     0.43558   0.30366   0.80184   0.00000  Uiso   1.00
C233   C     0.39081   0.22800   0.78041   0.00000  Uiso   1.00
C234   C     0.32343   0.28563   0.75911   0.00000  Uiso   1.00
C235   C     0.20905   0.33354   0.71976   0.00000  Uiso   1.00
C236   C     0.63148   0.33618   0.82671   0.00000  Uiso   1.00
C237   C     0.75141   0.28785   0.82619   0.00000  Uiso   1.00
C238   C     0.84893   0.37285   0.82583   0.00000  Uiso   1.00
C239   C     0.03867   0.47125   0.82511   0.00000  Uiso   1.00
C240   C     0.43975   0.30311   0.85315   0.00000  Uiso   1.00
C241   C     0.39850   0.22698   0.87486   0.00000  Uiso   1.00
C242   C     0.33463   0.28414   0.89676   0.00000  Uiso   1.00
C243   C     0.22669   0.33119   0.93709   0.00000  Uiso   1.00
C244   C     0.47136   0.49709   0.82746   0.00000  Uiso   1.00
C245   C     0.41383   0.43233   0.80200   0.00000  Uiso   1.00
C246   C     0.34650   0.49009   0.78074   0.00000  Uiso   1.00
C247   C     0.30163   0.41452   0.75928   0.00000  Uiso   1.00
C248   C     0.60973   0.46484   0.82687   0.00000  Uiso   1.00
C249   C     0.70709   0.54993   0.82652   0.00000  Uiso   1.00
C250   C     0.82714   0.50175   0.82599   0.00000  Uiso   1.00
C251   C     0.41799   0.43177   0.85331   0.00000  Uiso   1.00
C252   C     0.35418   0.48906   0.87519   0.00000  Uiso   1.00
C253   C     0.31284   0.41304   0.89692   0.00000  Uiso   1.00
H254   H     0.52836   0.16004   0.82704   0.00000  Uiso   1.00
H255   H     0.40768   0.12843   0.78029   0.00000  Uiso   1.00
H256   H     0.76821   0.18828   0.82606   0.00000  Uiso   1.00
H257   H     0.41536   0.12742   0.87473   0.00000  Uiso   1.00
H258   H     0.26432   0.15015   0.72852   0.00000  Uiso   1.00
H259   H     0.02453   0.27633   0.82505   0.00000  Uiso   1.00
H260   H     0.28047   0.14799   0.92767   0.00000  Uiso   1.00
H261   H     0.45443   0.59726   0.82759   0.00000  Uiso   1.00
H262   H     0.32968   0.58966   0.78087   0.00000  Uiso   1.00
H263   H     0.69022   0.64950   0.82664   0.00000  Uiso   1.00
H264   H     0.33737   0.58863   0.87530   0.00000  Uiso   1.00
H265   H     0.20102   0.52449   0.72899   0.00000  Uiso   1.00
H266   H     0.96124   0.65067   0.82552   0.00000  Uiso   1.00
H267   H     0.21717   0.52233   0.92813   0.00000  Uiso   1.00
O268   O     0.15198   0.32443   0.69801   0.00000  Uiso   1.00
O269   O     0.14934   0.48997   0.82466   0.00000  Uiso   1.00
O270   O     0.17315   0.32159   0.95928   0.00000  Uiso   1.00
N271   N     0.26652   0.23929   0.73505   0.00000  Uiso   1.00
N272   N     0.97727   0.35726   0.82529   0.00000  Uiso   1.00
N273   N     0.28167   0.23728   0.92123   0.00000  Uiso   1.00
N274   N     0.23246   0.44072   0.73530   0.00000  Uiso   1.00
N275   N     0.94321   0.55869   0.82555   0.00000  Uiso   1.00
N276   N     0.24761   0.43871   0.92148   0.00000  Uiso   1.00
C277   C     0.23980   0.01141   0.57717   0.00000  Uiso   1.00
C278   C     0.19634   0.93558   0.55184   0.00000  Uiso   1.00
C279   C     0.27200   0.89081   0.53041   0.00000  Uiso   1.00
C280   C     0.21437   0.82343   0.50911   0.00000  Uiso   1.00
C281   C     0.16646   0.70905   0.46976   0.00000  Uiso   1.00
C282   C     0.16382   0.13148   0.57671   0.00000  Uiso   1.00
C283   C     0.21215   0.25141   0.57619   0.00000  Uiso   1.00
C284   C     0.12715   0.34893   0.57583   0.00000  Uiso   1.00
C285   C     0.02875   0.53867   0.57511   0.00000  Uiso   1.00
C286   C     0.19689   0.93975   0.60315   0.00000  Uiso   1.00
C287   C     0.27302   0.89850   0.62486   0.00000  Uiso   1.00
C288   C     0.21586   0.83463   0.64676   0.00000  Uiso   1.00
C289   C     0.16881   0.72669   0.68709   0.00000  Uiso   1.00
C290   C     0.00291   0.97136   0.57746   0.00000  Uiso   1.00
C291   C     0.06767   0.91383   0.55200   0.00000  Uiso   1.00
C292   C     0.00991   0.84650   0.53074   0.00000  Uiso   1.00
C293   C     0.08548   0.80163   0.50928   0.00000  Uiso   1.00
C294   C     0.03516   0.10973   0.57687   0.00000  Uiso   1.00
C295   C     0.95007   0.20709   0.57652   0.00000  Uiso   1.00
C296   C     0.99825   0.32714   0.57599   0.00000  Uiso   1.00
C297   C     0.06823   0.91799   0.60331   0.00000  Uiso   1.00
C298   C     0.01094   0.85418   0.62519   0.00000  Uiso   1.00
C299   C     0.08696   0.81284   0.64692   0.00000  Uiso   1.00
H300   H     0.33996   0.02836   0.57704   0.00000  Uiso   1.00
H301   H     0.37157   0.90768   0.53029   0.00000  Uiso   1.00
H302   H     0.31172   0.26821   0.57606   0.00000  Uiso   1.00
H303   H     0.37258   0.91536   0.62473   0.00000  Uiso   1.00
H304   H     0.34985   0.76432   0.47852   0.00000  Uiso   1.00
H305   H     0.22367   0.52453   0.57505   0.00000  Uiso   1.00
H306   H     0.35201   0.78047   0.67767   0.00000  Uiso   1.00
H307   H     0.90274   0.95443   0.57759   0.00000  Uiso   1.00
H308   H     0.91034   0.82968   0.53087   0.00000  Uiso   1.00
H309   H     0.85050   0.19022   0.57664   0.00000  Uiso   1.00
H310   H     0.91137   0.83737   0.62530   0.00000  Uiso   1.00
H311   H     0.97551   0.70102   0.47899   0.00000  Uiso   1.00
H312   H     0.84933   0.46124   0.57552   0.00000  Uiso   1.00
H313   H     0.97767   0.71717   0.67813   0.00000  Uiso   1.00
O314   O     0.17557   0.65198   0.44801   0.00000  Uiso   1.00
O315   O     0.01003   0.64934   0.57466   0.00000  Uiso   1.00
O316   O     0.17841   0.67315   0.70928   0.00000  Uiso   1.00
N317   N     0.26071   0.76652   0.48505   0.00000  Uiso   1.00
N318   N     0.14274   0.47727   0.57529   0.00000  Uiso   1.00
N319   N     0.26272   0.78167   0.67123   0.00000  Uiso   1.00
N320   N     0.05928   0.73246   0.48530   0.00000  Uiso   1.00
N321   N     0.94131   0.44321   0.57555   0.00000  Uiso   1.00
N322   N     0.06129   0.74761   0.67148   0.00000  Uiso   1.00
C323   C     0.76020   0.98859   0.07717   0.00000  Uiso   1.00
C324   C     0.80366   0.06442   0.05184   0.00000  Uiso   1.00
C325   C     0.72800   0.10919   0.03041   0.00000  Uiso   1.00
C326   C     0.78563   0.17657   0.00911   0.00000  Uiso   1.00
C327   C     0.83354   0.29095   0.96976   0.00000  Uiso   1.00
C328   C     0.83618   0.86852   0.07671   0.00000  Uiso   1.00
C329   C     0.78785   0.74859   0.07619   0.00000  Uiso   1.00
C330   C     0.87285   0.65107   0.07583   0.00000  Uiso   1.00
C331   C     0.97125   0.46133   0.07511   0.00000  Uiso   1.00
C332   C     0.80311   0.06025   0.10315   0.00000  Uiso   1.00
C333   C     0.72698   0.10150   0.12486   0.00000  Uiso   1.00
C334   C     0.78414   0.16537   0.14676   0.00000  Uiso   1.00
C335   C     0.83119   0.27331   0.18709   0.00000  Uiso   1.00
C336   C     0.99709   0.02864   0.07746   0.00000  Uiso   1.00
C337   C     0.93233   0.08617   0.05200   0.00000  Uiso   1.00
C338   C     0.99009   0.15350   0.03074   0.00000  Uiso   1.00
C339   C     0.91452   0.19837   0.00928   0.00000  Uiso   1.00
C340   C     0.96484   0.89027   0.07687   0.00000  Uiso   1.00
C341   C     0.04993   0.79291   0.07652   0.00000  Uiso   1.00
C342   C     0.00175   0.67286   0.07599   0.00000  Uiso   1.00
C343   C     0.93177   0.08201   0.10331   0.00000  Uiso   1.00
C344   C     0.98906   0.14582   0.12519   0.00000  Uiso   1.00
C345   C     0.91304   0.18716   0.14692   0.00000  Uiso   1.00
H346   H     0.66004   0.97164   0.07704   0.00000  Uiso   1.00
H347   H     0.62843   0.09232   0.03029   0.00000  Uiso   1.00
H348   H     0.68828   0.73179   0.07606   0.00000  Uiso   1.00
H349   H     0.62742   0.08464   0.12473   0.00000  Uiso   1.00
H350   H     0.65015   0.23568   0.97852   0.00000  Uiso   1.00
H351   H     0.77633   0.47547   0.07505   0.00000  Uiso   1.00
H352   H     0.64799   0.21953   0.17767   0.00000  Uiso   1.00
H353   H     0.09726   0.04557   0.07759   0.00000  Uiso   1.00
H354   H     0.08966   0.17032   0.03087   0.00000  Uiso   1.00
H355   H     0.14950   0.80978   0.07664   0.00000  Uiso   1.00
H356   H     0.08863   0.16263   0.12530   0.00000  Uiso   1.00
H357   H     0.02449   0.29898   0.97899   0.00000  Uiso   1.00
H358   H     0.15067   0.53876   0.07552   0.00000  Uiso   1.00
H359   H     0.02233   0.28283   0.17813   0.00000  Uiso   1.00
O360   O     0.82443   0.34802   0.94801   0.00000  Uiso   1.00
O361   O     0.98997   0.35066   0.07466   0.00000  Uiso   1.00
O362   O     0.82159   0.32685   0.20928   0.00000  Uiso   1.00
N363   N     0.73929   0.23348   0.98505   0.00000  Uiso   1.00
N364   N     0.85726   0.52273   0.07529   0.00000  Uiso   1.00
N365   N     0.73728   0.21833   0.17123   0.00000  Uiso   1.00
N366   N     0.94072   0.26754   0.98530   0.00000  Uiso   1.00
N367   N     0.05869   0.55679   0.07555   0.00000  Uiso   1.00
N368   N     0.93871   0.25239   0.17148   0.00000  Uiso   1.00
