data_job_04204
_audit_creation_date              2018-12-19
_audit_creation_method            'Materials Studio'
_symmetry_space_group_name_H-M    'P1'
_symmetry_Int_Tables_number       1
_symmetry_cell_setting            triclinic
loop_
_symmetry_equiv_pos_as_xyz
  x,y,z
_cell_length_a                    13.3310
_cell_length_b                    13.3310
_cell_length_c                    29.3817
_cell_angle_alpha                 90.0000
_cell_angle_beta                  90.0000
_cell_angle_gamma                 120.0000
loop_
_atom_site_label
_atom_site_type_symbol
_atom_site_fract_x
_atom_site_fract_y
_atom_site_fract_z
_atom_site_U_iso_or_equiv
_atom_site_adp_type
_atom_site_occupancy
C1     C     0.82857   0.24949   0.16784   0.00000  Uiso   1.00
C2     C     0.78801   0.28708   0.20968   0.00000  Uiso   1.00
C3     C     0.76318   0.37647   0.21119   0.00000  Uiso   1.00
C4     C     0.72733   0.39730   0.25272   0.00000  Uiso   1.00
C5     C     0.66603   0.46580   0.31182   0.00000  Uiso   1.00
C6     C     0.94251   0.25673   0.18127   0.00000  Uiso   1.00
C7     C     0.04757   0.32059   0.15889   0.00000  Uiso   1.00
C8     C     0.14176   0.31586   0.17651   0.00000  Uiso   1.00
C9     C     0.32029   0.33717   0.19147   0.00000  Uiso   1.00
C10    C     0.74181   0.12108   0.16128   0.00000  Uiso   1.00
C11    C     0.67814   0.07086   0.12209   0.00000  Uiso   1.00
C12    C     0.60337   0.95192   0.12287   0.00000  Uiso   1.00
C13    C     0.47030   0.76260   0.10681   0.00000  Uiso   1.00
C14    C     0.80904   0.12753   0.23890   0.00000  Uiso   1.00
C15    C     0.77741   0.22084   0.24828   0.00000  Uiso   1.00
C16    C     0.74158   0.24154   0.28982   0.00000  Uiso   1.00
C17    C     0.71670   0.33094   0.29140   0.00000  Uiso   1.00
C18    C     0.93191   0.19050   0.21986   0.00000  Uiso   1.00
C19    C     0.02596   0.18566   0.23752   0.00000  Uiso   1.00
C20    C     0.13114   0.24950   0.21518   0.00000  Uiso   1.00
C21    C     0.73120   0.05484   0.19988   0.00000  Uiso   1.00
C22    C     0.65653   0.93594   0.20072   0.00000  Uiso   1.00
C23    C     0.59275   0.88556   0.16154   0.00000  Uiso   1.00
H24    H     0.83683   0.30106   0.13779   0.00000  Uiso   1.00
H25    H     0.77141   0.42772   0.18131   0.00000  Uiso   1.00
H26    H     0.05574   0.37183   0.12902   0.00000  Uiso   1.00
H27    H     0.68637   0.12215   0.09222   0.00000  Uiso   1.00
H28    H     0.69425   0.53896   0.24660   0.00000  Uiso   1.00
H29    H     0.29377   0.42110   0.13632   0.00000  Uiso   1.00
H30    H     0.51487   0.89459   0.05873   0.00000  Uiso   1.00
H31    H     0.80079   0.07596   0.26896   0.00000  Uiso   1.00
H32    H     0.73338   0.19027   0.31968   0.00000  Uiso   1.00
H33    H     0.01772   0.13439   0.26739   0.00000  Uiso   1.00
H34    H     0.64834   0.88471   0.23060   0.00000  Uiso   1.00
H35    H     0.66339   0.34624   0.35890   0.00000  Uiso   1.00
H36    H     0.26291   0.22837   0.24862   0.00000  Uiso   1.00
H37    H     0.48401   0.70187   0.17104   0.00000  Uiso   1.00
O38    O     0.63516   0.52188   0.33376   0.00000  Uiso   1.00
O39    O     0.42171   0.36723   0.18907   0.00000  Uiso   1.00
O40    O     0.39981   0.67647   0.08728   0.00000  Uiso   1.00
N41    N     0.69621   0.47790   0.26606   0.00000  Uiso   1.00
N42    N     0.25673   0.36772   0.16296   0.00000  Uiso   1.00
N43    N     0.52855   0.87548   0.09043   0.00000  Uiso   1.00
N44    N     0.67960   0.37420   0.32650   0.00000  Uiso   1.00
N45    N     0.24013   0.26402   0.22340   0.00000  Uiso   1.00
N46    N     0.51194   0.77178   0.15086   0.00000  Uiso   1.00
C47    C     0.75051   0.57908   0.83450   0.00000  Uiso   1.00
C48    C     0.71292   0.50093   0.87634   0.00000  Uiso   1.00
C49    C     0.62353   0.38671   0.87786   0.00000  Uiso   1.00
C50    C     0.60270   0.33002   0.91939   0.00000  Uiso   1.00
C51    C     0.53420   0.20023   0.97849   0.00000  Uiso   1.00
C52    C     0.74327   0.68577   0.84793   0.00000  Uiso   1.00
C53    C     0.67941   0.72698   0.82556   0.00000  Uiso   1.00
C54    C     0.68414   0.82590   0.84317   0.00000  Uiso   1.00
C55    C     0.66283   0.98313   0.85814   0.00000  Uiso   1.00
C56    C     0.87892   0.62073   0.82794   0.00000  Uiso   1.00
C57    C     0.92914   0.60727   0.78876   0.00000  Uiso   1.00
C58    C     0.04808   0.65146   0.78954   0.00000  Uiso   1.00
C59    C     0.23740   0.70770   0.77347   0.00000  Uiso   1.00
C60    C     0.87247   0.68151   0.90557   0.00000  Uiso   1.00
C61    C     0.77916   0.55657   0.91494   0.00000  Uiso   1.00
C62    C     0.75846   0.50004   0.95649   0.00000  Uiso   1.00
C63    C     0.66906   0.38575   0.95806   0.00000  Uiso   1.00
C64    C     0.80950   0.74141   0.88653   0.00000  Uiso   1.00
C65    C     0.81434   0.84030   0.90418   0.00000  Uiso   1.00
C66    C     0.75050   0.88163   0.88184   0.00000  Uiso   1.00
C67    C     0.94516   0.67636   0.86654   0.00000  Uiso   1.00
C68    C     0.06406   0.72059   0.86739   0.00000  Uiso   1.00
C69    C     0.11444   0.70719   0.82821   0.00000  Uiso   1.00
H70    H     0.69894   0.53577   0.80445   0.00000  Uiso   1.00
H71    H     0.57228   0.34369   0.84798   0.00000  Uiso   1.00
H72    H     0.62817   0.68391   0.79568   0.00000  Uiso   1.00
H73    H     0.87785   0.56422   0.75889   0.00000  Uiso   1.00
H74    H     0.46104   0.15529   0.91326   0.00000  Uiso   1.00
H75    H     0.57890   0.87267   0.80298   0.00000  Uiso   1.00
H76    H     0.10541   0.62028   0.72540   0.00000  Uiso   1.00
H77    H     0.92404   0.72482   0.93562   0.00000  Uiso   1.00
H78    H     0.80973   0.54311   0.98635   0.00000  Uiso   1.00
H79    H     0.86561   0.88333   0.93405   0.00000  Uiso   1.00
H80    H     0.11529   0.76364   0.89726   0.00000  Uiso   1.00
H81    H     0.65376   0.31714   0.02557   0.00000  Uiso   1.00
H82    H     0.77163   0.03454   0.91529   0.00000  Uiso   1.00
H83    H     0.29813   0.78214   0.83771   0.00000  Uiso   1.00
O84    O     0.47812   0.11328   0.00042   0.00000  Uiso   1.00
O85    O     0.63277   0.05448   0.85574   0.00000  Uiso   1.00
O86    O     0.32353   0.72334   0.75395   0.00000  Uiso   1.00
N87    N     0.52210   0.21831   0.93273   0.00000  Uiso   1.00
N88    N     0.63228   0.88901   0.82963   0.00000  Uiso   1.00
N89    N     0.12452   0.65307   0.75709   0.00000  Uiso   1.00
N90    N     0.62580   0.30540   0.99316   0.00000  Uiso   1.00
N91    N     0.73598   0.97611   0.89006   0.00000  Uiso   1.00
N92    N     0.22822   0.74017   0.81752   0.00000  Uiso   1.00
C93    C     0.42092   0.17143   0.50117   0.00000  Uiso   1.00
C94    C     0.49907   0.21199   0.54301   0.00000  Uiso   1.00
C95    C     0.61329   0.23682   0.54452   0.00000  Uiso   1.00
C96    C     0.66998   0.27267   0.58606   0.00000  Uiso   1.00
C97    C     0.79977   0.33397   0.64515   0.00000  Uiso   1.00
C98    C     0.31423   0.05749   0.51460   0.00000  Uiso   1.00
C99    C     0.27302   0.95243   0.49222   0.00000  Uiso   1.00
C100   C     0.17410   0.85824   0.50984   0.00000  Uiso   1.00
C101   C     0.01687   0.67971   0.52481   0.00000  Uiso   1.00
C102   C     0.37927   0.25819   0.49461   0.00000  Uiso   1.00
C103   C     0.39273   0.32186   0.45542   0.00000  Uiso   1.00
C104   C     0.34854   0.39663   0.45621   0.00000  Uiso   1.00
C105   C     0.29230   0.52970   0.44014   0.00000  Uiso   1.00
C106   C     0.31849   0.19096   0.57224   0.00000  Uiso   1.00
C107   C     0.44343   0.22259   0.58161   0.00000  Uiso   1.00
C108   C     0.49996   0.25842   0.62315   0.00000  Uiso   1.00
C109   C     0.61425   0.28330   0.62473   0.00000  Uiso   1.00
C110   C     0.25859   0.06809   0.55320   0.00000  Uiso   1.00
C111   C     0.15970   0.97404   0.57085   0.00000  Uiso   1.00
C112   C     0.11837   0.86886   0.54851   0.00000  Uiso   1.00
C113   C     0.32364   0.26880   0.53321   0.00000  Uiso   1.00
C114   C     0.27941   0.34347   0.53405   0.00000  Uiso   1.00
C115   C     0.29281   0.40725   0.49488   0.00000  Uiso   1.00
H116   H     0.46423   0.16317   0.47112   0.00000  Uiso   1.00
H117   H     0.65631   0.22859   0.51464   0.00000  Uiso   1.00
H118   H     0.31609   0.94426   0.46235   0.00000  Uiso   1.00
H119   H     0.43578   0.31363   0.42556   0.00000  Uiso   1.00
H120   H     0.84471   0.30575   0.57993   0.00000  Uiso   1.00
H121   H     0.12733   0.70623   0.46965   0.00000  Uiso   1.00
H122   H     0.37972   0.48513   0.39207   0.00000  Uiso   1.00
H123   H     0.27518   0.19921   0.60229   0.00000  Uiso   1.00
H124   H     0.45689   0.26662   0.65302   0.00000  Uiso   1.00
H125   H     0.11667   0.98228   0.60072   0.00000  Uiso   1.00
H126   H     0.23636   0.35166   0.56393   0.00000  Uiso   1.00
H127   H     0.68286   0.33661   0.69224   0.00000  Uiso   1.00
H128   H     0.96546   0.73709   0.58196   0.00000  Uiso   1.00
H129   H     0.21786   0.51599   0.50438   0.00000  Uiso   1.00
O130   O     0.88672   0.36484   0.66709   0.00000  Uiso   1.00
O131   O     0.94552   0.57829   0.52240   0.00000  Uiso   1.00
O132   O     0.27666   0.60019   0.42062   0.00000  Uiso   1.00
N133   N     0.78169   0.30379   0.59940   0.00000  Uiso   1.00
N134   N     0.11099   0.74327   0.49630   0.00000  Uiso   1.00
N135   N     0.34693   0.47145   0.42376   0.00000  Uiso   1.00
N136   N     0.69460   0.32040   0.65983   0.00000  Uiso   1.00
N137   N     0.02389   0.75987   0.55673   0.00000  Uiso   1.00
N138   N     0.25983   0.48806   0.48419   0.00000  Uiso   1.00
C139   C     0.17143   0.75051   0.16784   0.00000  Uiso   1.00
C140   C     0.21199   0.71292   0.20968   0.00000  Uiso   1.00
C141   C     0.23682   0.62353   0.21119   0.00000  Uiso   1.00
C142   C     0.27267   0.60270   0.25272   0.00000  Uiso   1.00
C143   C     0.33397   0.53420   0.31182   0.00000  Uiso   1.00
C144   C     0.05749   0.74327   0.18127   0.00000  Uiso   1.00
C145   C     0.95243   0.67941   0.15889   0.00000  Uiso   1.00
C146   C     0.85824   0.68414   0.17651   0.00000  Uiso   1.00
C147   C     0.67971   0.66283   0.19147   0.00000  Uiso   1.00
C148   C     0.25819   0.87892   0.16128   0.00000  Uiso   1.00
C149   C     0.32186   0.92914   0.12209   0.00000  Uiso   1.00
C150   C     0.39663   0.04808   0.12287   0.00000  Uiso   1.00
C151   C     0.52970   0.23740   0.10681   0.00000  Uiso   1.00
C152   C     0.19096   0.87247   0.23890   0.00000  Uiso   1.00
C153   C     0.22259   0.77916   0.24828   0.00000  Uiso   1.00
C154   C     0.25842   0.75846   0.28982   0.00000  Uiso   1.00
C155   C     0.28330   0.66906   0.29140   0.00000  Uiso   1.00
C156   C     0.06809   0.80950   0.21986   0.00000  Uiso   1.00
C157   C     0.97404   0.81434   0.23752   0.00000  Uiso   1.00
C158   C     0.86886   0.75050   0.21518   0.00000  Uiso   1.00
C159   C     0.26880   0.94516   0.19988   0.00000  Uiso   1.00
C160   C     0.34347   0.06406   0.20072   0.00000  Uiso   1.00
C161   C     0.40725   0.11444   0.16154   0.00000  Uiso   1.00
H162   H     0.16317   0.69894   0.13779   0.00000  Uiso   1.00
H163   H     0.22859   0.57228   0.18131   0.00000  Uiso   1.00
H164   H     0.94426   0.62817   0.12902   0.00000  Uiso   1.00
H165   H     0.31363   0.87785   0.09222   0.00000  Uiso   1.00
H166   H     0.30575   0.46104   0.24660   0.00000  Uiso   1.00
H167   H     0.70623   0.57890   0.13632   0.00000  Uiso   1.00
H168   H     0.48513   0.10541   0.05873   0.00000  Uiso   1.00
H169   H     0.19921   0.92404   0.26896   0.00000  Uiso   1.00
H170   H     0.26662   0.80973   0.31968   0.00000  Uiso   1.00
H171   H     0.98228   0.86561   0.26739   0.00000  Uiso   1.00
H172   H     0.35166   0.11529   0.23060   0.00000  Uiso   1.00
H173   H     0.33661   0.65376   0.35890   0.00000  Uiso   1.00
H174   H     0.73709   0.77163   0.24862   0.00000  Uiso   1.00
H175   H     0.51599   0.29813   0.17104   0.00000  Uiso   1.00
O176   O     0.36484   0.47812   0.33376   0.00000  Uiso   1.00
O177   O     0.57829   0.63277   0.18907   0.00000  Uiso   1.00
O178   O     0.60019   0.32353   0.08728   0.00000  Uiso   1.00
N179   N     0.30379   0.52210   0.26606   0.00000  Uiso   1.00
N180   N     0.74327   0.63228   0.16296   0.00000  Uiso   1.00
N181   N     0.47145   0.12452   0.09043   0.00000  Uiso   1.00
N182   N     0.32040   0.62580   0.32650   0.00000  Uiso   1.00
N183   N     0.75987   0.73598   0.22340   0.00000  Uiso   1.00
N184   N     0.48806   0.22822   0.15086   0.00000  Uiso   1.00
C185   C     0.24949   0.42092   0.83450   0.00000  Uiso   1.00
C186   C     0.28708   0.49907   0.87634   0.00000  Uiso   1.00
C187   C     0.37647   0.61329   0.87786   0.00000  Uiso   1.00
C188   C     0.39730   0.66998   0.91939   0.00000  Uiso   1.00
C189   C     0.46580   0.79977   0.97849   0.00000  Uiso   1.00
C190   C     0.25673   0.31423   0.84793   0.00000  Uiso   1.00
C191   C     0.32059   0.27302   0.82556   0.00000  Uiso   1.00
C192   C     0.31586   0.17410   0.84317   0.00000  Uiso   1.00
C193   C     0.33717   0.01687   0.85814   0.00000  Uiso   1.00
C194   C     0.12108   0.37927   0.82794   0.00000  Uiso   1.00
C195   C     0.07086   0.39273   0.78876   0.00000  Uiso   1.00
C196   C     0.95192   0.34854   0.78954   0.00000  Uiso   1.00
C197   C     0.76260   0.29230   0.77347   0.00000  Uiso   1.00
C198   C     0.12753   0.31849   0.90557   0.00000  Uiso   1.00
C199   C     0.22084   0.44343   0.91494   0.00000  Uiso   1.00
C200   C     0.24154   0.49996   0.95649   0.00000  Uiso   1.00
C201   C     0.33094   0.61425   0.95806   0.00000  Uiso   1.00
C202   C     0.19050   0.25859   0.88653   0.00000  Uiso   1.00
C203   C     0.18566   0.15970   0.90418   0.00000  Uiso   1.00
C204   C     0.24950   0.11837   0.88184   0.00000  Uiso   1.00
C205   C     0.05484   0.32364   0.86654   0.00000  Uiso   1.00
C206   C     0.93594   0.27941   0.86739   0.00000  Uiso   1.00
C207   C     0.88556   0.29281   0.82821   0.00000  Uiso   1.00
H208   H     0.30106   0.46423   0.80445   0.00000  Uiso   1.00
H209   H     0.42772   0.65631   0.84798   0.00000  Uiso   1.00
H210   H     0.37183   0.31609   0.79568   0.00000  Uiso   1.00
H211   H     0.12215   0.43578   0.75889   0.00000  Uiso   1.00
H212   H     0.53896   0.84471   0.91326   0.00000  Uiso   1.00
H213   H     0.42110   0.12733   0.80298   0.00000  Uiso   1.00
H214   H     0.89459   0.37972   0.72540   0.00000  Uiso   1.00
H215   H     0.07596   0.27518   0.93562   0.00000  Uiso   1.00
H216   H     0.19027   0.45689   0.98635   0.00000  Uiso   1.00
H217   H     0.13439   0.11667   0.93405   0.00000  Uiso   1.00
H218   H     0.88471   0.23636   0.89726   0.00000  Uiso   1.00
H219   H     0.34624   0.68286   0.02557   0.00000  Uiso   1.00
H220   H     0.22837   0.96546   0.91529   0.00000  Uiso   1.00
H221   H     0.70187   0.21786   0.83771   0.00000  Uiso   1.00
O222   O     0.52188   0.88672   0.00042   0.00000  Uiso   1.00
O223   O     0.36723   0.94552   0.85574   0.00000  Uiso   1.00
O224   O     0.67647   0.27666   0.75395   0.00000  Uiso   1.00
N225   N     0.47790   0.78169   0.93273   0.00000  Uiso   1.00
N226   N     0.36772   0.11099   0.82963   0.00000  Uiso   1.00
N227   N     0.87548   0.34693   0.75709   0.00000  Uiso   1.00
N228   N     0.37420   0.69460   0.99316   0.00000  Uiso   1.00
N229   N     0.26402   0.02389   0.89006   0.00000  Uiso   1.00
N230   N     0.77178   0.25983   0.81752   0.00000  Uiso   1.00
C231   C     0.57908   0.82857   0.50117   0.00000  Uiso   1.00
C232   C     0.50093   0.78801   0.54301   0.00000  Uiso   1.00
C233   C     0.38671   0.76318   0.54452   0.00000  Uiso   1.00
C234   C     0.33002   0.72733   0.58606   0.00000  Uiso   1.00
C235   C     0.20023   0.66603   0.64515   0.00000  Uiso   1.00
C236   C     0.68577   0.94251   0.51460   0.00000  Uiso   1.00
C237   C     0.72698   0.04757   0.49222   0.00000  Uiso   1.00
C238   C     0.82590   0.14176   0.50984   0.00000  Uiso   1.00
C239   C     0.98313   0.32029   0.52481   0.00000  Uiso   1.00
C240   C     0.62073   0.74181   0.49461   0.00000  Uiso   1.00
C241   C     0.60727   0.67814   0.45542   0.00000  Uiso   1.00
C242   C     0.65146   0.60337   0.45621   0.00000  Uiso   1.00
C243   C     0.70770   0.47030   0.44014   0.00000  Uiso   1.00
C244   C     0.68151   0.80904   0.57224   0.00000  Uiso   1.00
C245   C     0.55657   0.77741   0.58161   0.00000  Uiso   1.00
C246   C     0.50004   0.74158   0.62315   0.00000  Uiso   1.00
C247   C     0.38575   0.71670   0.62473   0.00000  Uiso   1.00
C248   C     0.74141   0.93191   0.55320   0.00000  Uiso   1.00
C249   C     0.84030   0.02596   0.57085   0.00000  Uiso   1.00
C250   C     0.88163   0.13114   0.54851   0.00000  Uiso   1.00
C251   C     0.67636   0.73120   0.53321   0.00000  Uiso   1.00
C252   C     0.72059   0.65653   0.53405   0.00000  Uiso   1.00
C253   C     0.70719   0.59275   0.49488   0.00000  Uiso   1.00
H254   H     0.53577   0.83683   0.47112   0.00000  Uiso   1.00
H255   H     0.34369   0.77141   0.51464   0.00000  Uiso   1.00
H256   H     0.68391   0.05574   0.46235   0.00000  Uiso   1.00
H257   H     0.56422   0.68637   0.42556   0.00000  Uiso   1.00
H258   H     0.15529   0.69425   0.57993   0.00000  Uiso   1.00
H259   H     0.87267   0.29377   0.46965   0.00000  Uiso   1.00
H260   H     0.62028   0.51487   0.39207   0.00000  Uiso   1.00
H261   H     0.72482   0.80079   0.60229   0.00000  Uiso   1.00
H262   H     0.54311   0.73338   0.65302   0.00000  Uiso   1.00
H263   H     0.88333   0.01772   0.60072   0.00000  Uiso   1.00
H264   H     0.76364   0.64834   0.56393   0.00000  Uiso   1.00
H265   H     0.31714   0.66339   0.69224   0.00000  Uiso   1.00
H266   H     0.03454   0.26291   0.58196   0.00000  Uiso   1.00
H267   H     0.78214   0.48401   0.50438   0.00000  Uiso   1.00
O268   O     0.11328   0.63516   0.66709   0.00000  Uiso   1.00
O269   O     0.05448   0.42171   0.52240   0.00000  Uiso   1.00
O270   O     0.72334   0.39981   0.42062   0.00000  Uiso   1.00
N271   N     0.21831   0.69621   0.59940   0.00000  Uiso   1.00
N272   N     0.88901   0.25673   0.49630   0.00000  Uiso   1.00
N273   N     0.65307   0.52855   0.42376   0.00000  Uiso   1.00
N274   N     0.30540   0.67960   0.65983   0.00000  Uiso   1.00
N275   N     0.97611   0.24013   0.55673   0.00000  Uiso   1.00
N276   N     0.74017   0.51194   0.48419   0.00000  Uiso   1.00
