data_job_03817
_audit_creation_date              2018-12-19
_audit_creation_method            'Materials Studio'
_symmetry_space_group_name_H-M    'P1'
_symmetry_Int_Tables_number       1
_symmetry_cell_setting            triclinic
loop_
_symmetry_equiv_pos_as_xyz
  x,y,z
_cell_length_a                    24.1082
_cell_length_b                    10.5444
_cell_length_c                    24.9530
_cell_angle_alpha                 90.0000
_cell_angle_beta                  90.0000
_cell_angle_gamma                 90.0000
loop_
_atom_site_label
_atom_site_type_symbol
_atom_site_fract_x
_atom_site_fract_y
_atom_site_fract_z
_atom_site_U_iso_or_equiv
_atom_site_adp_type
_atom_site_occupancy
C1     C     0.37207   0.49348   0.91880   0.00000  Uiso   1.00
C2     C     0.38057   0.35104   0.92548   0.00000  Uiso   1.00
C3     C     0.36953   0.28164   0.97151   0.00000  Uiso   1.00
C4     C     0.38010   0.15229   0.96956   0.00000  Uiso   1.00
C5     C     0.39015   0.93992   0.98698   0.00000  Uiso   1.00
C6     C     0.42814   0.54708   0.90185   0.00000  Uiso   1.00
C7     C     0.45709   0.64250   0.92802   0.00000  Uiso   1.00
C8     C     0.50771   0.67818   0.90617   0.00000  Uiso   1.00
C9     C     0.59159   0.77022   0.88690   0.00000  Uiso   1.00
C10    C     0.33383   0.50948   0.87060   0.00000  Uiso   1.00
C11    C     0.28349   0.57333   0.87049   0.00000  Uiso   1.00
C12    C     0.25470   0.57737   0.82232   0.00000  Uiso   1.00
C13    C     0.19215   0.61103   0.75452   0.00000  Uiso   1.00
C14    C     0.41047   0.38718   0.83347   0.00000  Uiso   1.00
C15    C     0.40143   0.29331   0.87913   0.00000  Uiso   1.00
C16    C     0.41202   0.16403   0.87710   0.00000  Uiso   1.00
C17    C     0.40100   0.09445   0.92313   0.00000  Uiso   1.00
C18    C     0.44900   0.48934   0.85551   0.00000  Uiso   1.00
C19    C     0.49958   0.52489   0.83361   0.00000  Uiso   1.00
C20    C     0.52861   0.62034   0.85974   0.00000  Uiso   1.00
C21    C     0.35468   0.45174   0.82425   0.00000  Uiso   1.00
C22    C     0.32598   0.45570   0.77607   0.00000  Uiso   1.00
C23    C     0.27560   0.51953   0.77589   0.00000  Uiso   1.00
H24    H     0.35583   0.53844   0.95489   0.00000  Uiso   1.00
H25    H     0.35339   0.32636   0.00738   0.00000  Uiso   1.00
H26    H     0.44094   0.68718   0.96389   0.00000  Uiso   1.00
H27    H     0.26736   0.61799   0.90636   0.00000  Uiso   1.00
H28    H     0.35990   0.06578   0.04514   0.00000  Uiso   1.00
H29    H     0.54449   0.82661   0.95343   0.00000  Uiso   1.00
H30    H     0.17846   0.68073   0.83212   0.00000  Uiso   1.00
H31    H     0.42671   0.34223   0.79738   0.00000  Uiso   1.00
H32    H     0.42816   0.11937   0.84123   0.00000  Uiso   1.00
H33    H     0.51571   0.48019   0.79774   0.00000  Uiso   1.00
H34    H     0.34213   0.41101   0.74021   0.00000  Uiso   1.00
H35    H     0.42059   0.89778   0.91029   0.00000  Uiso   1.00
H36    H     0.60518   0.65862   0.81857   0.00000  Uiso   1.00
H37    H     0.23915   0.51273   0.69727   0.00000  Uiso   1.00
O38    O     0.38994   0.83873   0.00940   0.00000  Uiso   1.00
O39    O     0.63210   0.83692   0.88908   0.00000  Uiso   1.00
O40    O     0.15188   0.64553   0.72993   0.00000  Uiso   1.00
N41    N     0.37398   0.05682   0.00738   0.00000  Uiso   1.00
N42    N     0.54656   0.76813   0.92164   0.00000  Uiso   1.00
N43    N     0.20436   0.63178   0.80823   0.00000  Uiso   1.00
N44    N     0.40663   0.96642   0.93482   0.00000  Uiso   1.00
N45    N     0.57922   0.67774   0.84908   0.00000  Uiso   1.00
N46    N     0.23702   0.54139   0.73566   0.00000  Uiso   1.00
C47    C     0.12793   0.50652   0.41880   0.00000  Uiso   1.00
C48    C     0.11943   0.64896   0.42548   0.00000  Uiso   1.00
C49    C     0.13047   0.71836   0.47151   0.00000  Uiso   1.00
C50    C     0.11990   0.84771   0.46956   0.00000  Uiso   1.00
C51    C     0.10985   0.06008   0.48698   0.00000  Uiso   1.00
C52    C     0.07186   0.45292   0.40185   0.00000  Uiso   1.00
C53    C     0.04291   0.35750   0.42802   0.00000  Uiso   1.00
C54    C     0.99229   0.32182   0.40617   0.00000  Uiso   1.00
C55    C     0.90841   0.22978   0.38690   0.00000  Uiso   1.00
C56    C     0.16617   0.49052   0.37060   0.00000  Uiso   1.00
C57    C     0.21651   0.42667   0.37049   0.00000  Uiso   1.00
C58    C     0.24530   0.42263   0.32232   0.00000  Uiso   1.00
C59    C     0.30785   0.38897   0.25452   0.00000  Uiso   1.00
C60    C     0.08953   0.61282   0.33347   0.00000  Uiso   1.00
C61    C     0.09857   0.70669   0.37913   0.00000  Uiso   1.00
C62    C     0.08798   0.83597   0.37710   0.00000  Uiso   1.00
C63    C     0.09900   0.90555   0.42313   0.00000  Uiso   1.00
C64    C     0.05100   0.51066   0.35551   0.00000  Uiso   1.00
C65    C     0.00042   0.47511   0.33361   0.00000  Uiso   1.00
C66    C     0.97139   0.37966   0.35974   0.00000  Uiso   1.00
C67    C     0.14532   0.54826   0.32425   0.00000  Uiso   1.00
C68    C     0.17402   0.54430   0.27607   0.00000  Uiso   1.00
C69    C     0.22440   0.48047   0.27589   0.00000  Uiso   1.00
H70    H     0.14417   0.46156   0.45489   0.00000  Uiso   1.00
H71    H     0.14661   0.67364   0.50738   0.00000  Uiso   1.00
H72    H     0.05906   0.31282   0.46389   0.00000  Uiso   1.00
H73    H     0.23264   0.38201   0.40636   0.00000  Uiso   1.00
H74    H     0.14010   0.93422   0.54514   0.00000  Uiso   1.00
H75    H     0.95551   0.17339   0.45343   0.00000  Uiso   1.00
H76    H     0.32154   0.31927   0.33212   0.00000  Uiso   1.00
H77    H     0.07329   0.65777   0.29738   0.00000  Uiso   1.00
H78    H     0.07184   0.88063   0.34123   0.00000  Uiso   1.00
H79    H     0.98429   0.51981   0.29774   0.00000  Uiso   1.00
H80    H     0.15787   0.58899   0.24021   0.00000  Uiso   1.00
H81    H     0.07941   0.10222   0.41029   0.00000  Uiso   1.00
H82    H     0.89482   0.34138   0.31857   0.00000  Uiso   1.00
H83    H     0.26085   0.48727   0.19727   0.00000  Uiso   1.00
O84    O     0.11006   0.16127   0.50940   0.00000  Uiso   1.00
O85    O     0.86790   0.16308   0.38908   0.00000  Uiso   1.00
O86    O     0.34812   0.35447   0.22993   0.00000  Uiso   1.00
N87    N     0.12602   0.94318   0.50738   0.00000  Uiso   1.00
N88    N     0.95344   0.23187   0.42164   0.00000  Uiso   1.00
N89    N     0.29564   0.36822   0.30823   0.00000  Uiso   1.00
N90    N     0.09337   0.03358   0.43482   0.00000  Uiso   1.00
N91    N     0.92078   0.32226   0.34908   0.00000  Uiso   1.00
N92    N     0.26298   0.45861   0.23566   0.00000  Uiso   1.00
C93    C     0.62793   0.99348   0.58120   0.00000  Uiso   1.00
C94    C     0.61943   0.85104   0.57452   0.00000  Uiso   1.00
C95    C     0.63047   0.78164   0.52849   0.00000  Uiso   1.00
C96    C     0.61990   0.65229   0.53044   0.00000  Uiso   1.00
C97    C     0.60985   0.43992   0.51302   0.00000  Uiso   1.00
C98    C     0.57186   0.04708   0.59815   0.00000  Uiso   1.00
C99    C     0.54291   0.14250   0.57198   0.00000  Uiso   1.00
C100   C     0.49229   0.17818   0.59383   0.00000  Uiso   1.00
C101   C     0.40841   0.27022   0.61310   0.00000  Uiso   1.00
C102   C     0.66617   0.00948   0.62940   0.00000  Uiso   1.00
C103   C     0.71651   0.07333   0.62951   0.00000  Uiso   1.00
C104   C     0.74530   0.07737   0.67768   0.00000  Uiso   1.00
C105   C     0.80785   0.11103   0.74548   0.00000  Uiso   1.00
C106   C     0.58953   0.88718   0.66653   0.00000  Uiso   1.00
C107   C     0.59857   0.79331   0.62087   0.00000  Uiso   1.00
C108   C     0.58798   0.66403   0.62290   0.00000  Uiso   1.00
C109   C     0.59900   0.59445   0.57687   0.00000  Uiso   1.00
C110   C     0.55100   0.98934   0.64449   0.00000  Uiso   1.00
C111   C     0.50042   0.02489   0.66639   0.00000  Uiso   1.00
C112   C     0.47139   0.12034   0.64026   0.00000  Uiso   1.00
C113   C     0.64532   0.95174   0.67575   0.00000  Uiso   1.00
C114   C     0.67402   0.95570   0.72393   0.00000  Uiso   1.00
C115   C     0.72440   0.01953   0.72411   0.00000  Uiso   1.00
H116   H     0.64417   0.03844   0.54511   0.00000  Uiso   1.00
H117   H     0.64661   0.82636   0.49262   0.00000  Uiso   1.00
H118   H     0.55906   0.18718   0.53611   0.00000  Uiso   1.00
H119   H     0.73264   0.11799   0.59364   0.00000  Uiso   1.00
H120   H     0.64010   0.56578   0.45486   0.00000  Uiso   1.00
H121   H     0.45551   0.32661   0.54657   0.00000  Uiso   1.00
H122   H     0.82154   0.18073   0.66788   0.00000  Uiso   1.00
H123   H     0.57329   0.84223   0.70262   0.00000  Uiso   1.00
H124   H     0.57184   0.61937   0.65877   0.00000  Uiso   1.00
H125   H     0.48429   0.98019   0.70226   0.00000  Uiso   1.00
H126   H     0.65787   0.91101   0.75979   0.00000  Uiso   1.00
H127   H     0.57941   0.39778   0.58971   0.00000  Uiso   1.00
H128   H     0.39482   0.15862   0.68143   0.00000  Uiso   1.00
H129   H     0.76085   0.01273   0.80273   0.00000  Uiso   1.00
O130   O     0.61006   0.33873   0.49060   0.00000  Uiso   1.00
O131   O     0.36790   0.33692   0.61092   0.00000  Uiso   1.00
O132   O     0.84812   0.14553   0.77007   0.00000  Uiso   1.00
N133   N     0.62602   0.55682   0.49262   0.00000  Uiso   1.00
N134   N     0.45344   0.26813   0.57836   0.00000  Uiso   1.00
N135   N     0.79564   0.13178   0.69177   0.00000  Uiso   1.00
N136   N     0.59337   0.46642   0.56518   0.00000  Uiso   1.00
N137   N     0.42078   0.17774   0.65092   0.00000  Uiso   1.00
N138   N     0.76298   0.04139   0.76434   0.00000  Uiso   1.00
C139   C     0.87207   0.00652   0.08120   0.00000  Uiso   1.00
C140   C     0.88057   0.14896   0.07452   0.00000  Uiso   1.00
C141   C     0.86953   0.21836   0.02849   0.00000  Uiso   1.00
C142   C     0.88010   0.34771   0.03044   0.00000  Uiso   1.00
C143   C     0.89015   0.56008   0.01302   0.00000  Uiso   1.00
C144   C     0.92814   0.95292   0.09815   0.00000  Uiso   1.00
C145   C     0.95709   0.85750   0.07198   0.00000  Uiso   1.00
C146   C     0.00771   0.82182   0.09383   0.00000  Uiso   1.00
C147   C     0.09159   0.72978   0.11310   0.00000  Uiso   1.00
C148   C     0.83383   0.99052   0.12940   0.00000  Uiso   1.00
C149   C     0.78349   0.92667   0.12951   0.00000  Uiso   1.00
C150   C     0.75470   0.92263   0.17768   0.00000  Uiso   1.00
C151   C     0.69215   0.88897   0.24548   0.00000  Uiso   1.00
C152   C     0.91047   0.11282   0.16653   0.00000  Uiso   1.00
C153   C     0.90143   0.20669   0.12087   0.00000  Uiso   1.00
C154   C     0.91202   0.33597   0.12290   0.00000  Uiso   1.00
C155   C     0.90100   0.40555   0.07687   0.00000  Uiso   1.00
C156   C     0.94900   0.01066   0.14449   0.00000  Uiso   1.00
C157   C     0.99958   0.97511   0.16639   0.00000  Uiso   1.00
C158   C     0.02861   0.87966   0.14026   0.00000  Uiso   1.00
C159   C     0.85468   0.04826   0.17575   0.00000  Uiso   1.00
C160   C     0.82598   0.04430   0.22393   0.00000  Uiso   1.00
C161   C     0.77560   0.98047   0.22411   0.00000  Uiso   1.00
H162   H     0.85583   0.96156   0.04511   0.00000  Uiso   1.00
H163   H     0.85339   0.17364   0.99262   0.00000  Uiso   1.00
H164   H     0.94094   0.81282   0.03611   0.00000  Uiso   1.00
H165   H     0.76736   0.88201   0.09364   0.00000  Uiso   1.00
H166   H     0.85990   0.43422   0.95486   0.00000  Uiso   1.00
H167   H     0.04449   0.67339   0.04657   0.00000  Uiso   1.00
H168   H     0.67846   0.81927   0.16788   0.00000  Uiso   1.00
H169   H     0.92671   0.15777   0.20262   0.00000  Uiso   1.00
H170   H     0.92816   0.38063   0.15877   0.00000  Uiso   1.00
H171   H     0.01571   0.01981   0.20226   0.00000  Uiso   1.00
H172   H     0.84213   0.08899   0.25979   0.00000  Uiso   1.00
H173   H     0.92059   0.60222   0.08971   0.00000  Uiso   1.00
H174   H     0.10518   0.84138   0.18143   0.00000  Uiso   1.00
H175   H     0.73915   0.98727   0.30273   0.00000  Uiso   1.00
O176   O     0.88994   0.66127   0.99060   0.00000  Uiso   1.00
O177   O     0.13210   0.66308   0.11092   0.00000  Uiso   1.00
O178   O     0.65188   0.85447   0.27007   0.00000  Uiso   1.00
N179   N     0.87398   0.44318   0.99262   0.00000  Uiso   1.00
N180   N     0.04656   0.73187   0.07836   0.00000  Uiso   1.00
N181   N     0.70436   0.86822   0.19177   0.00000  Uiso   1.00
N182   N     0.90663   0.53358   0.06518   0.00000  Uiso   1.00
N183   N     0.07922   0.82226   0.15092   0.00000  Uiso   1.00
N184   N     0.73702   0.95861   0.26434   0.00000  Uiso   1.00
C185   C     0.62793   0.50652   0.08120   0.00000  Uiso   1.00
C186   C     0.61943   0.64896   0.07452   0.00000  Uiso   1.00
C187   C     0.63047   0.71836   0.02849   0.00000  Uiso   1.00
C188   C     0.61990   0.84771   0.03044   0.00000  Uiso   1.00
C189   C     0.60985   0.06008   0.01302   0.00000  Uiso   1.00
C190   C     0.57186   0.45292   0.09815   0.00000  Uiso   1.00
C191   C     0.54291   0.35750   0.07198   0.00000  Uiso   1.00
C192   C     0.49229   0.32182   0.09383   0.00000  Uiso   1.00
C193   C     0.40841   0.22978   0.11310   0.00000  Uiso   1.00
C194   C     0.66617   0.49052   0.12940   0.00000  Uiso   1.00
C195   C     0.71651   0.42667   0.12951   0.00000  Uiso   1.00
C196   C     0.74530   0.42263   0.17768   0.00000  Uiso   1.00
C197   C     0.80785   0.38897   0.24548   0.00000  Uiso   1.00
C198   C     0.58953   0.61282   0.16653   0.00000  Uiso   1.00
C199   C     0.59857   0.70669   0.12087   0.00000  Uiso   1.00
C200   C     0.58798   0.83597   0.12290   0.00000  Uiso   1.00
C201   C     0.59900   0.90555   0.07687   0.00000  Uiso   1.00
C202   C     0.55100   0.51066   0.14449   0.00000  Uiso   1.00
C203   C     0.50042   0.47511   0.16639   0.00000  Uiso   1.00
C204   C     0.47139   0.37966   0.14026   0.00000  Uiso   1.00
C205   C     0.64532   0.54826   0.17575   0.00000  Uiso   1.00
C206   C     0.67402   0.54430   0.22393   0.00000  Uiso   1.00
C207   C     0.72440   0.48047   0.22411   0.00000  Uiso   1.00
H208   H     0.64417   0.46156   0.04511   0.00000  Uiso   1.00
H209   H     0.64661   0.67364   0.99262   0.00000  Uiso   1.00
H210   H     0.55906   0.31282   0.03611   0.00000  Uiso   1.00
H211   H     0.73264   0.38201   0.09364   0.00000  Uiso   1.00
H212   H     0.64010   0.93422   0.95486   0.00000  Uiso   1.00
H213   H     0.45551   0.17339   0.04657   0.00000  Uiso   1.00
H214   H     0.82154   0.31927   0.16788   0.00000  Uiso   1.00
H215   H     0.57329   0.65777   0.20262   0.00000  Uiso   1.00
H216   H     0.57184   0.88063   0.15877   0.00000  Uiso   1.00
H217   H     0.48429   0.51981   0.20226   0.00000  Uiso   1.00
H218   H     0.65787   0.58899   0.25979   0.00000  Uiso   1.00
H219   H     0.57941   0.10222   0.08971   0.00000  Uiso   1.00
H220   H     0.39482   0.34138   0.18143   0.00000  Uiso   1.00
H221   H     0.76085   0.48727   0.30273   0.00000  Uiso   1.00
O222   O     0.61006   0.16127   0.99060   0.00000  Uiso   1.00
O223   O     0.36790   0.16308   0.11092   0.00000  Uiso   1.00
O224   O     0.84812   0.35447   0.27007   0.00000  Uiso   1.00
N225   N     0.62602   0.94318   0.99262   0.00000  Uiso   1.00
N226   N     0.45344   0.23187   0.07836   0.00000  Uiso   1.00
N227   N     0.79564   0.36822   0.19177   0.00000  Uiso   1.00
N228   N     0.59337   0.03358   0.06518   0.00000  Uiso   1.00
N229   N     0.42078   0.32226   0.15092   0.00000  Uiso   1.00
N230   N     0.76298   0.45861   0.26434   0.00000  Uiso   1.00
C231   C     0.87207   0.49348   0.58120   0.00000  Uiso   1.00
C232   C     0.88057   0.35104   0.57452   0.00000  Uiso   1.00
C233   C     0.86953   0.28164   0.52849   0.00000  Uiso   1.00
C234   C     0.88010   0.15229   0.53044   0.00000  Uiso   1.00
C235   C     0.89015   0.93992   0.51302   0.00000  Uiso   1.00
C236   C     0.92814   0.54708   0.59815   0.00000  Uiso   1.00
C237   C     0.95709   0.64250   0.57198   0.00000  Uiso   1.00
C238   C     0.00771   0.67818   0.59383   0.00000  Uiso   1.00
C239   C     0.09159   0.77022   0.61310   0.00000  Uiso   1.00
C240   C     0.83383   0.50948   0.62940   0.00000  Uiso   1.00
C241   C     0.78349   0.57333   0.62951   0.00000  Uiso   1.00
C242   C     0.75470   0.57737   0.67768   0.00000  Uiso   1.00
C243   C     0.69215   0.61103   0.74548   0.00000  Uiso   1.00
C244   C     0.91047   0.38718   0.66653   0.00000  Uiso   1.00
C245   C     0.90143   0.29331   0.62087   0.00000  Uiso   1.00
C246   C     0.91202   0.16403   0.62290   0.00000  Uiso   1.00
C247   C     0.90100   0.09445   0.57687   0.00000  Uiso   1.00
C248   C     0.94900   0.48934   0.64449   0.00000  Uiso   1.00
C249   C     0.99958   0.52489   0.66639   0.00000  Uiso   1.00
C250   C     0.02861   0.62034   0.64026   0.00000  Uiso   1.00
C251   C     0.85468   0.45174   0.67575   0.00000  Uiso   1.00
C252   C     0.82598   0.45570   0.72393   0.00000  Uiso   1.00
C253   C     0.77560   0.51953   0.72411   0.00000  Uiso   1.00
H254   H     0.85583   0.53844   0.54511   0.00000  Uiso   1.00
H255   H     0.85339   0.32636   0.49262   0.00000  Uiso   1.00
H256   H     0.94094   0.68718   0.53611   0.00000  Uiso   1.00
H257   H     0.76736   0.61799   0.59364   0.00000  Uiso   1.00
H258   H     0.85990   0.06578   0.45486   0.00000  Uiso   1.00
H259   H     0.04449   0.82661   0.54657   0.00000  Uiso   1.00
H260   H     0.67846   0.68073   0.66788   0.00000  Uiso   1.00
H261   H     0.92671   0.34223   0.70262   0.00000  Uiso   1.00
H262   H     0.92816   0.11937   0.65877   0.00000  Uiso   1.00
H263   H     0.01571   0.48019   0.70226   0.00000  Uiso   1.00
H264   H     0.84213   0.41101   0.75979   0.00000  Uiso   1.00
H265   H     0.92059   0.89778   0.58971   0.00000  Uiso   1.00
H266   H     0.10518   0.65862   0.68143   0.00000  Uiso   1.00
H267   H     0.73915   0.51273   0.80273   0.00000  Uiso   1.00
O268   O     0.88994   0.83873   0.49060   0.00000  Uiso   1.00
O269   O     0.13210   0.83692   0.61092   0.00000  Uiso   1.00
O270   O     0.65188   0.64553   0.77007   0.00000  Uiso   1.00
N271   N     0.87398   0.05682   0.49262   0.00000  Uiso   1.00
N272   N     0.04656   0.76813   0.57836   0.00000  Uiso   1.00
N273   N     0.70436   0.63178   0.69177   0.00000  Uiso   1.00
N274   N     0.90663   0.96642   0.56518   0.00000  Uiso   1.00
N275   N     0.07922   0.67774   0.65092   0.00000  Uiso   1.00
N276   N     0.73702   0.54139   0.76434   0.00000  Uiso   1.00
C277   C     0.37207   0.00652   0.41880   0.00000  Uiso   1.00
C278   C     0.38057   0.14896   0.42548   0.00000  Uiso   1.00
C279   C     0.36953   0.21836   0.47151   0.00000  Uiso   1.00
C280   C     0.38010   0.34771   0.46956   0.00000  Uiso   1.00
C281   C     0.39015   0.56008   0.48698   0.00000  Uiso   1.00
C282   C     0.42814   0.95292   0.40185   0.00000  Uiso   1.00
C283   C     0.45709   0.85750   0.42802   0.00000  Uiso   1.00
C284   C     0.50771   0.82182   0.40617   0.00000  Uiso   1.00
C285   C     0.59159   0.72978   0.38690   0.00000  Uiso   1.00
C286   C     0.33383   0.99052   0.37060   0.00000  Uiso   1.00
C287   C     0.28349   0.92667   0.37049   0.00000  Uiso   1.00
C288   C     0.25470   0.92263   0.32232   0.00000  Uiso   1.00
C289   C     0.19215   0.88897   0.25452   0.00000  Uiso   1.00
C290   C     0.41047   0.11282   0.33347   0.00000  Uiso   1.00
C291   C     0.40143   0.20669   0.37913   0.00000  Uiso   1.00
C292   C     0.41202   0.33597   0.37710   0.00000  Uiso   1.00
C293   C     0.40100   0.40555   0.42313   0.00000  Uiso   1.00
C294   C     0.44900   0.01066   0.35551   0.00000  Uiso   1.00
C295   C     0.49958   0.97511   0.33361   0.00000  Uiso   1.00
C296   C     0.52861   0.87966   0.35974   0.00000  Uiso   1.00
C297   C     0.35468   0.04826   0.32425   0.00000  Uiso   1.00
C298   C     0.32598   0.04430   0.27607   0.00000  Uiso   1.00
C299   C     0.27560   0.98047   0.27589   0.00000  Uiso   1.00
H300   H     0.35583   0.96156   0.45489   0.00000  Uiso   1.00
H301   H     0.35339   0.17364   0.50738   0.00000  Uiso   1.00
H302   H     0.44094   0.81282   0.46389   0.00000  Uiso   1.00
H303   H     0.26736   0.88201   0.40636   0.00000  Uiso   1.00
H304   H     0.35990   0.43422   0.54514   0.00000  Uiso   1.00
H305   H     0.54449   0.67339   0.45343   0.00000  Uiso   1.00
H306   H     0.17846   0.81927   0.33212   0.00000  Uiso   1.00
H307   H     0.42671   0.15777   0.29738   0.00000  Uiso   1.00
H308   H     0.42816   0.38063   0.34123   0.00000  Uiso   1.00
H309   H     0.51571   0.01981   0.29774   0.00000  Uiso   1.00
H310   H     0.34213   0.08899   0.24021   0.00000  Uiso   1.00
H311   H     0.42059   0.60222   0.41029   0.00000  Uiso   1.00
H312   H     0.60518   0.84138   0.31857   0.00000  Uiso   1.00
H313   H     0.23915   0.98727   0.19727   0.00000  Uiso   1.00
O314   O     0.38994   0.66127   0.50940   0.00000  Uiso   1.00
O315   O     0.63210   0.66308   0.38908   0.00000  Uiso   1.00
O316   O     0.15188   0.85447   0.22993   0.00000  Uiso   1.00
N317   N     0.37398   0.44318   0.50738   0.00000  Uiso   1.00
N318   N     0.54656   0.73187   0.42164   0.00000  Uiso   1.00
N319   N     0.20436   0.86822   0.30823   0.00000  Uiso   1.00
N320   N     0.40663   0.53358   0.43482   0.00000  Uiso   1.00
N321   N     0.57922   0.82226   0.34908   0.00000  Uiso   1.00
N322   N     0.23702   0.95861   0.23566   0.00000  Uiso   1.00
C323   C     0.12793   0.99348   0.91880   0.00000  Uiso   1.00
C324   C     0.11943   0.85104   0.92548   0.00000  Uiso   1.00
C325   C     0.13047   0.78164   0.97151   0.00000  Uiso   1.00
C326   C     0.11990   0.65229   0.96956   0.00000  Uiso   1.00
C327   C     0.10985   0.43992   0.98698   0.00000  Uiso   1.00
C328   C     0.07186   0.04708   0.90185   0.00000  Uiso   1.00
C329   C     0.04291   0.14250   0.92802   0.00000  Uiso   1.00
C330   C     0.99229   0.17818   0.90617   0.00000  Uiso   1.00
C331   C     0.90841   0.27022   0.88690   0.00000  Uiso   1.00
C332   C     0.16617   0.00948   0.87060   0.00000  Uiso   1.00
C333   C     0.21651   0.07333   0.87049   0.00000  Uiso   1.00
C334   C     0.24530   0.07737   0.82232   0.00000  Uiso   1.00
C335   C     0.30785   0.11103   0.75452   0.00000  Uiso   1.00
C336   C     0.08953   0.88718   0.83347   0.00000  Uiso   1.00
C337   C     0.09857   0.79331   0.87913   0.00000  Uiso   1.00
C338   C     0.08798   0.66403   0.87710   0.00000  Uiso   1.00
C339   C     0.09900   0.59445   0.92313   0.00000  Uiso   1.00
C340   C     0.05100   0.98934   0.85551   0.00000  Uiso   1.00
C341   C     0.00042   0.02489   0.83361   0.00000  Uiso   1.00
C342   C     0.97139   0.12034   0.85974   0.00000  Uiso   1.00
C343   C     0.14532   0.95174   0.82425   0.00000  Uiso   1.00
C344   C     0.17402   0.95570   0.77607   0.00000  Uiso   1.00
C345   C     0.22440   0.01953   0.77589   0.00000  Uiso   1.00
H346   H     0.14417   0.03844   0.95489   0.00000  Uiso   1.00
H347   H     0.14661   0.82636   0.00738   0.00000  Uiso   1.00
H348   H     0.05906   0.18718   0.96389   0.00000  Uiso   1.00
H349   H     0.23264   0.11799   0.90636   0.00000  Uiso   1.00
H350   H     0.14010   0.56578   0.04514   0.00000  Uiso   1.00
H351   H     0.95551   0.32661   0.95343   0.00000  Uiso   1.00
H352   H     0.32154   0.18073   0.83212   0.00000  Uiso   1.00
H353   H     0.07329   0.84223   0.79738   0.00000  Uiso   1.00
H354   H     0.07184   0.61937   0.84123   0.00000  Uiso   1.00
H355   H     0.98429   0.98019   0.79774   0.00000  Uiso   1.00
H356   H     0.15787   0.91101   0.74021   0.00000  Uiso   1.00
H357   H     0.07941   0.39778   0.91029   0.00000  Uiso   1.00
H358   H     0.89482   0.15862   0.81857   0.00000  Uiso   1.00
H359   H     0.26085   0.01273   0.69727   0.00000  Uiso   1.00
O360   O     0.11006   0.33873   0.00940   0.00000  Uiso   1.00
O361   O     0.86790   0.33692   0.88908   0.00000  Uiso   1.00
O362   O     0.34812   0.14553   0.72993   0.00000  Uiso   1.00
N363   N     0.12602   0.55682   0.00738   0.00000  Uiso   1.00
N364   N     0.95344   0.26813   0.92164   0.00000  Uiso   1.00
N365   N     0.29564   0.13178   0.80823   0.00000  Uiso   1.00
N366   N     0.09337   0.46642   0.93482   0.00000  Uiso   1.00
N367   N     0.92078   0.17774   0.84908   0.00000  Uiso   1.00
N368   N     0.26298   0.04139   0.73566   0.00000  Uiso   1.00
