data_job_02057
_audit_creation_date              2018-12-19
_audit_creation_method            'Materials Studio'
_symmetry_space_group_name_H-M    'P1'
_symmetry_Int_Tables_number       1
_symmetry_cell_setting            triclinic
loop_
_symmetry_equiv_pos_as_xyz
  x,y,z
_cell_length_a                    12.5606
_cell_length_b                    20.1245
_cell_length_c                    9.8252
_cell_angle_alpha                 90.0000
_cell_angle_beta                  76.1780
_cell_angle_gamma                 90.0000
loop_
_atom_site_label
_atom_site_type_symbol
_atom_site_fract_x
_atom_site_fract_y
_atom_site_fract_z
_atom_site_U_iso_or_equiv
_atom_site_adp_type
_atom_site_occupancy
C1     C     0.77572   0.37472   0.13420   0.00000  Uiso   1.00
C2     C     0.77531   0.44776   0.17567   0.00000  Uiso   1.00
C3     C     0.85102   0.47824   0.23750   0.00000  Uiso   1.00
C4     C     0.83640   0.54552   0.26738   0.00000  Uiso   1.00
C5     C     0.84899   0.65353   0.33654   0.00000  Uiso   1.00
C6     C     0.66407   0.34721   0.20954   0.00000  Uiso   1.00
C7     C     0.64626   0.29314   0.29983   0.00000  Uiso   1.00
C8     C     0.53799   0.27578   0.35821   0.00000  Uiso   1.00
C9     C     0.37788   0.22765   0.47987   0.00000  Uiso   1.00
C10    C     0.77773   0.37394   0.97842   0.00000  Uiso   1.00
C11    C     0.85547   0.34233   0.87438   0.00000  Uiso   1.00
C12    C     0.84288   0.34746   0.73817   0.00000  Uiso   1.00
C13    C     0.85924   0.34083   0.50097   0.00000  Uiso   1.00
C14    C     0.61511   0.44001   0.07730   0.00000  Uiso   1.00
C15    C     0.68806   0.48322   0.14477   0.00000  Uiso   1.00
C16    C     0.67332   0.55048   0.17455   0.00000  Uiso   1.00
C17    C     0.74901   0.58105   0.23642   0.00000  Uiso   1.00
C18    C     0.57683   0.38267   0.17864   0.00000  Uiso   1.00
C19    C     0.46856   0.36538   0.23689   0.00000  Uiso   1.00
C20    C     0.45060   0.31131   0.32725   0.00000  Uiso   1.00
C21    C     0.69049   0.40940   0.94751   0.00000  Uiso   1.00
C22    C     0.67777   0.41457   0.81143   0.00000  Uiso   1.00
C23    C     0.75548   0.38298   0.70721   0.00000  Uiso   1.00
H24    H     0.84364   0.34711   0.15826   0.00000  Uiso   1.00
H25    H     0.91852   0.45078   0.26141   0.00000  Uiso   1.00
H26    H     0.71379   0.26571   0.32372   0.00000  Uiso   1.00
H27    H     0.92296   0.31489   0.89833   0.00000  Uiso   1.00
H28    H     0.96304   0.58134   0.36219   0.00000  Uiso   1.00
H29    H     0.53136   0.19110   0.49353   0.00000  Uiso   1.00
H30    H     0.97245   0.29481   0.59652   0.00000  Uiso   1.00
H31    H     0.54719   0.46762   0.05325   0.00000  Uiso   1.00
H32    H     0.60581   0.57791   0.15063   0.00000  Uiso   1.00
H33    H     0.40108   0.39283   0.21294   0.00000  Uiso   1.00
H34    H     0.61025   0.44202   0.78756   0.00000  Uiso   1.00
H35    H     0.70923   0.68453   0.27229   0.00000  Uiso   1.00
H36    H     0.27755   0.29428   0.40362   0.00000  Uiso   1.00
H37    H     0.71864   0.39800   0.50661   0.00000  Uiso   1.00
O38    O     0.88002   0.70330   0.38324   0.00000  Uiso   1.00
O39    O     0.31367   0.19131   0.55552   0.00000  Uiso   1.00
O40    O     0.89237   0.32739   0.37868   0.00000  Uiso   1.00
N41    N     0.89527   0.59050   0.32764   0.00000  Uiso   1.00
N42    N     0.49168   0.22565   0.45045   0.00000  Uiso   1.00
N43    N     0.90404   0.32260   0.61183   0.00000  Uiso   1.00
N44    N     0.75870   0.64602   0.27926   0.00000  Uiso   1.00
N45    N     0.35510   0.28117   0.40207   0.00000  Uiso   1.00
N46    N     0.76747   0.37812   0.56345   0.00000  Uiso   1.00
C47    C     0.22428   0.87472   0.36580   0.00000  Uiso   1.00
C48    C     0.22469   0.94776   0.32433   0.00000  Uiso   1.00
C49    C     0.14898   0.97824   0.26250   0.00000  Uiso   1.00
C50    C     0.16360   0.04552   0.23262   0.00000  Uiso   1.00
C51    C     0.15101   0.15353   0.16346   0.00000  Uiso   1.00
C52    C     0.33593   0.84721   0.29046   0.00000  Uiso   1.00
C53    C     0.35374   0.79314   0.20017   0.00000  Uiso   1.00
C54    C     0.46201   0.77578   0.14179   0.00000  Uiso   1.00
C55    C     0.62212   0.72765   0.02013   0.00000  Uiso   1.00
C56    C     0.22227   0.87394   0.52158   0.00000  Uiso   1.00
C57    C     0.14453   0.84233   0.62562   0.00000  Uiso   1.00
C58    C     0.15712   0.84746   0.76183   0.00000  Uiso   1.00
C59    C     0.14076   0.84083   0.99903   0.00000  Uiso   1.00
C60    C     0.38489   0.94001   0.42270   0.00000  Uiso   1.00
C61    C     0.31194   0.98322   0.35523   0.00000  Uiso   1.00
C62    C     0.32668   0.05048   0.32545   0.00000  Uiso   1.00
C63    C     0.25099   0.08105   0.26358   0.00000  Uiso   1.00
C64    C     0.42317   0.88267   0.32136   0.00000  Uiso   1.00
C65    C     0.53144   0.86538   0.26311   0.00000  Uiso   1.00
C66    C     0.54940   0.81131   0.17275   0.00000  Uiso   1.00
C67    C     0.30951   0.90940   0.55249   0.00000  Uiso   1.00
C68    C     0.32223   0.91457   0.68857   0.00000  Uiso   1.00
C69    C     0.24452   0.88298   0.79279   0.00000  Uiso   1.00
H70    H     0.15636   0.84711   0.34174   0.00000  Uiso   1.00
H71    H     0.08148   0.95078   0.23859   0.00000  Uiso   1.00
H72    H     0.28621   0.76571   0.17628   0.00000  Uiso   1.00
H73    H     0.07704   0.81489   0.60167   0.00000  Uiso   1.00
H74    H     0.03696   0.08134   0.13781   0.00000  Uiso   1.00
H75    H     0.46864   0.69110   0.00647   0.00000  Uiso   1.00
H76    H     0.02755   0.79481   0.90348   0.00000  Uiso   1.00
H77    H     0.45281   0.96762   0.44675   0.00000  Uiso   1.00
H78    H     0.39419   0.07791   0.34937   0.00000  Uiso   1.00
H79    H     0.59892   0.89283   0.28706   0.00000  Uiso   1.00
H80    H     0.38975   0.94202   0.71244   0.00000  Uiso   1.00
H81    H     0.29077   0.18453   0.22771   0.00000  Uiso   1.00
H82    H     0.72245   0.79428   0.09638   0.00000  Uiso   1.00
H83    H     0.28136   0.89800   0.99339   0.00000  Uiso   1.00
O84    O     0.11998   0.20330   0.11676   0.00000  Uiso   1.00
O85    O     0.68633   0.69131   0.94448   0.00000  Uiso   1.00
O86    O     0.10763   0.82739   0.12132   0.00000  Uiso   1.00
N87    N     0.10473   0.09050   0.17236   0.00000  Uiso   1.00
N88    N     0.50832   0.72565   0.04955   0.00000  Uiso   1.00
N89    N     0.09596   0.82260   0.88817   0.00000  Uiso   1.00
N90    N     0.24130   0.14602   0.22074   0.00000  Uiso   1.00
N91    N     0.64490   0.78117   0.09793   0.00000  Uiso   1.00
N92    N     0.23253   0.87812   0.93655   0.00000  Uiso   1.00
C93    C     0.22428   0.62528   0.86580   0.00000  Uiso   1.00
C94    C     0.22469   0.55224   0.82433   0.00000  Uiso   1.00
C95    C     0.14898   0.52176   0.76250   0.00000  Uiso   1.00
C96    C     0.16360   0.45448   0.73262   0.00000  Uiso   1.00
C97    C     0.15101   0.34647   0.66346   0.00000  Uiso   1.00
C98    C     0.33593   0.65279   0.79046   0.00000  Uiso   1.00
C99    C     0.35374   0.70686   0.70017   0.00000  Uiso   1.00
C100   C     0.46201   0.72422   0.64179   0.00000  Uiso   1.00
C101   C     0.62212   0.77235   0.52013   0.00000  Uiso   1.00
C102   C     0.22227   0.62606   0.02158   0.00000  Uiso   1.00
C103   C     0.14453   0.65767   0.12562   0.00000  Uiso   1.00
C104   C     0.15712   0.65254   0.26183   0.00000  Uiso   1.00
C105   C     0.14076   0.65917   0.49903   0.00000  Uiso   1.00
C106   C     0.38489   0.55999   0.92270   0.00000  Uiso   1.00
C107   C     0.31194   0.51678   0.85523   0.00000  Uiso   1.00
C108   C     0.32668   0.44952   0.82545   0.00000  Uiso   1.00
C109   C     0.25099   0.41895   0.76358   0.00000  Uiso   1.00
C110   C     0.42317   0.61733   0.82136   0.00000  Uiso   1.00
C111   C     0.53144   0.63462   0.76311   0.00000  Uiso   1.00
C112   C     0.54940   0.68869   0.67275   0.00000  Uiso   1.00
C113   C     0.30951   0.59060   0.05249   0.00000  Uiso   1.00
C114   C     0.32223   0.58543   0.18857   0.00000  Uiso   1.00
C115   C     0.24452   0.61702   0.29279   0.00000  Uiso   1.00
H116   H     0.15636   0.65289   0.84174   0.00000  Uiso   1.00
H117   H     0.08148   0.54922   0.73859   0.00000  Uiso   1.00
H118   H     0.28621   0.73429   0.67628   0.00000  Uiso   1.00
H119   H     0.07704   0.68511   0.10167   0.00000  Uiso   1.00
H120   H     0.03696   0.41866   0.63781   0.00000  Uiso   1.00
H121   H     0.46864   0.80890   0.50647   0.00000  Uiso   1.00
H122   H     0.02755   0.70519   0.40348   0.00000  Uiso   1.00
H123   H     0.45281   0.53238   0.94675   0.00000  Uiso   1.00
H124   H     0.39419   0.42209   0.84937   0.00000  Uiso   1.00
H125   H     0.59892   0.60717   0.78706   0.00000  Uiso   1.00
H126   H     0.38975   0.55798   0.21244   0.00000  Uiso   1.00
H127   H     0.29077   0.31547   0.72771   0.00000  Uiso   1.00
H128   H     0.72245   0.70572   0.59638   0.00000  Uiso   1.00
H129   H     0.28136   0.60200   0.49339   0.00000  Uiso   1.00
O130   O     0.11998   0.29670   0.61676   0.00000  Uiso   1.00
O131   O     0.68633   0.80869   0.44448   0.00000  Uiso   1.00
O132   O     0.10763   0.67261   0.62132   0.00000  Uiso   1.00
N133   N     0.10473   0.40950   0.67236   0.00000  Uiso   1.00
N134   N     0.50832   0.77435   0.54955   0.00000  Uiso   1.00
N135   N     0.09596   0.67740   0.38817   0.00000  Uiso   1.00
N136   N     0.24130   0.35398   0.72074   0.00000  Uiso   1.00
N137   N     0.64490   0.71883   0.59793   0.00000  Uiso   1.00
N138   N     0.23253   0.62188   0.43655   0.00000  Uiso   1.00
C139   C     0.77572   0.12528   0.63420   0.00000  Uiso   1.00
C140   C     0.77531   0.05224   0.67567   0.00000  Uiso   1.00
C141   C     0.85102   0.02176   0.73750   0.00000  Uiso   1.00
C142   C     0.83640   0.95448   0.76738   0.00000  Uiso   1.00
C143   C     0.84899   0.84647   0.83654   0.00000  Uiso   1.00
C144   C     0.66407   0.15279   0.70954   0.00000  Uiso   1.00
C145   C     0.64626   0.20686   0.79983   0.00000  Uiso   1.00
C146   C     0.53799   0.22422   0.85821   0.00000  Uiso   1.00
C147   C     0.37788   0.27235   0.97987   0.00000  Uiso   1.00
C148   C     0.77773   0.12606   0.47842   0.00000  Uiso   1.00
C149   C     0.85547   0.15767   0.37438   0.00000  Uiso   1.00
C150   C     0.84288   0.15254   0.23817   0.00000  Uiso   1.00
C151   C     0.85924   0.15917   0.00097   0.00000  Uiso   1.00
C152   C     0.61511   0.05999   0.57730   0.00000  Uiso   1.00
C153   C     0.68806   0.01678   0.64477   0.00000  Uiso   1.00
C154   C     0.67332   0.94952   0.67455   0.00000  Uiso   1.00
C155   C     0.74901   0.91895   0.73642   0.00000  Uiso   1.00
C156   C     0.57683   0.11733   0.67864   0.00000  Uiso   1.00
C157   C     0.46856   0.13462   0.73689   0.00000  Uiso   1.00
C158   C     0.45060   0.18869   0.82725   0.00000  Uiso   1.00
C159   C     0.69049   0.09060   0.44751   0.00000  Uiso   1.00
C160   C     0.67777   0.08543   0.31143   0.00000  Uiso   1.00
C161   C     0.75548   0.11702   0.20721   0.00000  Uiso   1.00
H162   H     0.84364   0.15289   0.65826   0.00000  Uiso   1.00
H163   H     0.91852   0.04922   0.76141   0.00000  Uiso   1.00
H164   H     0.71379   0.23429   0.82372   0.00000  Uiso   1.00
H165   H     0.92296   0.18511   0.39833   0.00000  Uiso   1.00
H166   H     0.96304   0.91866   0.86219   0.00000  Uiso   1.00
H167   H     0.53136   0.30890   0.99353   0.00000  Uiso   1.00
H168   H     0.97245   0.20519   0.09652   0.00000  Uiso   1.00
H169   H     0.54719   0.03238   0.55325   0.00000  Uiso   1.00
H170   H     0.60581   0.92209   0.65063   0.00000  Uiso   1.00
H171   H     0.40108   0.10717   0.71294   0.00000  Uiso   1.00
H172   H     0.61025   0.05798   0.28756   0.00000  Uiso   1.00
H173   H     0.70923   0.81547   0.77229   0.00000  Uiso   1.00
H174   H     0.27755   0.20572   0.90362   0.00000  Uiso   1.00
H175   H     0.71864   0.10200   0.00661   0.00000  Uiso   1.00
O176   O     0.88002   0.79670   0.88324   0.00000  Uiso   1.00
O177   O     0.31367   0.30869   0.05552   0.00000  Uiso   1.00
O178   O     0.89237   0.17261   0.87868   0.00000  Uiso   1.00
N179   N     0.89527   0.90950   0.82764   0.00000  Uiso   1.00
N180   N     0.49168   0.27435   0.95045   0.00000  Uiso   1.00
N181   N     0.90404   0.17740   0.11183   0.00000  Uiso   1.00
N182   N     0.75870   0.85398   0.77926   0.00000  Uiso   1.00
N183   N     0.35510   0.21883   0.90207   0.00000  Uiso   1.00
N184   N     0.76747   0.12188   0.06345   0.00000  Uiso   1.00
