data_job_05526
_audit_creation_date              2018-12-19
_audit_creation_method            'Materials Studio'
_symmetry_space_group_name_H-M    'P1'
_symmetry_Int_Tables_number       1
_symmetry_cell_setting            triclinic
loop_
_symmetry_equiv_pos_as_xyz
  x,y,z
_cell_length_a                    15.6040
_cell_length_b                    13.6144
_cell_length_c                    24.3737
_cell_angle_alpha                 90.0000
_cell_angle_beta                  90.0000
_cell_angle_gamma                 90.0000
loop_
_atom_site_label
_atom_site_type_symbol
_atom_site_fract_x
_atom_site_fract_y
_atom_site_fract_z
_atom_site_U_iso_or_equiv
_atom_site_adp_type
_atom_site_occupancy
C1     C     0.63958   0.69088   0.41956   0.00000  Uiso   1.00
C2     C     0.59932   0.73922   0.36935   0.00000  Uiso   1.00
C3     C     0.51376   0.76522   0.36385   0.00000  Uiso   1.00
C4     C     0.48955   0.80864   0.31469   0.00000  Uiso   1.00
C5     C     0.41801   0.88110   0.24312   0.00000  Uiso   1.00
C6     C     0.68143   0.59657   0.39902   0.00000  Uiso   1.00
C7     C     0.66490   0.50265   0.41846   0.00000  Uiso   1.00
C8     C     0.70983   0.42600   0.39428   0.00000  Uiso   1.00
C9     C     0.76580   0.27702   0.36879   0.00000  Uiso   1.00
C10    C     0.71281   0.75799   0.43720   0.00000  Uiso   1.00
C11    C     0.72269   0.79976   0.48875   0.00000  Uiso   1.00
C12    C     0.79404   0.85900   0.49672   0.00000  Uiso   1.00
C13    C     0.89874   0.96063   0.53052   0.00000  Uiso   1.00
C14    C     0.74875   0.72175   0.34206   0.00000  Uiso   1.00
C15    C     0.65862   0.75598   0.32725   0.00000  Uiso   1.00
C16    C     0.63454   0.79938   0.27809   0.00000  Uiso   1.00
C17    C     0.54896   0.82545   0.27252   0.00000  Uiso   1.00
C18    C     0.74072   0.61334   0.35692   0.00000  Uiso   1.00
C19    C     0.78569   0.53682   0.33271   0.00000  Uiso   1.00
C20    C     0.76923   0.44280   0.35210   0.00000  Uiso   1.00
C21    C     0.77211   0.77476   0.39510   0.00000  Uiso   1.00
C22    C     0.84347   0.83393   0.40299   0.00000  Uiso   1.00
C23    C     0.85345   0.87580   0.45455   0.00000  Uiso   1.00
H24    H     0.59342   0.67781   0.45234   0.00000  Uiso   1.00
H25    H     0.46789   0.75222   0.39644   0.00000  Uiso   1.00
H26    H     0.61902   0.48970   0.45104   0.00000  Uiso   1.00
H27    H     0.67679   0.78677   0.52132   0.00000  Uiso   1.00
H28    H     0.35486   0.84208   0.31589   0.00000  Uiso   1.00
H29    H     0.67354   0.28854   0.43104   0.00000  Uiso   1.00
H30    H     0.79536   0.91497   0.57923   0.00000  Uiso   1.00
H31    H     0.79492   0.73481   0.30928   0.00000  Uiso   1.00
H32    H     0.68044   0.81235   0.24552   0.00000  Uiso   1.00
H33    H     0.83157   0.54982   0.30013   0.00000  Uiso   1.00
H34    H     0.88934   0.84690   0.37041   0.00000  Uiso   1.00
H35    H     0.52737   0.89088   0.19340   0.00000  Uiso   1.00
H36    H     0.84606   0.33733   0.30855   0.00000  Uiso   1.00
H37    H     0.96788   0.96377   0.45674   0.00000  Uiso   1.00
O38    O     0.36217   0.91643   0.21527   0.00000  Uiso   1.00
O39    O     0.78028   0.19021   0.36636   0.00000  Uiso   1.00
O40    O     0.94010   0.01207   0.56079   0.00000  Uiso   1.00
N41    N     0.41117   0.84294   0.29581   0.00000  Uiso   1.00
N42    N     0.70911   0.32541   0.40347   0.00000  Uiso   1.00
N43    N     0.82302   0.91105   0.54202   0.00000  Uiso   1.00
N44    N     0.50400   0.86920   0.22990   0.00000  Uiso   1.00
N45    N     0.80194   0.35167   0.33756   0.00000  Uiso   1.00
N46    N     0.91585   0.93731   0.47611   0.00000  Uiso   1.00
C47    C     0.38595   0.69335   0.57895   0.00000  Uiso   1.00
C48    C     0.42654   0.74210   0.62892   0.00000  Uiso   1.00
C49    C     0.51208   0.76848   0.63405   0.00000  Uiso   1.00
C50    C     0.53661   0.81224   0.68305   0.00000  Uiso   1.00
C51    C     0.60861   0.88535   0.75422   0.00000  Uiso   1.00
C52    C     0.34459   0.59899   0.59980   0.00000  Uiso   1.00
C53    C     0.36122   0.50503   0.58044   0.00000  Uiso   1.00
C54    C     0.31676   0.42833   0.60492   0.00000  Uiso   1.00
C55    C     0.26149   0.27925   0.63085   0.00000  Uiso   1.00
C56    C     0.31236   0.76008   0.56149   0.00000  Uiso   1.00
C57    C     0.30186   0.80156   0.50992   0.00000  Uiso   1.00
C58    C     0.23025   0.86047   0.50213   0.00000  Uiso   1.00
C59    C     0.12492   0.96152   0.46859   0.00000  Uiso   1.00
C60    C     0.27743   0.72418   0.65683   0.00000  Uiso   1.00
C61    C     0.36759   0.75884   0.67123   0.00000  Uiso   1.00
C62    C     0.39201   0.80259   0.72023   0.00000  Uiso   1.00
C63    C     0.47756   0.82902   0.72543   0.00000  Uiso   1.00
C64    C     0.28565   0.61573   0.64210   0.00000  Uiso   1.00
C65    C     0.24115   0.53914   0.66661   0.00000  Uiso   1.00
C66    C     0.25771   0.44510   0.64730   0.00000  Uiso   1.00
C67    C     0.25341   0.77683   0.60380   0.00000  Uiso   1.00
C68    C     0.18179   0.83568   0.59609   0.00000  Uiso   1.00
C69    C     0.17119   0.87724   0.54451   0.00000  Uiso   1.00
H70    H     0.43184   0.68031   0.54601   0.00000  Uiso   1.00
H71    H     0.55768   0.75550   0.60131   0.00000  Uiso   1.00
H72    H     0.40683   0.49210   0.54770   0.00000  Uiso   1.00
H73    H     0.34749   0.78859   0.47719   0.00000  Uiso   1.00
H74    H     0.67120   0.84621   0.68128   0.00000  Uiso   1.00
H75    H     0.35311   0.29083   0.56823   0.00000  Uiso   1.00
H76    H     0.22797   0.91602   0.41954   0.00000  Uiso   1.00
H77    H     0.23153   0.73722   0.68977   0.00000  Uiso   1.00
H78    H     0.34637   0.81553   0.75296   0.00000  Uiso   1.00
H79    H     0.19553   0.55213   0.69935   0.00000  Uiso   1.00
H80    H     0.13619   0.84862   0.62884   0.00000  Uiso   1.00
H81    H     0.49970   0.89493   0.80436   0.00000  Uiso   1.00
H82    H     0.18161   0.33955   0.69131   0.00000  Uiso   1.00
H83    H     0.05647   0.96475   0.54263   0.00000  Uiso   1.00
O84    O     0.66461   0.92103   0.78180   0.00000  Uiso   1.00
O85    O     0.24729   0.19239   0.63347   0.00000  Uiso   1.00
O86    O     0.08311   0.01264   0.43840   0.00000  Uiso   1.00
N87    N     0.61507   0.84695   0.70157   0.00000  Uiso   1.00
N88    N     0.31769   0.32769   0.59588   0.00000  Uiso   1.00
N89    N     0.20068   0.91218   0.45687   0.00000  Uiso   1.00
N90    N     0.52279   0.87317   0.76780   0.00000  Uiso   1.00
N91    N     0.22541   0.35391   0.66211   0.00000  Uiso   1.00
N92    N     0.10840   0.93840   0.52310   0.00000  Uiso   1.00
C93    C     0.36042   0.30912   0.91956   0.00000  Uiso   1.00
C94    C     0.40068   0.26078   0.86935   0.00000  Uiso   1.00
C95    C     0.48624   0.23478   0.86385   0.00000  Uiso   1.00
C96    C     0.51045   0.19136   0.81469   0.00000  Uiso   1.00
C97    C     0.58199   0.11890   0.74312   0.00000  Uiso   1.00
C98    C     0.31857   0.40343   0.89902   0.00000  Uiso   1.00
C99    C     0.33510   0.49735   0.91846   0.00000  Uiso   1.00
C100   C     0.29017   0.57400   0.89428   0.00000  Uiso   1.00
C101   C     0.23420   0.72298   0.86879   0.00000  Uiso   1.00
C102   C     0.28719   0.24201   0.93720   0.00000  Uiso   1.00
C103   C     0.27731   0.20024   0.98875   0.00000  Uiso   1.00
C104   C     0.20596   0.14100   0.99672   0.00000  Uiso   1.00
C105   C     0.10126   0.03937   0.03052   0.00000  Uiso   1.00
C106   C     0.25125   0.27825   0.84206   0.00000  Uiso   1.00
C107   C     0.34138   0.24402   0.82725   0.00000  Uiso   1.00
C108   C     0.36546   0.20062   0.77809   0.00000  Uiso   1.00
C109   C     0.45104   0.17455   0.77252   0.00000  Uiso   1.00
C110   C     0.25928   0.38666   0.85692   0.00000  Uiso   1.00
C111   C     0.21431   0.46318   0.83271   0.00000  Uiso   1.00
C112   C     0.23077   0.55720   0.85210   0.00000  Uiso   1.00
C113   C     0.22789   0.22524   0.89510   0.00000  Uiso   1.00
C114   C     0.15653   0.16607   0.90299   0.00000  Uiso   1.00
C115   C     0.14655   0.12420   0.95455   0.00000  Uiso   1.00
H116   H     0.40658   0.32219   0.95234   0.00000  Uiso   1.00
H117   H     0.53211   0.24778   0.89644   0.00000  Uiso   1.00
H118   H     0.38098   0.51030   0.95104   0.00000  Uiso   1.00
H119   H     0.32321   0.21323   0.02132   0.00000  Uiso   1.00
H120   H     0.64514   0.15792   0.81589   0.00000  Uiso   1.00
H121   H     0.32646   0.71146   0.93104   0.00000  Uiso   1.00
H122   H     0.20464   0.08503   0.07923   0.00000  Uiso   1.00
H123   H     0.20508   0.26519   0.80928   0.00000  Uiso   1.00
H124   H     0.31956   0.18765   0.74552   0.00000  Uiso   1.00
H125   H     0.16843   0.45018   0.80013   0.00000  Uiso   1.00
H126   H     0.11066   0.15310   0.87041   0.00000  Uiso   1.00
H127   H     0.47263   0.10912   0.69340   0.00000  Uiso   1.00
H128   H     0.15394   0.66267   0.80855   0.00000  Uiso   1.00
H129   H     0.03212   0.03623   0.95674   0.00000  Uiso   1.00
O130   O     0.63783   0.08357   0.71527   0.00000  Uiso   1.00
O131   O     0.21972   0.80979   0.86636   0.00000  Uiso   1.00
O132   O     0.05990   0.98793   0.06079   0.00000  Uiso   1.00
N133   N     0.58883   0.15706   0.79581   0.00000  Uiso   1.00
N134   N     0.29089   0.67459   0.90347   0.00000  Uiso   1.00
N135   N     0.17698   0.08895   0.04202   0.00000  Uiso   1.00
N136   N     0.49600   0.13080   0.72990   0.00000  Uiso   1.00
N137   N     0.19806   0.64833   0.83756   0.00000  Uiso   1.00
N138   N     0.08415   0.06269   0.97611   0.00000  Uiso   1.00
C139   C     0.61405   0.30665   0.07895   0.00000  Uiso   1.00
C140   C     0.57346   0.25790   0.12892   0.00000  Uiso   1.00
C141   C     0.48792   0.23152   0.13405   0.00000  Uiso   1.00
C142   C     0.46339   0.18776   0.18305   0.00000  Uiso   1.00
C143   C     0.39139   0.11465   0.25422   0.00000  Uiso   1.00
C144   C     0.65541   0.40101   0.09980   0.00000  Uiso   1.00
C145   C     0.63878   0.49497   0.08044   0.00000  Uiso   1.00
C146   C     0.68324   0.57167   0.10492   0.00000  Uiso   1.00
C147   C     0.73851   0.72075   0.13085   0.00000  Uiso   1.00
C148   C     0.68764   0.23992   0.06149   0.00000  Uiso   1.00
C149   C     0.69814   0.19844   0.00992   0.00000  Uiso   1.00
C150   C     0.76975   0.13953   0.00213   0.00000  Uiso   1.00
C151   C     0.87508   0.03848   0.96859   0.00000  Uiso   1.00
C152   C     0.72257   0.27582   0.15683   0.00000  Uiso   1.00
C153   C     0.63241   0.24116   0.17123   0.00000  Uiso   1.00
C154   C     0.60799   0.19741   0.22023   0.00000  Uiso   1.00
C155   C     0.52244   0.17098   0.22543   0.00000  Uiso   1.00
C156   C     0.71435   0.38427   0.14210   0.00000  Uiso   1.00
C157   C     0.75885   0.46086   0.16661   0.00000  Uiso   1.00
C158   C     0.74229   0.55490   0.14730   0.00000  Uiso   1.00
C159   C     0.74659   0.22317   0.10380   0.00000  Uiso   1.00
C160   C     0.81821   0.16432   0.09609   0.00000  Uiso   1.00
C161   C     0.82881   0.12276   0.04451   0.00000  Uiso   1.00
H162   H     0.56816   0.31969   0.04601   0.00000  Uiso   1.00
H163   H     0.44232   0.24450   0.10131   0.00000  Uiso   1.00
H164   H     0.59317   0.50790   0.04770   0.00000  Uiso   1.00
H165   H     0.65251   0.21141   0.97719   0.00000  Uiso   1.00
H166   H     0.32880   0.15379   0.18128   0.00000  Uiso   1.00
H167   H     0.64689   0.70917   0.06823   0.00000  Uiso   1.00
H168   H     0.77203   0.08398   0.91954   0.00000  Uiso   1.00
H169   H     0.76847   0.26278   0.18977   0.00000  Uiso   1.00
H170   H     0.65363   0.18447   0.25296   0.00000  Uiso   1.00
H171   H     0.80447   0.44787   0.19935   0.00000  Uiso   1.00
H172   H     0.86381   0.15138   0.12884   0.00000  Uiso   1.00
H173   H     0.50030   0.10507   0.30436   0.00000  Uiso   1.00
H174   H     0.81839   0.66045   0.19131   0.00000  Uiso   1.00
H175   H     0.94353   0.03525   0.04263   0.00000  Uiso   1.00
O176   O     0.33539   0.07897   0.28180   0.00000  Uiso   1.00
O177   O     0.75271   0.80761   0.13347   0.00000  Uiso   1.00
O178   O     0.91689   0.98736   0.93840   0.00000  Uiso   1.00
N179   N     0.38493   0.15305   0.20157   0.00000  Uiso   1.00
N180   N     0.68231   0.67231   0.09588   0.00000  Uiso   1.00
N181   N     0.79932   0.08782   0.95687   0.00000  Uiso   1.00
N182   N     0.47721   0.12683   0.26780   0.00000  Uiso   1.00
N183   N     0.77459   0.64609   0.16211   0.00000  Uiso   1.00
N184   N     0.89160   0.06160   0.02310   0.00000  Uiso   1.00
C185   C     0.13958   0.30912   0.41956   0.00000  Uiso   1.00
C186   C     0.09932   0.26078   0.36935   0.00000  Uiso   1.00
C187   C     0.01376   0.23478   0.36385   0.00000  Uiso   1.00
C188   C     0.98955   0.19136   0.31469   0.00000  Uiso   1.00
C189   C     0.91801   0.11890   0.24312   0.00000  Uiso   1.00
C190   C     0.18143   0.40343   0.39902   0.00000  Uiso   1.00
C191   C     0.16490   0.49735   0.41846   0.00000  Uiso   1.00
C192   C     0.20983   0.57400   0.39428   0.00000  Uiso   1.00
C193   C     0.26580   0.72298   0.36879   0.00000  Uiso   1.00
C194   C     0.21281   0.24201   0.43720   0.00000  Uiso   1.00
C195   C     0.22269   0.20024   0.48875   0.00000  Uiso   1.00
C196   C     0.29404   0.14100   0.49672   0.00000  Uiso   1.00
C197   C     0.39874   0.03937   0.53052   0.00000  Uiso   1.00
C198   C     0.24875   0.27825   0.34206   0.00000  Uiso   1.00
C199   C     0.15862   0.24402   0.32725   0.00000  Uiso   1.00
C200   C     0.13454   0.20062   0.27809   0.00000  Uiso   1.00
C201   C     0.04896   0.17455   0.27252   0.00000  Uiso   1.00
C202   C     0.24072   0.38666   0.35692   0.00000  Uiso   1.00
C203   C     0.28569   0.46318   0.33271   0.00000  Uiso   1.00
C204   C     0.26923   0.55720   0.35210   0.00000  Uiso   1.00
C205   C     0.27211   0.22524   0.39510   0.00000  Uiso   1.00
C206   C     0.34347   0.16607   0.40299   0.00000  Uiso   1.00
C207   C     0.35345   0.12420   0.45455   0.00000  Uiso   1.00
H208   H     0.09342   0.32219   0.45234   0.00000  Uiso   1.00
H209   H     0.96789   0.24778   0.39644   0.00000  Uiso   1.00
H210   H     0.11902   0.51030   0.45104   0.00000  Uiso   1.00
H211   H     0.17679   0.21323   0.52132   0.00000  Uiso   1.00
H212   H     0.85486   0.15792   0.31589   0.00000  Uiso   1.00
H213   H     0.17354   0.71146   0.43104   0.00000  Uiso   1.00
H214   H     0.29536   0.08503   0.57923   0.00000  Uiso   1.00
H215   H     0.29492   0.26519   0.30928   0.00000  Uiso   1.00
H216   H     0.18044   0.18765   0.24552   0.00000  Uiso   1.00
H217   H     0.33157   0.45018   0.30013   0.00000  Uiso   1.00
H218   H     0.38934   0.15310   0.37041   0.00000  Uiso   1.00
H219   H     0.02737   0.10912   0.19340   0.00000  Uiso   1.00
H220   H     0.34606   0.66267   0.30855   0.00000  Uiso   1.00
H221   H     0.46788   0.03623   0.45674   0.00000  Uiso   1.00
O222   O     0.86217   0.08357   0.21527   0.00000  Uiso   1.00
O223   O     0.28028   0.80979   0.36636   0.00000  Uiso   1.00
O224   O     0.44010   0.98793   0.56079   0.00000  Uiso   1.00
N225   N     0.91117   0.15706   0.29581   0.00000  Uiso   1.00
N226   N     0.20911   0.67459   0.40347   0.00000  Uiso   1.00
N227   N     0.32302   0.08895   0.54202   0.00000  Uiso   1.00
N228   N     0.00400   0.13080   0.22990   0.00000  Uiso   1.00
N229   N     0.30194   0.64833   0.33756   0.00000  Uiso   1.00
N230   N     0.41585   0.06269   0.47611   0.00000  Uiso   1.00
C231   C     0.88595   0.30665   0.57895   0.00000  Uiso   1.00
C232   C     0.92654   0.25790   0.62892   0.00000  Uiso   1.00
C233   C     0.01208   0.23152   0.63405   0.00000  Uiso   1.00
C234   C     0.03661   0.18776   0.68305   0.00000  Uiso   1.00
C235   C     0.10861   0.11465   0.75422   0.00000  Uiso   1.00
C236   C     0.84459   0.40101   0.59980   0.00000  Uiso   1.00
C237   C     0.86122   0.49497   0.58044   0.00000  Uiso   1.00
C238   C     0.81676   0.57167   0.60492   0.00000  Uiso   1.00
C239   C     0.76149   0.72075   0.63085   0.00000  Uiso   1.00
C240   C     0.81236   0.23992   0.56149   0.00000  Uiso   1.00
C241   C     0.80186   0.19844   0.50992   0.00000  Uiso   1.00
C242   C     0.73025   0.13953   0.50213   0.00000  Uiso   1.00
C243   C     0.62492   0.03848   0.46859   0.00000  Uiso   1.00
C244   C     0.77743   0.27582   0.65683   0.00000  Uiso   1.00
C245   C     0.86759   0.24116   0.67123   0.00000  Uiso   1.00
C246   C     0.89201   0.19741   0.72023   0.00000  Uiso   1.00
C247   C     0.97756   0.17098   0.72543   0.00000  Uiso   1.00
C248   C     0.78565   0.38427   0.64210   0.00000  Uiso   1.00
C249   C     0.74115   0.46086   0.66661   0.00000  Uiso   1.00
C250   C     0.75771   0.55490   0.64730   0.00000  Uiso   1.00
C251   C     0.75341   0.22317   0.60380   0.00000  Uiso   1.00
C252   C     0.68179   0.16432   0.59609   0.00000  Uiso   1.00
C253   C     0.67119   0.12276   0.54451   0.00000  Uiso   1.00
H254   H     0.93184   0.31969   0.54601   0.00000  Uiso   1.00
H255   H     0.05768   0.24450   0.60131   0.00000  Uiso   1.00
H256   H     0.90683   0.50790   0.54770   0.00000  Uiso   1.00
H257   H     0.84749   0.21141   0.47719   0.00000  Uiso   1.00
H258   H     0.17120   0.15379   0.68128   0.00000  Uiso   1.00
H259   H     0.85311   0.70917   0.56823   0.00000  Uiso   1.00
H260   H     0.72797   0.08398   0.41954   0.00000  Uiso   1.00
H261   H     0.73153   0.26278   0.68977   0.00000  Uiso   1.00
H262   H     0.84637   0.18447   0.75296   0.00000  Uiso   1.00
H263   H     0.69553   0.44787   0.69935   0.00000  Uiso   1.00
H264   H     0.63619   0.15138   0.62884   0.00000  Uiso   1.00
H265   H     0.99970   0.10507   0.80436   0.00000  Uiso   1.00
H266   H     0.68161   0.66045   0.69131   0.00000  Uiso   1.00
H267   H     0.55647   0.03525   0.54263   0.00000  Uiso   1.00
O268   O     0.16461   0.07897   0.78180   0.00000  Uiso   1.00
O269   O     0.74729   0.80761   0.63347   0.00000  Uiso   1.00
O270   O     0.58311   0.98736   0.43840   0.00000  Uiso   1.00
N271   N     0.11507   0.15305   0.70157   0.00000  Uiso   1.00
N272   N     0.81769   0.67231   0.59588   0.00000  Uiso   1.00
N273   N     0.70068   0.08782   0.45687   0.00000  Uiso   1.00
N274   N     0.02279   0.12683   0.76780   0.00000  Uiso   1.00
N275   N     0.72541   0.64609   0.66211   0.00000  Uiso   1.00
N276   N     0.60840   0.06160   0.52310   0.00000  Uiso   1.00
C277   C     0.86042   0.69088   0.91956   0.00000  Uiso   1.00
C278   C     0.90068   0.73922   0.86935   0.00000  Uiso   1.00
C279   C     0.98624   0.76522   0.86385   0.00000  Uiso   1.00
C280   C     0.01045   0.80864   0.81469   0.00000  Uiso   1.00
C281   C     0.08199   0.88110   0.74312   0.00000  Uiso   1.00
C282   C     0.81857   0.59657   0.89902   0.00000  Uiso   1.00
C283   C     0.83510   0.50265   0.91846   0.00000  Uiso   1.00
C284   C     0.79017   0.42600   0.89428   0.00000  Uiso   1.00
C285   C     0.73420   0.27702   0.86879   0.00000  Uiso   1.00
C286   C     0.78719   0.75799   0.93720   0.00000  Uiso   1.00
C287   C     0.77731   0.79976   0.98875   0.00000  Uiso   1.00
C288   C     0.70596   0.85900   0.99672   0.00000  Uiso   1.00
C289   C     0.60126   0.96063   0.03052   0.00000  Uiso   1.00
C290   C     0.75125   0.72175   0.84206   0.00000  Uiso   1.00
C291   C     0.84138   0.75598   0.82725   0.00000  Uiso   1.00
C292   C     0.86546   0.79938   0.77809   0.00000  Uiso   1.00
C293   C     0.95104   0.82545   0.77252   0.00000  Uiso   1.00
C294   C     0.75928   0.61334   0.85692   0.00000  Uiso   1.00
C295   C     0.71431   0.53682   0.83271   0.00000  Uiso   1.00
C296   C     0.73077   0.44280   0.85210   0.00000  Uiso   1.00
C297   C     0.72789   0.77476   0.89510   0.00000  Uiso   1.00
C298   C     0.65653   0.83393   0.90299   0.00000  Uiso   1.00
C299   C     0.64655   0.87580   0.95455   0.00000  Uiso   1.00
H300   H     0.90658   0.67781   0.95234   0.00000  Uiso   1.00
H301   H     0.03211   0.75222   0.89644   0.00000  Uiso   1.00
H302   H     0.88098   0.48970   0.95104   0.00000  Uiso   1.00
H303   H     0.82321   0.78677   0.02132   0.00000  Uiso   1.00
H304   H     0.14514   0.84208   0.81589   0.00000  Uiso   1.00
H305   H     0.82646   0.28854   0.93104   0.00000  Uiso   1.00
H306   H     0.70464   0.91497   0.07923   0.00000  Uiso   1.00
H307   H     0.70508   0.73481   0.80928   0.00000  Uiso   1.00
H308   H     0.81956   0.81235   0.74552   0.00000  Uiso   1.00
H309   H     0.66843   0.54982   0.80013   0.00000  Uiso   1.00
H310   H     0.61066   0.84690   0.87041   0.00000  Uiso   1.00
H311   H     0.97263   0.89088   0.69340   0.00000  Uiso   1.00
H312   H     0.65394   0.33733   0.80855   0.00000  Uiso   1.00
H313   H     0.53212   0.96377   0.95674   0.00000  Uiso   1.00
O314   O     0.13783   0.91643   0.71527   0.00000  Uiso   1.00
O315   O     0.71972   0.19021   0.86636   0.00000  Uiso   1.00
O316   O     0.55990   0.01207   0.06079   0.00000  Uiso   1.00
N317   N     0.08883   0.84294   0.79581   0.00000  Uiso   1.00
N318   N     0.79089   0.32541   0.90347   0.00000  Uiso   1.00
N319   N     0.67698   0.91105   0.04202   0.00000  Uiso   1.00
N320   N     0.99600   0.86920   0.72990   0.00000  Uiso   1.00
N321   N     0.69806   0.35167   0.83756   0.00000  Uiso   1.00
N322   N     0.58415   0.93731   0.97611   0.00000  Uiso   1.00
C323   C     0.11405   0.69335   0.07895   0.00000  Uiso   1.00
C324   C     0.07346   0.74210   0.12892   0.00000  Uiso   1.00
C325   C     0.98792   0.76848   0.13405   0.00000  Uiso   1.00
C326   C     0.96339   0.81224   0.18305   0.00000  Uiso   1.00
C327   C     0.89139   0.88535   0.25422   0.00000  Uiso   1.00
C328   C     0.15541   0.59899   0.09980   0.00000  Uiso   1.00
C329   C     0.13878   0.50503   0.08044   0.00000  Uiso   1.00
C330   C     0.18324   0.42833   0.10492   0.00000  Uiso   1.00
C331   C     0.23851   0.27925   0.13085   0.00000  Uiso   1.00
C332   C     0.18764   0.76008   0.06149   0.00000  Uiso   1.00
C333   C     0.19814   0.80156   0.00992   0.00000  Uiso   1.00
C334   C     0.26975   0.86047   0.00213   0.00000  Uiso   1.00
C335   C     0.37508   0.96152   0.96859   0.00000  Uiso   1.00
C336   C     0.22257   0.72418   0.15683   0.00000  Uiso   1.00
C337   C     0.13241   0.75884   0.17123   0.00000  Uiso   1.00
C338   C     0.10799   0.80259   0.22023   0.00000  Uiso   1.00
C339   C     0.02244   0.82902   0.22543   0.00000  Uiso   1.00
C340   C     0.21435   0.61573   0.14210   0.00000  Uiso   1.00
C341   C     0.25885   0.53914   0.16661   0.00000  Uiso   1.00
C342   C     0.24229   0.44510   0.14730   0.00000  Uiso   1.00
C343   C     0.24659   0.77683   0.10380   0.00000  Uiso   1.00
C344   C     0.31821   0.83568   0.09609   0.00000  Uiso   1.00
C345   C     0.32881   0.87724   0.04451   0.00000  Uiso   1.00
H346   H     0.06816   0.68031   0.04601   0.00000  Uiso   1.00
H347   H     0.94232   0.75550   0.10131   0.00000  Uiso   1.00
H348   H     0.09317   0.49210   0.04770   0.00000  Uiso   1.00
H349   H     0.15251   0.78859   0.97719   0.00000  Uiso   1.00
H350   H     0.82880   0.84621   0.18128   0.00000  Uiso   1.00
H351   H     0.14689   0.29083   0.06823   0.00000  Uiso   1.00
H352   H     0.27203   0.91602   0.91954   0.00000  Uiso   1.00
H353   H     0.26847   0.73722   0.18977   0.00000  Uiso   1.00
H354   H     0.15363   0.81553   0.25296   0.00000  Uiso   1.00
H355   H     0.30447   0.55213   0.19935   0.00000  Uiso   1.00
H356   H     0.36381   0.84862   0.12884   0.00000  Uiso   1.00
H357   H     0.00030   0.89493   0.30436   0.00000  Uiso   1.00
H358   H     0.31839   0.33955   0.19131   0.00000  Uiso   1.00
H359   H     0.44353   0.96475   0.04263   0.00000  Uiso   1.00
O360   O     0.83539   0.92103   0.28180   0.00000  Uiso   1.00
O361   O     0.25271   0.19239   0.13347   0.00000  Uiso   1.00
O362   O     0.41689   0.01264   0.93840   0.00000  Uiso   1.00
N363   N     0.88493   0.84695   0.20157   0.00000  Uiso   1.00
N364   N     0.18231   0.32769   0.09588   0.00000  Uiso   1.00
N365   N     0.29932   0.91218   0.95687   0.00000  Uiso   1.00
N366   N     0.97721   0.87317   0.26780   0.00000  Uiso   1.00
N367   N     0.27459   0.35391   0.16211   0.00000  Uiso   1.00
N368   N     0.39160   0.93840   0.02310   0.00000  Uiso   1.00
