data_job_01130
_audit_creation_date              2018-12-19
_audit_creation_method            'Materials Studio'
_symmetry_space_group_name_H-M    'P1'
_symmetry_Int_Tables_number       1
_symmetry_cell_setting            triclinic
loop_
_symmetry_equiv_pos_as_xyz
  x,y,z
_cell_length_a                    11.7477
_cell_length_b                    11.7477
_cell_length_c                    30.8324
_cell_angle_alpha                 90.0000
_cell_angle_beta                  90.0000
_cell_angle_gamma                 120.0000
loop_
_atom_site_label
_atom_site_type_symbol
_atom_site_fract_x
_atom_site_fract_y
_atom_site_fract_z
_atom_site_U_iso_or_equiv
_atom_site_adp_type
_atom_site_occupancy
C1     C     0.83885   0.04002   0.38891   0.00000  Uiso   1.00
C2     C     0.72311   0.98889   0.42023   0.00000  Uiso   1.00
C3     C     0.71535   0.05489   0.45643   0.00000  Uiso   1.00
C4     C     0.60114   0.99141   0.48096   0.00000  Uiso   1.00
C5     C     0.43708   0.93101   0.53133   0.00000  Uiso   1.00
C6     C     0.88105   0.93657   0.38821   0.00000  Uiso   1.00
C7     C     0.00608   0.95860   0.39747   0.00000  Uiso   1.00
C8     C     0.02482   0.85107   0.39504   0.00000  Uiso   1.00
C9     C     0.10599   0.70947   0.39565   0.00000  Uiso   1.00
C10    C     0.78284   0.03689   0.34402   0.00000  Uiso   1.00
C11    C     0.82533   0.14325   0.31613   0.00000  Uiso   1.00
C12    C     0.76140   0.12017   0.27649   0.00000  Uiso   1.00
C13    C     0.69009   0.13433   0.20851   0.00000  Uiso   1.00
C14    C     0.64981   0.80991   0.36809   0.00000  Uiso   1.00
C15    C     0.62044   0.86390   0.40893   0.00000  Uiso   1.00
C16    C     0.50621   0.80031   0.43340   0.00000  Uiso   1.00
C17    C     0.49828   0.86620   0.46963   0.00000  Uiso   1.00
C18    C     0.77838   0.81159   0.37690   0.00000  Uiso   1.00
C19    C     0.79694   0.70401   0.37444   0.00000  Uiso   1.00
C20    C     0.92196   0.72586   0.38371   0.00000  Uiso   1.00
C21    C     0.68017   0.91191   0.33272   0.00000  Uiso   1.00
C22    C     0.61618   0.88866   0.29311   0.00000  Uiso   1.00
C23    C     0.65855   0.99496   0.26516   0.00000  Uiso   1.00
H24    H     0.91879   0.13732   0.39771   0.00000  Uiso   1.00
H25    H     0.79484   0.15161   0.46517   0.00000  Uiso   1.00
H26    H     0.08552   0.05533   0.40622   0.00000  Uiso   1.00
H27    H     0.90479   0.23995   0.32489   0.00000  Uiso   1.00
H28    H     0.61216   0.11231   0.53499   0.00000  Uiso   1.00
H29    H     0.22509   0.90931   0.41067   0.00000  Uiso   1.00
H30    H     0.84398   0.29863   0.23918   0.00000  Uiso   1.00
H31    H     0.56988   0.71260   0.35929   0.00000  Uiso   1.00
H32    H     0.42677   0.70359   0.42465   0.00000  Uiso   1.00
H33    H     0.71746   0.60731   0.36569   0.00000  Uiso   1.00
H34    H     0.53672   0.79193   0.28437   0.00000  Uiso   1.00
H35    H     0.31342   0.74868   0.50210   0.00000  Uiso   1.00
H36    H     0.92636   0.54568   0.37777   0.00000  Uiso   1.00
H37    H     0.54524   0.93500   0.20629   0.00000  Uiso   1.00
O38    O     0.37496   0.93221   0.56224   0.00000  Uiso   1.00
O39    O     0.17912   0.66589   0.39912   0.00000  Uiso   1.00
O40    O     0.67910   0.17666   0.17414   0.00000  Uiso   1.00
N41    N     0.56148   0.02798   0.51828   0.00000  Uiso   1.00
N42    N     0.13453   0.83818   0.40205   0.00000  Uiso   1.00
N43    N     0.77825   0.20215   0.24172   0.00000  Uiso   1.00
N44    N     0.40073   0.83231   0.50058   0.00000  Uiso   1.00
N45    N     0.97378   0.64252   0.38435   0.00000  Uiso   1.00
N46    N     0.61750   0.00649   0.22402   0.00000  Uiso   1.00
C47    C     0.95998   0.79883   0.05557   0.00000  Uiso   1.00
C48    C     0.01111   0.73422   0.08690   0.00000  Uiso   1.00
C49    C     0.94511   0.66046   0.12310   0.00000  Uiso   1.00
C50    C     0.00859   0.60974   0.14763   0.00000  Uiso   1.00
C51    C     0.06899   0.50608   0.19800   0.00000  Uiso   1.00
C52    C     0.06343   0.94447   0.05487   0.00000  Uiso   1.00
C53    C     0.04140   0.04749   0.06414   0.00000  Uiso   1.00
C54    C     0.14893   0.17375   0.06170   0.00000  Uiso   1.00
C55    C     0.29053   0.39652   0.06232   0.00000  Uiso   1.00
C56    C     0.96311   0.74595   0.01069   0.00000  Uiso   1.00
C57    C     0.85675   0.68208   0.98280   0.00000  Uiso   1.00
C58    C     0.87983   0.64123   0.94316   0.00000  Uiso   1.00
C59    C     0.86567   0.55576   0.87518   0.00000  Uiso   1.00
C60    C     0.19009   0.83990   0.03476   0.00000  Uiso   1.00
C61    C     0.13610   0.75654   0.07559   0.00000  Uiso   1.00
C62    C     0.19969   0.70590   0.10007   0.00000  Uiso   1.00
C63    C     0.13380   0.63208   0.13630   0.00000  Uiso   1.00
C64    C     0.18841   0.96679   0.04357   0.00000  Uiso   1.00
C65    C     0.29599   0.09293   0.04111   0.00000  Uiso   1.00
C66    C     0.27414   0.19610   0.05038   0.00000  Uiso   1.00
C67    C     0.08809   0.76826   0.99938   0.00000  Uiso   1.00
C68    C     0.11134   0.72751   0.95977   0.00000  Uiso   1.00
C69    C     0.00504   0.66358   0.93183   0.00000  Uiso   1.00
H70    H     0.86268   0.78147   0.06438   0.00000  Uiso   1.00
H71    H     0.84839   0.64323   0.13184   0.00000  Uiso   1.00
H72    H     0.94467   0.03019   0.07289   0.00000  Uiso   1.00
H73    H     0.76005   0.66484   0.99156   0.00000  Uiso   1.00
H74    H     0.88769   0.49984   0.20166   0.00000  Uiso   1.00
H75    H     0.09069   0.31578   0.07734   0.00000  Uiso   1.00
H76    H     0.70137   0.54535   0.90585   0.00000  Uiso   1.00
H77    H     0.28740   0.85727   0.02596   0.00000  Uiso   1.00
H78    H     0.29641   0.72318   0.09131   0.00000  Uiso   1.00
H79    H     0.39269   0.11015   0.03236   0.00000  Uiso   1.00
H80    H     0.20807   0.74479   0.95103   0.00000  Uiso   1.00
H81    H     0.25132   0.56474   0.16877   0.00000  Uiso   1.00
H82    H     0.45432   0.38068   0.04444   0.00000  Uiso   1.00
H83    H     0.06500   0.61025   0.87295   0.00000  Uiso   1.00
O84    O     0.06779   0.44276   0.22891   0.00000  Uiso   1.00
O85    O     0.33411   0.51323   0.06579   0.00000  Uiso   1.00
O86    O     0.82334   0.50244   0.84080   0.00000  Uiso   1.00
N87    N     0.97202   0.53350   0.18494   0.00000  Uiso   1.00
N88    N     0.16182   0.29635   0.06872   0.00000  Uiso   1.00
N89    N     0.79785   0.57609   0.90838   0.00000  Uiso   1.00
N90    N     0.16769   0.56842   0.16724   0.00000  Uiso   1.00
N91    N     0.35748   0.33127   0.05102   0.00000  Uiso   1.00
N92    N     0.99351   0.61101   0.89068   0.00000  Uiso   1.00
C93    C     0.20117   0.16115   0.72224   0.00000  Uiso   1.00
C94    C     0.26578   0.27689   0.75357   0.00000  Uiso   1.00
C95    C     0.33954   0.28465   0.78977   0.00000  Uiso   1.00
C96    C     0.39026   0.39886   0.81429   0.00000  Uiso   1.00
C97    C     0.49392   0.56292   0.86466   0.00000  Uiso   1.00
C98    C     0.05553   0.11895   0.72154   0.00000  Uiso   1.00
C99    C     0.95251   0.99392   0.73081   0.00000  Uiso   1.00
C100   C     0.82625   0.97518   0.72837   0.00000  Uiso   1.00
C101   C     0.60348   0.89401   0.72899   0.00000  Uiso   1.00
C102   C     0.25405   0.21716   0.67736   0.00000  Uiso   1.00
C103   C     0.31792   0.17467   0.64947   0.00000  Uiso   1.00
C104   C     0.35877   0.23860   0.60982   0.00000  Uiso   1.00
C105   C     0.44424   0.30991   0.54184   0.00000  Uiso   1.00
C106   C     0.16010   0.35019   0.70143   0.00000  Uiso   1.00
C107   C     0.24346   0.37956   0.74226   0.00000  Uiso   1.00
C108   C     0.29410   0.49379   0.76674   0.00000  Uiso   1.00
C109   C     0.36792   0.50172   0.80297   0.00000  Uiso   1.00
C110   C     0.03321   0.22162   0.71023   0.00000  Uiso   1.00
C111   C     0.90707   0.20306   0.70778   0.00000  Uiso   1.00
C112   C     0.80390   0.07804   0.71704   0.00000  Uiso   1.00
C113   C     0.23174   0.31983   0.66605   0.00000  Uiso   1.00
C114   C     0.27249   0.38382   0.62644   0.00000  Uiso   1.00
C115   C     0.33642   0.34145   0.59850   0.00000  Uiso   1.00
H116   H     0.21853   0.08121   0.73104   0.00000  Uiso   1.00
H117   H     0.35677   0.20516   0.79851   0.00000  Uiso   1.00
H118   H     0.96981   0.91448   0.73955   0.00000  Uiso   1.00
H119   H     0.33516   0.09521   0.65823   0.00000  Uiso   1.00
H120   H     0.50016   0.38784   0.86833   0.00000  Uiso   1.00
H121   H     0.68422   0.77491   0.74400   0.00000  Uiso   1.00
H122   H     0.45465   0.15602   0.57251   0.00000  Uiso   1.00
H123   H     0.14273   0.43012   0.69262   0.00000  Uiso   1.00
H124   H     0.27682   0.57323   0.75798   0.00000  Uiso   1.00
H125   H     0.88985   0.28254   0.69903   0.00000  Uiso   1.00
H126   H     0.25521   0.46328   0.61770   0.00000  Uiso   1.00
H127   H     0.43526   0.68658   0.83543   0.00000  Uiso   1.00
H128   H     0.61932   0.07364   0.71111   0.00000  Uiso   1.00
H129   H     0.38975   0.45476   0.53962   0.00000  Uiso   1.00
O130   O     0.55724   0.62504   0.89557   0.00000  Uiso   1.00
O131   O     0.48677   0.82088   0.73246   0.00000  Uiso   1.00
O132   O     0.49756   0.32090   0.50747   0.00000  Uiso   1.00
N133   N     0.46650   0.43852   0.85161   0.00000  Uiso   1.00
N134   N     0.70365   0.86547   0.73538   0.00000  Uiso   1.00
N135   N     0.42391   0.22175   0.57505   0.00000  Uiso   1.00
N136   N     0.43158   0.59927   0.83391   0.00000  Uiso   1.00
N137   N     0.66873   0.02622   0.71768   0.00000  Uiso   1.00
N138   N     0.38899   0.38250   0.55735   0.00000  Uiso   1.00
C139   C     0.04002   0.83885   0.61109   0.00000  Uiso   1.00
C140   C     0.98889   0.72311   0.57977   0.00000  Uiso   1.00
C141   C     0.05489   0.71535   0.54357   0.00000  Uiso   1.00
C142   C     0.99141   0.60114   0.51904   0.00000  Uiso   1.00
C143   C     0.93101   0.43708   0.46867   0.00000  Uiso   1.00
C144   C     0.93657   0.88105   0.61179   0.00000  Uiso   1.00
C145   C     0.95860   0.00608   0.60253   0.00000  Uiso   1.00
C146   C     0.85107   0.02482   0.60496   0.00000  Uiso   1.00
C147   C     0.70947   0.10599   0.60435   0.00000  Uiso   1.00
C148   C     0.03689   0.78284   0.65598   0.00000  Uiso   1.00
C149   C     0.14325   0.82533   0.68387   0.00000  Uiso   1.00
C150   C     0.12017   0.76140   0.72351   0.00000  Uiso   1.00
C151   C     0.13433   0.69009   0.79149   0.00000  Uiso   1.00
C152   C     0.80991   0.64981   0.63191   0.00000  Uiso   1.00
C153   C     0.86390   0.62044   0.59107   0.00000  Uiso   1.00
C154   C     0.80031   0.50621   0.56660   0.00000  Uiso   1.00
C155   C     0.86620   0.49828   0.53037   0.00000  Uiso   1.00
C156   C     0.81159   0.77838   0.62310   0.00000  Uiso   1.00
C157   C     0.70401   0.79694   0.62556   0.00000  Uiso   1.00
C158   C     0.72586   0.92196   0.61629   0.00000  Uiso   1.00
C159   C     0.91191   0.68017   0.66728   0.00000  Uiso   1.00
C160   C     0.88866   0.61618   0.70689   0.00000  Uiso   1.00
C161   C     0.99496   0.65855   0.73484   0.00000  Uiso   1.00
H162   H     0.13732   0.91879   0.60229   0.00000  Uiso   1.00
H163   H     0.15161   0.79484   0.53483   0.00000  Uiso   1.00
H164   H     0.05533   0.08552   0.59378   0.00000  Uiso   1.00
H165   H     0.23995   0.90479   0.67511   0.00000  Uiso   1.00
H166   H     0.11231   0.61216   0.46501   0.00000  Uiso   1.00
H167   H     0.90931   0.22509   0.58933   0.00000  Uiso   1.00
H168   H     0.29863   0.84398   0.76082   0.00000  Uiso   1.00
H169   H     0.71260   0.56988   0.64071   0.00000  Uiso   1.00
H170   H     0.70359   0.42677   0.57535   0.00000  Uiso   1.00
H171   H     0.60731   0.71746   0.63431   0.00000  Uiso   1.00
H172   H     0.79193   0.53672   0.71563   0.00000  Uiso   1.00
H173   H     0.74868   0.31342   0.49790   0.00000  Uiso   1.00
H174   H     0.54568   0.92636   0.62223   0.00000  Uiso   1.00
H175   H     0.93500   0.54524   0.79371   0.00000  Uiso   1.00
O176   O     0.93221   0.37496   0.43776   0.00000  Uiso   1.00
O177   O     0.66589   0.17912   0.60088   0.00000  Uiso   1.00
O178   O     0.17666   0.67910   0.82586   0.00000  Uiso   1.00
N179   N     0.02798   0.56148   0.48172   0.00000  Uiso   1.00
N180   N     0.83818   0.13453   0.59795   0.00000  Uiso   1.00
N181   N     0.20215   0.77825   0.75828   0.00000  Uiso   1.00
N182   N     0.83231   0.40073   0.49942   0.00000  Uiso   1.00
N183   N     0.64252   0.97378   0.61565   0.00000  Uiso   1.00
N184   N     0.00649   0.61750   0.77598   0.00000  Uiso   1.00
C185   C     0.79883   0.95998   0.94443   0.00000  Uiso   1.00
C186   C     0.73422   0.01111   0.91310   0.00000  Uiso   1.00
C187   C     0.66046   0.94511   0.87690   0.00000  Uiso   1.00
C188   C     0.60974   0.00859   0.85237   0.00000  Uiso   1.00
C189   C     0.50608   0.06899   0.80200   0.00000  Uiso   1.00
C190   C     0.94447   0.06343   0.94513   0.00000  Uiso   1.00
C191   C     0.04749   0.04140   0.93586   0.00000  Uiso   1.00
C192   C     0.17375   0.14893   0.93830   0.00000  Uiso   1.00
C193   C     0.39652   0.29053   0.93768   0.00000  Uiso   1.00
C194   C     0.74595   0.96311   0.98931   0.00000  Uiso   1.00
C195   C     0.68208   0.85675   0.01720   0.00000  Uiso   1.00
C196   C     0.64123   0.87983   0.05684   0.00000  Uiso   1.00
C197   C     0.55576   0.86567   0.12482   0.00000  Uiso   1.00
C198   C     0.83990   0.19009   0.96524   0.00000  Uiso   1.00
C199   C     0.75654   0.13610   0.92441   0.00000  Uiso   1.00
C200   C     0.70590   0.19969   0.89993   0.00000  Uiso   1.00
C201   C     0.63208   0.13380   0.86370   0.00000  Uiso   1.00
C202   C     0.96679   0.18841   0.95643   0.00000  Uiso   1.00
C203   C     0.09293   0.29599   0.95889   0.00000  Uiso   1.00
C204   C     0.19610   0.27414   0.94962   0.00000  Uiso   1.00
C205   C     0.76826   0.08809   0.00062   0.00000  Uiso   1.00
C206   C     0.72751   0.11134   0.04023   0.00000  Uiso   1.00
C207   C     0.66358   0.00504   0.06817   0.00000  Uiso   1.00
H208   H     0.78147   0.86268   0.93562   0.00000  Uiso   1.00
H209   H     0.64323   0.84839   0.86816   0.00000  Uiso   1.00
H210   H     0.03019   0.94467   0.92711   0.00000  Uiso   1.00
H211   H     0.66484   0.76005   0.00844   0.00000  Uiso   1.00
H212   H     0.49984   0.88769   0.79834   0.00000  Uiso   1.00
H213   H     0.31578   0.09069   0.92266   0.00000  Uiso   1.00
H214   H     0.54535   0.70137   0.09415   0.00000  Uiso   1.00
H215   H     0.85727   0.28740   0.97404   0.00000  Uiso   1.00
H216   H     0.72318   0.29641   0.90869   0.00000  Uiso   1.00
H217   H     0.11015   0.39269   0.96764   0.00000  Uiso   1.00
H218   H     0.74479   0.20807   0.04897   0.00000  Uiso   1.00
H219   H     0.56474   0.25132   0.83123   0.00000  Uiso   1.00
H220   H     0.38068   0.45432   0.95556   0.00000  Uiso   1.00
H221   H     0.61025   0.06500   0.12705   0.00000  Uiso   1.00
O222   O     0.44276   0.06779   0.77109   0.00000  Uiso   1.00
O223   O     0.51323   0.33411   0.93421   0.00000  Uiso   1.00
O224   O     0.50244   0.82334   0.15920   0.00000  Uiso   1.00
N225   N     0.53350   0.97202   0.81506   0.00000  Uiso   1.00
N226   N     0.29635   0.16182   0.93128   0.00000  Uiso   1.00
N227   N     0.57609   0.79785   0.09162   0.00000  Uiso   1.00
N228   N     0.56842   0.16769   0.83276   0.00000  Uiso   1.00
N229   N     0.33127   0.35748   0.94898   0.00000  Uiso   1.00
N230   N     0.61101   0.99351   0.10932   0.00000  Uiso   1.00
C231   C     0.16115   0.20117   0.27776   0.00000  Uiso   1.00
C232   C     0.27689   0.26578   0.24643   0.00000  Uiso   1.00
C233   C     0.28465   0.33954   0.21023   0.00000  Uiso   1.00
C234   C     0.39886   0.39026   0.18571   0.00000  Uiso   1.00
C235   C     0.56292   0.49392   0.13534   0.00000  Uiso   1.00
C236   C     0.11895   0.05553   0.27846   0.00000  Uiso   1.00
C237   C     0.99392   0.95251   0.26919   0.00000  Uiso   1.00
C238   C     0.97518   0.82625   0.27163   0.00000  Uiso   1.00
C239   C     0.89401   0.60348   0.27101   0.00000  Uiso   1.00
C240   C     0.21716   0.25405   0.32264   0.00000  Uiso   1.00
C241   C     0.17467   0.31792   0.35053   0.00000  Uiso   1.00
C242   C     0.23860   0.35877   0.39018   0.00000  Uiso   1.00
C243   C     0.30991   0.44424   0.45816   0.00000  Uiso   1.00
C244   C     0.35019   0.16010   0.29857   0.00000  Uiso   1.00
C245   C     0.37956   0.24346   0.25774   0.00000  Uiso   1.00
C246   C     0.49379   0.29410   0.23326   0.00000  Uiso   1.00
C247   C     0.50172   0.36792   0.19703   0.00000  Uiso   1.00
C248   C     0.22162   0.03321   0.28977   0.00000  Uiso   1.00
C249   C     0.20306   0.90707   0.29222   0.00000  Uiso   1.00
C250   C     0.07804   0.80390   0.28296   0.00000  Uiso   1.00
C251   C     0.31983   0.23174   0.33395   0.00000  Uiso   1.00
C252   C     0.38382   0.27249   0.37356   0.00000  Uiso   1.00
C253   C     0.34145   0.33642   0.40150   0.00000  Uiso   1.00
H254   H     0.08121   0.21853   0.26896   0.00000  Uiso   1.00
H255   H     0.20516   0.35677   0.20149   0.00000  Uiso   1.00
H256   H     0.91448   0.96981   0.26045   0.00000  Uiso   1.00
H257   H     0.09521   0.33516   0.34177   0.00000  Uiso   1.00
H258   H     0.38784   0.50016   0.13167   0.00000  Uiso   1.00
H259   H     0.77491   0.68422   0.25600   0.00000  Uiso   1.00
H260   H     0.15602   0.45465   0.42749   0.00000  Uiso   1.00
H261   H     0.43012   0.14273   0.30738   0.00000  Uiso   1.00
H262   H     0.57323   0.27682   0.24202   0.00000  Uiso   1.00
H263   H     0.28254   0.88985   0.30097   0.00000  Uiso   1.00
H264   H     0.46328   0.25521   0.38230   0.00000  Uiso   1.00
H265   H     0.68658   0.43526   0.16457   0.00000  Uiso   1.00
H266   H     0.07364   0.61932   0.28889   0.00000  Uiso   1.00
H267   H     0.45476   0.38975   0.46038   0.00000  Uiso   1.00
O268   O     0.62504   0.55724   0.10443   0.00000  Uiso   1.00
O269   O     0.82088   0.48677   0.26754   0.00000  Uiso   1.00
O270   O     0.32090   0.49756   0.49253   0.00000  Uiso   1.00
N271   N     0.43852   0.46650   0.14839   0.00000  Uiso   1.00
N272   N     0.86547   0.70365   0.26462   0.00000  Uiso   1.00
N273   N     0.22175   0.42391   0.42495   0.00000  Uiso   1.00
N274   N     0.59927   0.43158   0.16609   0.00000  Uiso   1.00
N275   N     0.02622   0.66873   0.28232   0.00000  Uiso   1.00
N276   N     0.38250   0.38899   0.44265   0.00000  Uiso   1.00
