data_job_06925
_audit_creation_date              2018-12-19
_audit_creation_method            'Materials Studio'
_symmetry_space_group_name_H-M    'P1'
_symmetry_Int_Tables_number       1
_symmetry_cell_setting            triclinic
loop_
_symmetry_equiv_pos_as_xyz
  x,y,z
_cell_length_a                    20.6006
_cell_length_b                    22.1260
_cell_length_c                    21.4775
_cell_angle_alpha                 66.7715
_cell_angle_beta                  68.5097
_cell_angle_gamma                 63.9097
loop_
_atom_site_label
_atom_site_type_symbol
_atom_site_fract_x
_atom_site_fract_y
_atom_site_fract_z
_atom_site_U_iso_or_equiv
_atom_site_adp_type
_atom_site_occupancy
C1     C     0.08026   0.92120   0.71699   0.00000  Uiso   1.00
C2     C     0.04047   0.99957   0.68936   0.00000  Uiso   1.00
C3     C     0.05815   0.04048   0.62176   0.00000  Uiso   1.00
C4     C     0.01508   0.11114   0.60682   0.00000  Uiso   1.00
C5     C     0.96224   0.22848   0.55619   0.00000  Uiso   1.00
C6     C     0.10575   0.91257   0.77926   0.00000  Uiso   1.00
C7     C     0.17831   0.88031   0.78724   0.00000  Uiso   1.00
C8     C     0.19019   0.87773   0.84798   0.00000  Uiso   1.00
C9     C     0.23869   0.85994   0.93693   0.00000  Uiso   1.00
C10    C     0.02059   0.88762   0.74656   0.00000  Uiso   1.00
C11    C     0.02156   0.83437   0.72707   0.00000  Uiso   1.00
C12    C     0.96175   0.81078   0.76029   0.00000  Uiso   1.00
C13    C     0.87803   0.75426   0.79848   0.00000  Uiso   1.00
C14    C     0.97232   0.97396   0.81068   0.00000  Uiso   1.00
C15    C     0.98185   0.02823   0.74026   0.00000  Uiso   1.00
C16    C     0.93873   0.09885   0.72542   0.00000  Uiso   1.00
C17    C     0.95634   0.13985   0.65780   0.00000  Uiso   1.00
C18    C     0.04713   0.94122   0.83015   0.00000  Uiso   1.00
C19    C     0.05889   0.93868   0.89089   0.00000  Uiso   1.00
C20    C     0.13146   0.90643   0.89896   0.00000  Uiso   1.00
C21    C     0.96196   0.91628   0.79745   0.00000  Uiso   1.00
C22    C     0.90214   0.89275   0.83072   0.00000  Uiso   1.00
C23    C     0.90302   0.83949   0.81128   0.00000  Uiso   1.00
H24    H     0.12590   0.89889   0.67738   0.00000  Uiso   1.00
H25    H     0.10353   0.01828   0.58239   0.00000  Uiso   1.00
H26    H     0.22367   0.85813   0.74785   0.00000  Uiso   1.00
H27    H     0.06694   0.81221   0.68768   0.00000  Uiso   1.00
H28    H     0.05289   0.16329   0.49954   0.00000  Uiso   1.00
H29    H     0.30620   0.82559   0.84842   0.00000  Uiso   1.00
H30    H     0.97572   0.72875   0.72155   0.00000  Uiso   1.00
H31    H     0.92668   0.99627   0.85031   0.00000  Uiso   1.00
H32    H     0.89337   0.12101   0.76481   0.00000  Uiso   1.00
H33    H     0.01351   0.96086   0.93026   0.00000  Uiso   1.00
H34    H     0.85678   0.91494   0.87010   0.00000  Uiso   1.00
H35    H     0.88231   0.24668   0.64759   0.00000  Uiso   1.00
H36    H     0.13563   0.90897   0.99648   0.00000  Uiso   1.00
H37    H     0.80514   0.81213   0.86961   0.00000  Uiso   1.00
O38    O     0.94930   0.28529   0.51421   0.00000  Uiso   1.00
O39    O     0.28164   0.84222   0.97193   0.00000  Uiso   1.00
O40    O     0.84805   0.71518   0.80548   0.00000  Uiso   1.00
N41    N     0.01730   0.16580   0.54611   0.00000  Uiso   1.00
N42    N     0.25414   0.85007   0.87229   0.00000  Uiso   1.00
N43    N     0.94517   0.75952   0.75369   0.00000  Uiso   1.00
N44    N     0.92552   0.21066   0.62578   0.00000  Uiso   1.00
N45    N     0.16236   0.89494   0.95196   0.00000  Uiso   1.00
N46    N     0.85339   0.80439   0.83336   0.00000  Uiso   1.00
C47    C     0.73016   0.15516   0.96898   0.00000  Uiso   1.00
C48    C     0.66973   0.14063   0.03395   0.00000  Uiso   1.00
C49    C     0.61060   0.19069   0.06391   0.00000  Uiso   1.00
C50    C     0.56130   0.16679   0.12324   0.00000  Uiso   1.00
C51    C     0.46604   0.15509   0.21984   0.00000  Uiso   1.00
C52    C     0.80384   0.11130   0.99056   0.00000  Uiso   1.00
C53    C     0.85746   0.13671   0.98403   0.00000  Uiso   1.00
C54    C     0.92105   0.08811   0.00683   0.00000  Uiso   1.00
C55    C     0.03401   0.03087   0.03601   0.00000  Uiso   1.00
C56    C     0.72897   0.12344   0.91813   0.00000  Uiso   1.00
C57    C     0.71966   0.15904   0.85069   0.00000  Uiso   1.00
C58    C     0.72023   0.12066   0.81249   0.00000  Uiso   1.00
C59    C     0.71695   0.08227   0.72922   0.00000  Uiso   1.00
C60    C     0.74775   0.02369   0.02107   0.00000  Uiso   1.00
C61    C     0.67929   0.06922   0.06224   0.00000  Uiso   1.00
C62    C     0.63007   0.04523   0.12154   0.00000  Uiso   1.00
C63    C     0.57087   0.09525   0.15158   0.00000  Uiso   1.00
C64    C     0.81340   0.03989   0.01885   0.00000  Uiso   1.00
C65    C     0.87692   0.99125   0.04166   0.00000  Uiso   1.00
C66    C     0.93063   0.01657   0.03517   0.00000  Uiso   1.00
C67    C     0.73852   0.05203   0.94642   0.00000  Uiso   1.00
C68    C     0.73912   0.01358   0.90832   0.00000  Uiso   1.00
C69    C     0.72981   0.04912   0.84083   0.00000  Uiso   1.00
H70    H     0.72272   0.21075   0.94696   0.00000  Uiso   1.00
H71    H     0.60323   0.24595   0.04201   0.00000  Uiso   1.00
H72    H     0.85005   0.19197   0.96213   0.00000  Uiso   1.00
H73    H     0.71226   0.21430   0.82881   0.00000  Uiso   1.00
H74    H     0.47498   0.25348   0.15988   0.00000  Uiso   1.00
H75    H     0.99542   0.13965   0.99143   0.00000  Uiso   1.00
H76    H     0.70488   0.18675   0.71030   0.00000  Uiso   1.00
H77    H     0.75520   0.96809   0.04310   0.00000  Uiso   1.00
H78    H     0.63748   0.98997   0.14342   0.00000  Uiso   1.00
H79    H     0.88430   0.93599   0.06355   0.00000  Uiso   1.00
H80    H     0.74652   0.95832   0.93023   0.00000  Uiso   1.00
H81    H     0.50278   0.04571   0.24220   0.00000  Uiso   1.00
H82    H     0.02323   0.93189   0.07374   0.00000  Uiso   1.00
H83    H     0.73269   0.97899   0.79262   0.00000  Uiso   1.00
O84    O     0.41087   0.16836   0.26532   0.00000  Uiso   1.00
O85    O     0.09368   0.01903   0.04430   0.00000  Uiso   1.00
O86    O     0.71249   0.08083   0.67547   0.00000  Uiso   1.00
N87    N     0.49766   0.20158   0.16548   0.00000  Uiso   1.00
N88    N     0.98425   0.09516   0.00800   0.00000  Uiso   1.00
N89    N     0.71264   0.13919   0.74516   0.00000  Uiso   1.00
N90    N     0.51262   0.08978   0.20977   0.00000  Uiso   1.00
N91    N     0.99921   0.98337   0.05229   0.00000  Uiso   1.00
N92    N     0.72760   0.02740   0.78945   0.00000  Uiso   1.00
C93    C     0.91017   0.66500   0.14357   0.00000  Uiso   1.00
C94    C     0.97521   0.68194   0.08606   0.00000  Uiso   1.00
C95    C     0.04893   0.63785   0.07802   0.00000  Uiso   1.00
C96    C     0.10012   0.66304   0.02204   0.00000  Uiso   1.00
C97    C     0.20444   0.67917   0.93978   0.00000  Uiso   1.00
C98    C     0.87352   0.72315   0.17957   0.00000  Uiso   1.00
C99    C     0.86174   0.71372   0.25015   0.00000  Uiso   1.00
C100   C     0.82731   0.77361   0.27289   0.00000  Uiso   1.00
C101   C     0.77371   0.85373   0.33582   0.00000  Uiso   1.00
C102   C     0.85422   0.67431   0.10678   0.00000  Uiso   1.00
C103   C     0.82621   0.62382   0.11617   0.00000  Uiso   1.00
C104   C     0.77553   0.64260   0.07764   0.00000  Uiso   1.00
C105   C     0.69197   0.64689   0.02755   0.00000  Uiso   1.00
C106   C     0.86996   0.78815   0.05845   0.00000  Uiso   1.00
C107   C     0.95337   0.74883   0.03982   0.00000  Uiso   1.00
C108   C     0.00445   0.77409   0.98384   0.00000  Uiso   1.00
C109   C     0.07825   0.73005   0.97572   0.00000  Uiso   1.00
C110   C     0.85168   0.79004   0.13333   0.00000  Uiso   1.00
C111   C     0.81726   0.84996   0.15597   0.00000  Uiso   1.00
C112   C     0.80544   0.84062   0.22658   0.00000  Uiso   1.00
C113   C     0.83239   0.74120   0.06054   0.00000  Uiso   1.00
C114   C     0.78173   0.76007   0.02199   0.00000  Uiso   1.00
C115   C     0.75365   0.70961   0.03133   0.00000  Uiso   1.00
H116   H     0.92716   0.61293   0.17957   0.00000  Uiso   1.00
H117   H     0.06581   0.58609   0.11381   0.00000  Uiso   1.00
H118   H     0.87864   0.66195   0.28592   0.00000  Uiso   1.00
H119   H     0.84312   0.57206   0.15196   0.00000  Uiso   1.00
H120   H     0.20991   0.58584   0.02053   0.00000  Uiso   1.00
H121   H     0.81521   0.74579   0.38343   0.00000  Uiso   1.00
H122   H     0.74031   0.55625   0.10095   0.00000  Uiso   1.00
H123   H     0.85296   0.84023   0.02246   0.00000  Uiso   1.00
H124   H     0.98754   0.82586   0.94807   0.00000  Uiso   1.00
H125   H     0.80036   0.90172   0.12018   0.00000  Uiso   1.00
H126   H     0.76484   0.81183   0.98622   0.00000  Uiso   1.00
H127   H     0.14638   0.78044   0.88601   0.00000  Uiso   1.00
H128   H     0.75168   0.94039   0.24891   0.00000  Uiso   1.00
H129   H     0.67678   0.75086   0.96643   0.00000  Uiso   1.00
O130   O     0.26801   0.66959   0.90719   0.00000  Uiso   1.00
O131   O     0.75018   0.87944   0.38330   0.00000  Uiso   1.00
O132   O     0.65192   0.63077   0.01269   0.00000  Uiso   1.00
N133   N     0.17648   0.63360   0.99907   0.00000  Uiso   1.00
N134   N     0.80748   0.78315   0.33836   0.00000  Uiso   1.00
N135   N     0.73744   0.60595   0.07428   0.00000  Uiso   1.00
N136   N     0.14230   0.73832   0.92669   0.00000  Uiso   1.00
N137   N     0.77329   0.88786   0.26597   0.00000  Uiso   1.00
N138   N     0.70325   0.71067   0.00189   0.00000  Uiso   1.00
C139   C     0.68069   0.16822   0.52461   0.00000  Uiso   1.00
C140   C     0.60027   0.17096   0.54831   0.00000  Uiso   1.00
C141   C     0.55558   0.16970   0.61502   0.00000  Uiso   1.00
C142   C     0.48357   0.17269   0.62620   0.00000  Uiso   1.00
C143   C     0.36269   0.17637   0.67115   0.00000  Uiso   1.00
C144   C     0.68299   0.23317   0.46323   0.00000  Uiso   1.00
C145   C     0.70787   0.28420   0.45842   0.00000  Uiso   1.00
C146   C     0.70551   0.33956   0.39797   0.00000  Uiso   1.00
C147   C     0.71311   0.43979   0.31081   0.00000  Uiso   1.00
C148   C     0.72562   0.10571   0.49460   0.00000  Uiso   1.00
C149   C     0.78636   0.04958   0.51613   0.00000  Uiso   1.00
C150   C     0.81990   0.99763   0.48207   0.00000  Uiso   1.00
C151   C     0.89369   0.89996   0.44361   0.00000  Uiso   1.00
C152   C     0.63227   0.17579   0.42582   0.00000  Uiso   1.00
C153   C     0.57397   0.17508   0.49465   0.00000  Uiso   1.00
C154   C     0.50202   0.17808   0.50572   0.00000  Uiso   1.00
C155   C     0.45723   0.17681   0.57245   0.00000  Uiso   1.00
C156   C     0.65670   0.23729   0.40958   0.00000  Uiso   1.00
C157   C     0.65430   0.29258   0.34912   0.00000  Uiso   1.00
C158   C     0.67916   0.34369   0.34421   0.00000  Uiso   1.00
C159   C     0.69933   0.10982   0.44094   0.00000  Uiso   1.00
C160   C     0.73279   0.05796   0.40683   0.00000  Uiso   1.00
C161   C     0.79356   0.00175   0.42832   0.00000  Uiso   1.00
H162   H     0.70116   0.16502   0.56639   0.00000  Uiso   1.00
H163   H     0.57595   0.16652   0.65654   0.00000  Uiso   1.00
H164   H     0.72822   0.28100   0.49995   0.00000  Uiso   1.00
H165   H     0.80669   0.04641   0.55766   0.00000  Uiso   1.00
H166   H     0.42552   0.17002   0.73281   0.00000  Uiso   1.00
H167   H     0.74662   0.41141   0.40263   0.00000  Uiso   1.00
H168   H     0.91210   0.91673   0.52432   0.00000  Uiso   1.00
H169   H     0.61180   0.17900   0.38404   0.00000  Uiso   1.00
H170   H     0.48168   0.18126   0.46419   0.00000  Uiso   1.00
H171   H     0.63395   0.29575   0.30760   0.00000  Uiso   1.00
H172   H     0.71243   0.06116   0.36531   0.00000  Uiso   1.00
H173   H     0.34901   0.18199   0.57670   0.00000  Uiso   1.00
H174   H     0.67011   0.42338   0.24651   0.00000  Uiso   1.00
H175   H     0.83558   0.92870   0.36820   0.00000  Uiso   1.00
O176   O     0.30327   0.17727   0.71076   0.00000  Uiso   1.00
O177   O     0.72456   0.49395   0.27757   0.00000  Uiso   1.00
O178   O     0.94165   0.84494   0.43723   0.00000  Uiso   1.00
N179   N     0.42538   0.17251   0.68507   0.00000  Uiso   1.00
N180   N     0.72557   0.39820   0.37638   0.00000  Uiso   1.00
N181   N     0.88029   0.93573   0.49014   0.00000  Uiso   1.00
N182   N     0.38421   0.17895   0.60107   0.00000  Uiso   1.00
N183   N     0.68440   0.40464   0.29237   0.00000  Uiso   1.00
N184   N     0.83912   0.94216   0.40613   0.00000  Uiso   1.00
C185   C     0.25303   0.42351   0.66130   0.00000  Uiso   1.00
C186   C     0.23359   0.49535   0.60845   0.00000  Uiso   1.00
C187   C     0.18857   0.55844   0.62415   0.00000  Uiso   1.00
C188   C     0.17760   0.61842   0.56838   0.00000  Uiso   1.00
C189   C     0.14245   0.73044   0.49680   0.00000  Uiso   1.00
C190   C     0.33769   0.39318   0.64637   0.00000  Uiso   1.00
C191   C     0.38019   0.37037   0.69396   0.00000  Uiso   1.00
C192   C     0.45684   0.34434   0.67012   0.00000  Uiso   1.00
C193   C     0.58330   0.29770   0.65743   0.00000  Uiso   1.00
C194   C     0.22931   0.37810   0.64208   0.00000  Uiso   1.00
C195   C     0.18070   0.34259   0.68606   0.00000  Uiso   1.00
C196   C     0.16612   0.30384   0.65860   0.00000  Uiso   1.00
C197   C     0.12430   0.23379   0.63925   0.00000  Uiso   1.00
C198   C     0.31359   0.41783   0.53434   0.00000  Uiso   1.00
C199   C     0.26649   0.49226   0.53949   0.00000  Uiso   1.00
C200   C     0.25558   0.55216   0.48368   0.00000  Uiso   1.00
C201   C     0.21055   0.61533   0.49929   0.00000  Uiso   1.00
C202   C     0.37058   0.39010   0.57741   0.00000  Uiso   1.00
C203   C     0.44719   0.36409   0.55349   0.00000  Uiso   1.00
C204   C     0.48980   0.34125   0.60103   0.00000  Uiso   1.00
C205   C     0.26220   0.37502   0.57311   0.00000  Uiso   1.00
C206   C     0.24770   0.33632   0.54559   0.00000  Uiso   1.00
C207   C     0.19908   0.30076   0.58952   0.00000  Uiso   1.00
H208   H     0.22742   0.42590   0.71499   0.00000  Uiso   1.00
H209   H     0.16313   0.56080   0.67753   0.00000  Uiso   1.00
H210   H     0.35472   0.37275   0.74733   0.00000  Uiso   1.00
H211   H     0.15526   0.34498   0.73942   0.00000  Uiso   1.00
H212   H     0.10639   0.70900   0.60558   0.00000  Uiso   1.00
H213   H     0.51035   0.31248   0.75276   0.00000  Uiso   1.00
H214   H     0.08975   0.25391   0.73610   0.00000  Uiso   1.00
H215   H     0.33920   0.41543   0.48065   0.00000  Uiso   1.00
H216   H     0.28104   0.54976   0.43032   0.00000  Uiso   1.00
H217   H     0.47262   0.36171   0.50012   0.00000  Uiso   1.00
H218   H     0.27316   0.33395   0.49222   0.00000  Uiso   1.00
H219   H     0.20209   0.70005   0.40493   0.00000  Uiso   1.00
H220   H     0.60605   0.30351   0.55213   0.00000  Uiso   1.00
H221   H     0.18545   0.24496   0.53546   0.00000  Uiso   1.00
O222   O     0.11398   0.79308   0.47638   0.00000  Uiso   1.00
O223   O     0.64396   0.27284   0.66949   0.00000  Uiso   1.00
O224   O     0.09214   0.19601   0.64762   0.00000  Uiso   1.00
N225   N     0.13688   0.68846   0.56526   0.00000  Uiso   1.00
N226   N     0.51456   0.31774   0.70287   0.00000  Uiso   1.00
N227   N     0.12135   0.26297   0.68729   0.00000  Uiso   1.00
N228   N     0.18837   0.68364   0.45730   0.00000  Uiso   1.00
N229   N     0.56605   0.31292   0.59491   0.00000  Uiso   1.00
N230   N     0.17284   0.25815   0.57933   0.00000  Uiso   1.00
C231   C     0.49765   0.57434   0.16518   0.00000  Uiso   1.00
C232   C     0.53933   0.50482   0.14688   0.00000  Uiso   1.00
C233   C     0.60416   0.49004   0.09560   0.00000  Uiso   1.00
C234   C     0.63369   0.42332   0.08694   0.00000  Uiso   1.00
C235   C     0.70363   0.32298   0.05230   0.00000  Uiso   1.00
C236   C     0.49198   0.55708   0.24268   0.00000  Uiso   1.00
C237   C     0.51698   0.58625   0.27194   0.00000  Uiso   1.00
C238   C     0.50662   0.56353   0.34391   0.00000  Uiso   1.00
C239   C     0.50300   0.54437   0.45799   0.00000  Uiso   1.00
C240   C     0.41855   0.59793   0.15792   0.00000  Uiso   1.00
C241   C     0.38181   0.66145   0.11594   0.00000  Uiso   1.00
C242   C     0.30963   0.67314   0.11657   0.00000  Uiso   1.00
C243   C     0.19201   0.71740   0.09906   0.00000  Uiso   1.00
C244   C     0.43478   0.48215   0.24098   0.00000  Uiso   1.00
C245   C     0.50519   0.45475   0.18806   0.00000  Uiso   1.00
C246   C     0.53462   0.38804   0.17947   0.00000  Uiso   1.00
C247   C     0.59948   0.37315   0.12819   0.00000  Uiso   1.00
C248   C     0.45783   0.50701   0.28385   0.00000  Uiso   1.00
C249   C     0.44743   0.48425   0.35580   0.00000  Uiso   1.00
C250   C     0.47242   0.51337   0.38516   0.00000  Uiso   1.00
C251   C     0.38441   0.54786   0.19909   0.00000  Uiso   1.00
C252   C     0.31227   0.55945   0.19980   0.00000  Uiso   1.00
C253   C     0.27543   0.62297   0.15782   0.00000  Uiso   1.00
H254   H     0.52423   0.61333   0.13313   0.00000  Uiso   1.00
H255   H     0.63058   0.52880   0.06376   0.00000  Uiso   1.00
H256   H     0.54339   0.62500   0.24006   0.00000  Uiso   1.00
H257   H     0.40825   0.70019   0.08408   0.00000  Uiso   1.00
H258   H     0.73344   0.41300   0.00502   0.00000  Uiso   1.00
H259   H     0.54959   0.61586   0.37677   0.00000  Uiso   1.00
H260   H     0.26462   0.77442   0.04786   0.00000  Uiso   1.00
H261   H     0.40820   0.44316   0.27304   0.00000  Uiso   1.00
H262   H     0.50818   0.34929   0.21134   0.00000  Uiso   1.00
H263   H     0.42100   0.44550   0.38765   0.00000  Uiso   1.00
H264   H     0.28586   0.52069   0.23167   0.00000  Uiso   1.00
H265   H     0.63410   0.26730   0.12481   0.00000  Uiso   1.00
H266   H     0.45025   0.47017   0.49656   0.00000  Uiso   1.00
H267   H     0.16528   0.62872   0.16765   0.00000  Uiso   1.00
O268   O     0.75165   0.28147   0.02182   0.00000  Uiso   1.00
O269   O     0.51044   0.54763   0.50954   0.00000  Uiso   1.00
O270   O     0.13656   0.75565   0.07802   0.00000  Uiso   1.00
N271   N     0.69633   0.39160   0.04167   0.00000  Uiso   1.00
N272   N     0.52446   0.58125   0.38923   0.00000  Uiso   1.00
N273   N     0.25802   0.72950   0.08174   0.00000  Uiso   1.00
N274   N     0.64288   0.31320   0.10613   0.00000  Uiso   1.00
N275   N     0.47100   0.50286   0.45369   0.00000  Uiso   1.00
N276   N     0.20457   0.65110   0.14620   0.00000  Uiso   1.00
C277   C     0.93063   0.15784   0.38926   0.00000  Uiso   1.00
C278   C     0.99068   0.08884   0.41408   0.00000  Uiso   1.00
C279   C     0.98583   0.04460   0.48148   0.00000  Uiso   1.00
C280   C     0.04675   0.98392   0.49364   0.00000  Uiso   1.00
C281   C     0.13032   0.87915   0.54029   0.00000  Uiso   1.00
C282   C     0.91409   0.15122   0.32907   0.00000  Uiso   1.00
C283   C     0.84485   0.15945   0.32499   0.00000  Uiso   1.00
C284   C     0.84130   0.15128   0.26558   0.00000  Uiso   1.00
C285   C     0.80596   0.14342   0.18022   0.00000  Uiso   1.00
C286   C     0.96717   0.21352   0.35731   0.00000  Uiso   1.00
C287   C     0.94255   0.27414   0.37697   0.00000  Uiso   1.00
C288   C     0.98368   0.31843   0.34133   0.00000  Uiso   1.00
C289   C     0.03075   0.40730   0.29982   0.00000  Uiso   1.00
C290   C     0.04744   0.12872   0.29101   0.00000  Uiso   1.00
C291   C     0.05412   0.07302   0.36071   0.00000  Uiso   1.00
C292   C     0.11507   0.01238   0.37277   0.00000  Uiso   1.00
C293   C     0.11031   0.96807   0.44018   0.00000  Uiso   1.00
C294   C     0.97754   0.13540   0.27570   0.00000  Uiso   1.00
C295   C     0.97409   0.12723   0.21628   0.00000  Uiso   1.00
C296   C     0.90486   0.13544   0.21212   0.00000  Uiso   1.00
C297   C     0.03062   0.19770   0.30394   0.00000  Uiso   1.00
C298   C     0.07179   0.24191   0.26826   0.00000  Uiso   1.00
C299   C     0.04724   0.30259   0.28787   0.00000  Uiso   1.00
H300   H     0.88123   0.17016   0.43081   0.00000  Uiso   1.00
H301   H     0.93671   0.05686   0.52277   0.00000  Uiso   1.00
H302   H     0.79575   0.17170   0.36629   0.00000  Uiso   1.00
H303   H     0.89344   0.28636   0.41827   0.00000  Uiso   1.00
H304   H     0.02619   0.92426   0.60118   0.00000  Uiso   1.00
H305   H     0.72897   0.16642   0.27124   0.00000  Uiso   1.00
H306   H     0.93497   0.40822   0.38084   0.00000  Uiso   1.00
H307   H     0.09684   0.11640   0.24945   0.00000  Uiso   1.00
H308   H     0.16416   0.00015   0.33146   0.00000  Uiso   1.00
H309   H     0.02320   0.11499   0.17499   0.00000  Uiso   1.00
H310   H     0.12089   0.22965   0.22697   0.00000  Uiso   1.00
H311   H     0.21080   0.87823   0.44590   0.00000  Uiso   1.00
H312   H     0.91357   0.12039   0.11596   0.00000  Uiso   1.00
H313   H     0.11958   0.36219   0.22556   0.00000  Uiso   1.00
O314   O     0.15888   0.82573   0.58075   0.00000  Uiso   1.00
O315   O     0.76893   0.14345   0.14788   0.00000  Uiso   1.00
O316   O     0.03920   0.46068   0.29168   0.00000  Uiso   1.00
N317   N     0.06041   0.92939   0.55338   0.00000  Uiso   1.00
N318   N     0.78252   0.15578   0.24491   0.00000  Uiso   1.00
N319   N     0.97510   0.38185   0.34737   0.00000  Uiso   1.00
N320   N     0.15975   0.90462   0.46983   0.00000  Uiso   1.00
N321   N     0.88186   0.13101   0.16136   0.00000  Uiso   1.00
N322   N     0.07444   0.35708   0.26382   0.00000  Uiso   1.00
C323   C     0.35686   0.88919   0.12680   0.00000  Uiso   1.00
C324   C     0.36570   0.95601   0.07139   0.00000  Uiso   1.00
C325   C     0.40690   0.96048   0.00315   0.00000  Uiso   1.00
C326   C     0.40801   0.02642   0.96055   0.00000  Uiso   1.00
C327   C     0.42760   0.12116   0.87072   0.00000  Uiso   1.00
C328   C     0.27344   0.90318   0.15250   0.00000  Uiso   1.00
C329   C     0.23708   0.86322   0.15247   0.00000  Uiso   1.00
C330   C     0.16052   0.88469   0.17816   0.00000  Uiso   1.00
C331   C     0.03689   0.89737   0.21430   0.00000  Uiso   1.00
C332   C     0.38256   0.88321   0.18782   0.00000  Uiso   1.00
C333   C     0.43793   0.82645   0.21751   0.00000  Uiso   1.00
C334   C     0.45322   0.83111   0.27296   0.00000  Uiso   1.00
C335   C     0.49900   0.81279   0.36394   0.00000  Uiso   1.00
C336   C     0.28555   0.99837   0.17248   0.00000  Uiso   1.00
C337   C     0.32697   0.01531   0.09620   0.00000  Uiso   1.00
C338   C     0.32801   0.08127   0.05369   0.00000  Uiso   1.00
C339   C     0.36921   0.08583   0.98541   0.00000  Uiso   1.00
C340   C     0.23471   0.96248   0.17731   0.00000  Uiso   1.00
C341   C     0.15819   0.98401   0.20301   0.00000  Uiso   1.00
C342   C     0.12172   0.94409   0.20302   0.00000  Uiso   1.00
C343   C     0.34383   0.94251   0.21263   0.00000  Uiso   1.00
C344   C     0.35903   0.94725   0.26804   0.00000  Uiso   1.00
C345   C     0.41442   0.89051   0.29781   0.00000  Uiso   1.00
H346   H     0.38701   0.84303   0.10749   0.00000  Uiso   1.00
H347   H     0.43687   0.91457   0.98397   0.00000  Uiso   1.00
H348   H     0.26707   0.81733   0.13328   0.00000  Uiso   1.00
H349   H     0.46789   0.78057   0.19830   0.00000  Uiso   1.00
H350   H     0.47504   0.02005   0.85797   0.00000  Uiso   1.00
H351   H     0.11702   0.81499   0.17280   0.00000  Uiso   1.00
H352   H     0.54048   0.73748   0.30992   0.00000  Uiso   1.00
H353   H     0.25539   0.04454   0.19179   0.00000  Uiso   1.00
H354   H     0.29803   0.12715   0.07290   0.00000  Uiso   1.00
H355   H     0.12823   0.02990   0.22220   0.00000  Uiso   1.00
H356   H     0.32905   0.99314   0.28723   0.00000  Uiso   1.00
H357   H     0.36235   0.19259   0.93014   0.00000  Uiso   1.00
H358   H     0.00433   0.98752   0.24498   0.00000  Uiso   1.00
H359   H     0.42779   0.91002   0.38210   0.00000  Uiso   1.00
O360   O     0.44910   0.15703   0.81432   0.00000  Uiso   1.00
O361   O     0.97939   0.88798   0.22738   0.00000  Uiso   1.00
O362   O     0.53496   0.78630   0.40727   0.00000  Uiso   1.00
N363   N     0.44268   0.04932   0.89127   0.00000  Uiso   1.00
N364   N     0.10795   0.85760   0.18561   0.00000  Uiso   1.00
N365   N     0.50383   0.78514   0.31382   0.00000  Uiso   1.00
N366   N     0.38204   0.14216   0.93011   0.00000  Uiso   1.00
N367   N     0.04732   0.95044   0.22445   0.00000  Uiso   1.00
N368   N     0.44320   0.87797   0.35266   0.00000  Uiso   1.00
C369   C     0.14804   0.32024   0.96524   0.00000  Uiso   1.00
C370   C     0.07000   0.33657   0.01239   0.00000  Uiso   1.00
C371   C     0.00876   0.39549   0.99647   0.00000  Uiso   1.00
C372   C     0.94224   0.40075   0.04657   0.00000  Uiso   1.00
C373   C     0.82182   0.43397   0.11008   0.00000  Uiso   1.00
C374   C     0.16830   0.24851   0.95642   0.00000  Uiso   1.00
C375   C     0.18973   0.23340   0.89343   0.00000  Uiso   1.00
C376   C     0.20597   0.16454   0.89642   0.00000  Uiso   1.00
C377   C     0.23822   0.06104   0.87302   0.00000  Uiso   1.00
C378   C     0.19947   0.31024   0.00730   0.00000  Uiso   1.00
C379   C     0.24713   0.34702   0.98709   0.00000  Uiso   1.00
C380   C     0.28962   0.33012   0.03291   0.00000  Uiso   1.00
C381   C     0.37028   0.32247   0.08851   0.00000  Uiso   1.00
C382   C     0.13879   0.22481   0.08254   0.00000  Uiso   1.00
C383   C     0.06498   0.28473   0.07610   0.00000  Uiso   1.00
C384   C     0.99853   0.28991   0.12625   0.00000  Uiso   1.00
C385   C     0.93721   0.34883   0.11040   0.00000  Uiso   1.00
C386   C     0.16328   0.19668   0.02013   0.00000  Uiso   1.00
C387   C     0.17950   0.12782   0.02321   0.00000  Uiso   1.00
C388   C     0.20094   0.11261   0.96025   0.00000  Uiso   1.00
C389   C     0.19445   0.25841   0.07101   0.00000  Uiso   1.00
C390   C     0.23689   0.24145   0.11687   0.00000  Uiso   1.00
C391   C     0.28460   0.27819   0.09674   0.00000  Uiso   1.00
H392   H     0.15195   0.36059   0.91564   0.00000  Uiso   1.00
H393   H     0.01267   0.43558   0.94715   0.00000  Uiso   1.00
H394   H     0.19361   0.27352   0.84414   0.00000  Uiso   1.00
H395   H     0.25100   0.38713   0.93778   0.00000  Uiso   1.00
H396   H     0.85603   0.49586   0.01018   0.00000  Uiso   1.00
H397   H     0.23759   0.15414   0.79296   0.00000  Uiso   1.00
H398   H     0.35860   0.39370   0.99043   0.00000  Uiso   1.00
H399   H     0.13489   0.18446   0.13215   0.00000  Uiso   1.00
H400   H     0.99466   0.24979   0.17555   0.00000  Uiso   1.00
H401   H     0.17561   0.08773   0.07253   0.00000  Uiso   1.00
H402   H     0.23299   0.20133   0.16617   0.00000  Uiso   1.00
H403   H     0.84141   0.34506   0.19555   0.00000  Uiso   1.00
H404   H     0.22298   0.00334   0.97833   0.00000  Uiso   1.00
H405   H     0.34398   0.24290   0.17580   0.00000  Uiso   1.00
O406   O     0.75678   0.46660   0.12750   0.00000  Uiso   1.00
O407   O     0.25739   0.01828   0.84252   0.00000  Uiso   1.00
O408   O     0.41614   0.33258   0.10159   0.00000  Uiso   1.00
N409   N     0.87183   0.45141   0.04786   0.00000  Uiso   1.00
N410   N     0.22856   0.13192   0.84477   0.00000  Uiso   1.00
N411   N     0.34171   0.35588   0.02938   0.00000  Uiso   1.00
N412   N     0.86397   0.37027   0.14761   0.00000  Uiso   1.00
N413   N     0.22070   0.05078   0.94452   0.00000  Uiso   1.00
N414   N     0.33384   0.27473   0.12912   0.00000  Uiso   1.00
C415   C     0.39722   0.89893   0.61261   0.00000  Uiso   1.00
C416   C     0.45393   0.92661   0.55182   0.00000  Uiso   1.00
C417   C     0.43973   0.99444   0.50796   0.00000  Uiso   1.00
C418   C     0.49907   0.00938   0.45542   0.00000  Uiso   1.00
C419   C     0.57632   0.06012   0.36227   0.00000  Uiso   1.00
C420   C     0.39831   0.83592   0.59882   0.00000  Uiso   1.00
C421   C     0.33734   0.82750   0.59449   0.00000  Uiso   1.00
C422   C     0.34986   0.76609   0.58151   0.00000  Uiso   1.00
C423   C     0.34074   0.67601   0.56138   0.00000  Uiso   1.00
C424   C     0.42895   0.86979   0.67669   0.00000  Uiso   1.00
C425   C     0.39373   0.88983   0.73784   0.00000  Uiso   1.00
C426   C     0.43204   0.85693   0.79043   0.00000  Uiso   1.00
C427   C     0.47049   0.81944   0.89120   0.00000  Uiso   1.00
C428   C     0.52785   0.80485   0.59729   0.00000  Uiso   1.00
C429   C     0.52488   0.87550   0.54350   0.00000  Uiso   1.00
C430   C     0.58426   0.89035   0.49101   0.00000  Uiso   1.00
C431   C     0.57015   0.95819   0.44708   0.00000  Uiso   1.00
C432   C     0.46926   0.78482   0.59050   0.00000  Uiso   1.00
C433   C     0.48187   0.72341   0.57753   0.00000  Uiso   1.00
C434   C     0.42094   0.71490   0.57318   0.00000  Uiso   1.00
C435   C     0.49990   0.81869   0.66837   0.00000  Uiso   1.00
C436   C     0.53827   0.78575   0.72088   0.00000  Uiso   1.00
C437   C     0.50312   0.80574   0.78210   0.00000  Uiso   1.00
H438   H     0.34198   0.93871   0.61909   0.00000  Uiso   1.00
H439   H     0.38481   0.03396   0.51442   0.00000  Uiso   1.00
H440   H     0.28244   0.86704   0.60094   0.00000  Uiso   1.00
H441   H     0.33882   0.92937   0.74426   0.00000  Uiso   1.00
H442   H     0.46358   0.11703   0.39468   0.00000  Uiso   1.00
H443   H     0.24771   0.76507   0.57713   0.00000  Uiso   1.00
H444   H     0.36662   0.89649   0.87936   0.00000  Uiso   1.00
H445   H     0.58310   0.76506   0.59081   0.00000  Uiso   1.00
H446   H     0.63916   0.85080   0.48458   0.00000  Uiso   1.00
H447   H     0.53678   0.68388   0.57110   0.00000  Uiso   1.00
H448   H     0.59317   0.74621   0.71442   0.00000  Uiso   1.00
H449   H     0.67002   0.96837   0.37047   0.00000  Uiso   1.00
H450   H     0.45415   0.61640   0.55292   0.00000  Uiso   1.00
H451   H     0.57306   0.74783   0.85514   0.00000  Uiso   1.00
O452   O     0.59932   0.10222   0.31319   0.00000  Uiso   1.00
O453   O     0.31611   0.64045   0.55257   0.00000  Uiso   1.00
O454   O     0.47211   0.81289   0.94908   0.00000  Uiso   1.00
N455   N     0.50447   0.07028   0.40357   0.00000  Uiso   1.00
N456   N     0.30265   0.74122   0.57414   0.00000  Uiso   1.00
N457   N     0.41381   0.86408   0.85670   0.00000  Uiso   1.00
N458   N     0.61556   0.99029   0.39054   0.00000  Uiso   1.00
N459   N     0.41374   0.66122   0.56111   0.00000  Uiso   1.00
N460   N     0.52489   0.78409   0.84367   0.00000  Uiso   1.00
C461   C     0.93989   0.51909   0.43460   0.00000  Uiso   1.00
C462   C     0.92634   0.48550   0.51316   0.00000  Uiso   1.00
C463   C     0.95418   0.41449   0.54610   0.00000  Uiso   1.00
C464   C     0.93542   0.39422   0.61844   0.00000  Uiso   1.00
C465   C     0.92120   0.33460   0.73465   0.00000  Uiso   1.00
C466   C     0.86321   0.55964   0.41863   0.00000  Uiso   1.00
C467   C     0.83798   0.55098   0.37208   0.00000  Uiso   1.00
C468   C     0.76606   0.59314   0.36485   0.00000  Uiso   1.00
C469   C     0.65385   0.64867   0.33426   0.00000  Uiso   1.00
C470   C     0.97334   0.57400   0.41992   0.00000  Uiso   1.00
C471   C     0.04069   0.57742   0.37444   0.00000  Uiso   1.00
C472   C     0.06149   0.63168   0.36827   0.00000  Uiso   1.00
C473   C     0.12026   0.70949   0.33968   0.00000  Uiso   1.00
C474   C     0.85705   0.60938   0.50451   0.00000  Uiso   1.00
C475   C     0.88135   0.53454   0.55113   0.00000  Uiso   1.00
C476   C     0.86254   0.51438   0.62345   0.00000  Uiso   1.00
C477   C     0.89034   0.44335   0.65649   0.00000  Uiso   1.00
C478   C     0.81822   0.60868   0.45660   0.00000  Uiso   1.00
C479   C     0.74633   0.65087   0.44943   0.00000  Uiso   1.00
C480   C     0.72099   0.64227   0.40289   0.00000  Uiso   1.00
C481   C     0.92834   0.62304   0.45789   0.00000  Uiso   1.00
C482   C     0.94904   0.67731   0.45179   0.00000  Uiso   1.00
C483   C     0.01641   0.68081   0.40632   0.00000  Uiso   1.00
H484   H     0.97491   0.48091   0.40503   0.00000  Uiso   1.00
H485   H     0.98900   0.37655   0.51669   0.00000  Uiso   1.00
H486   H     0.87281   0.51303   0.34270   0.00000  Uiso   1.00
H487   H     0.07549   0.53946   0.34506   0.00000  Uiso   1.00
H488   H     0.98474   0.28247   0.65723   0.00000  Uiso   1.00
H489   H     0.73977   0.57026   0.29034   0.00000  Uiso   1.00
H490   H     0.16716   0.62600   0.29531   0.00000  Uiso   1.00
H491   H     0.82202   0.64756   0.53408   0.00000  Uiso   1.00
H492   H     0.82771   0.55234   0.65282   0.00000  Uiso   1.00
H493   H     0.71153   0.68882   0.47883   0.00000  Uiso   1.00
H494   H     0.91421   0.71525   0.48119   0.00000  Uiso   1.00
H495   H     0.85384   0.42514   0.76772   0.00000  Uiso   1.00
H496   H     0.60886   0.71294   0.40083   0.00000  Uiso   1.00
H497   H     0.03626   0.76867   0.40580   0.00000  Uiso   1.00
O498   O     0.92578   0.28816   0.78826   0.00000  Uiso   1.00
O499   O     0.60438   0.66574   0.30690   0.00000  Uiso   1.00
O500   O     0.16511   0.73886   0.31343   0.00000  Uiso   1.00
N501   N     0.95317   0.32912   0.66694   0.00000  Uiso   1.00
N502   N     0.72412   0.59818   0.32393   0.00000  Uiso   1.00
N503   N     0.12369   0.65030   0.32856   0.00000  Uiso   1.00
N504   N     0.88273   0.40589   0.72639   0.00000  Uiso   1.00
N505   N     0.65369   0.67495   0.38338   0.00000  Uiso   1.00
N506   N     0.05325   0.72707   0.38801   0.00000  Uiso   1.00
C507   C     0.68796   0.42398   0.84036   0.00000  Uiso   1.00
C508   C     0.60644   0.45926   0.87230   0.00000  Uiso   1.00
C509   C     0.56184   0.42674   0.92940   0.00000  Uiso   1.00
C510   C     0.48872   0.46810   0.95061   0.00000  Uiso   1.00
C511   C     0.36631   0.51203   0.00546   0.00000  Uiso   1.00
C512   C     0.69286   0.43697   0.76383   0.00000  Uiso   1.00
C513   C     0.72094   0.38569   0.72973   0.00000  Uiso   1.00
C514   C     0.72058   0.40829   0.65963   0.00000  Uiso   1.00
C515   C     0.73240   0.41761   0.54607   0.00000  Uiso   1.00
C516   C     0.72993   0.46568   0.84118   0.00000  Uiso   1.00
C517   C     0.78918   0.43855   0.87210   0.00000  Uiso   1.00
C518   C     0.82004   0.48532   0.86711   0.00000  Uiso   1.00
C519   C     0.88941   0.53922   0.87365   0.00000  Uiso   1.00
C520   C     0.63742   0.55528   0.77651   0.00000  Uiso   1.00
C521   C     0.57899   0.53058   0.83762   0.00000  Uiso   1.00
C522   C     0.50592   0.57201   0.85875   0.00000  Uiso   1.00
C523   C     0.46122   0.53955   0.91587   0.00000  Uiso   1.00
C524   C     0.66542   0.50828   0.72915   0.00000  Uiso   1.00
C525   C     0.66502   0.53096   0.65909   0.00000  Uiso   1.00
C526   C     0.69308   0.47973   0.62489   0.00000  Uiso   1.00
C527   C     0.70248   0.53700   0.80650   0.00000  Uiso   1.00
C528   C     0.73326   0.58382   0.80146   0.00000  Uiso   1.00
C529   C     0.79254   0.55676   0.83236   0.00000  Uiso   1.00
H530   H     0.70933   0.36845   0.86736   0.00000  Uiso   1.00
H531   H     0.58310   0.37154   0.95622   0.00000  Uiso   1.00
H532   H     0.74218   0.33051   0.75658   0.00000  Uiso   1.00
H533   H     0.81041   0.38336   0.89893   0.00000  Uiso   1.00
H534   H     0.43104   0.40641   0.03943   0.00000  Uiso   1.00
H535   H     0.76649   0.31988   0.61848   0.00000  Uiso   1.00
H536   H     0.91037   0.43133   0.91865   0.00000  Uiso   1.00
H537   H     0.61605   0.61080   0.74951   0.00000  Uiso   1.00
H538   H     0.48469   0.62719   0.83190   0.00000  Uiso   1.00
H539   H     0.64378   0.58615   0.63227   0.00000  Uiso   1.00
H540   H     0.71201   0.63900   0.77462   0.00000  Uiso   1.00
H541   H     0.35117   0.61391   0.93853   0.00000  Uiso   1.00
H542   H     0.68663   0.52738   0.51757   0.00000  Uiso   1.00
H543   H     0.83050   0.63882   0.81775   0.00000  Uiso   1.00
O544   O     0.30637   0.51656   0.04529   0.00000  Uiso   1.00
O545   O     0.74649   0.40304   0.49302   0.00000  Uiso   1.00
O546   O     0.93525   0.54925   0.88684   0.00000  Uiso   1.00
N547   N     0.43027   0.45300   0.00438   0.00000  Uiso   1.00
N548   N     0.74389   0.37210   0.61082   0.00000  Uiso   1.00
N549   N     0.87842   0.47629   0.89144   0.00000  Uiso   1.00
N550   N     0.38729   0.56465   0.95009   0.00000  Uiso   1.00
N551   N     0.70092   0.48375   0.55653   0.00000  Uiso   1.00
N552   N     0.83544   0.58794   0.83715   0.00000  Uiso   1.00
