data_job_03063
_audit_creation_date              2018-12-19
_audit_creation_method            'Materials Studio'
_symmetry_space_group_name_H-M    'P1'
_symmetry_Int_Tables_number       1
_symmetry_cell_setting            triclinic
loop_
_symmetry_equiv_pos_as_xyz
  x,y,z
_cell_length_a                    16.1458
_cell_length_b                    16.1458
_cell_length_c                    16.8043
_cell_angle_alpha                 90.0000
_cell_angle_beta                  90.0000
_cell_angle_gamma                 90.0000
loop_
_atom_site_label
_atom_site_type_symbol
_atom_site_fract_x
_atom_site_fract_y
_atom_site_fract_z
_atom_site_U_iso_or_equiv
_atom_site_adp_type
_atom_site_occupancy
C1     C     0.53878   0.86062   0.07577   0.00000  Uiso   1.00
C2     C     0.44612   0.84837   0.06271   0.00000  Uiso   1.00
C3     C     0.38449   0.90463   0.08252   0.00000  Uiso   1.00
C4     C     0.30343   0.88183   0.06578   0.00000  Uiso   1.00
C5     C     0.16239   0.87440   0.05091   0.00000  Uiso   1.00
C6     C     0.56746   0.78715   0.12568   0.00000  Uiso   1.00
C7     C     0.60787   0.79193   0.19843   0.00000  Uiso   1.00
C8     C     0.62897   0.71759   0.23469   0.00000  Uiso   1.00
C9     C     0.67637   0.61512   0.31756   0.00000  Uiso   1.00
C10    C     0.57920   0.85004   0.99439   0.00000  Uiso   1.00
C11    C     0.62949   0.90769   0.95674   0.00000  Uiso   1.00
C12    C     0.66048   0.88630   0.88246   0.00000  Uiso   1.00
C13    C     0.72611   0.88147   0.76147   0.00000  Uiso   1.00
C14    C     0.50441   0.72010   0.01079   0.00000  Uiso   1.00
C15    C     0.42745   0.77204   0.02742   0.00000  Uiso   1.00
C16    C     0.34646   0.74916   0.01064   0.00000  Uiso   1.00
C17    C     0.28473   0.80537   0.03042   0.00000  Uiso   1.00
C18    C     0.54879   0.71082   0.09040   0.00000  Uiso   1.00
C19    C     0.56984   0.63646   0.12655   0.00000  Uiso   1.00
C20    C     0.61027   0.64113   0.19934   0.00000  Uiso   1.00
C21    C     0.56053   0.77371   0.95909   0.00000  Uiso   1.00
C22    C     0.59146   0.75222   0.88486   0.00000  Uiso   1.00
C23    C     0.64178   0.80983   0.84711   0.00000  Uiso   1.00
H24    H     0.55332   0.92004   0.10324   0.00000  Uiso   1.00
H25    H     0.39896   0.96369   0.10984   0.00000  Uiso   1.00
H26    H     0.62232   0.85100   0.22572   0.00000  Uiso   1.00
H27    H     0.64392   0.96675   0.98407   0.00000  Uiso   1.00
H28    H     0.21960   0.97840   0.10161   0.00000  Uiso   1.00
H29    H     0.69058   0.74081   0.34595   0.00000  Uiso   1.00
H30    H     0.73615   0.98488   0.83638   0.00000  Uiso   1.00
H31    H     0.48987   0.66067   0.98332   0.00000  Uiso   1.00
H32    H     0.33203   0.69009   0.98333   0.00000  Uiso   1.00
H33    H     0.55539   0.57741   0.09922   0.00000  Uiso   1.00
H34    H     0.57700   0.69315   0.85757   0.00000  Uiso   1.00
H35    H     0.16528   0.75634   0.99894   0.00000  Uiso   1.00
H36    H     0.63626   0.51875   0.24328   0.00000  Uiso   1.00
H37    H     0.68183   0.76282   0.73371   0.00000  Uiso   1.00
O38    O     0.08975   0.89139   0.05247   0.00000  Uiso   1.00
O39    O     0.70767   0.57968   0.37303   0.00000  Uiso   1.00
O40    O     0.76745   0.89990   0.70448   0.00000  Uiso   1.00
N41    N     0.22848   0.92211   0.07743   0.00000  Uiso   1.00
N42    N     0.66880   0.69998   0.30588   0.00000  Uiso   1.00
N43    N     0.71142   0.92816   0.82949   0.00000  Uiso   1.00
N44    N     0.19925   0.80262   0.02218   0.00000  Uiso   1.00
N45    N     0.63957   0.58049   0.25063   0.00000  Uiso   1.00
N46    N     0.68219   0.80867   0.77424   0.00000  Uiso   1.00
C47    C     0.46122   0.13938   0.07577   0.00000  Uiso   1.00
C48    C     0.55388   0.15163   0.06271   0.00000  Uiso   1.00
C49    C     0.61551   0.09537   0.08252   0.00000  Uiso   1.00
C50    C     0.69657   0.11817   0.06578   0.00000  Uiso   1.00
C51    C     0.83761   0.12560   0.05091   0.00000  Uiso   1.00
C52    C     0.43254   0.21285   0.12568   0.00000  Uiso   1.00
C53    C     0.39213   0.20807   0.19843   0.00000  Uiso   1.00
C54    C     0.37103   0.28241   0.23469   0.00000  Uiso   1.00
C55    C     0.32363   0.38488   0.31756   0.00000  Uiso   1.00
C56    C     0.42080   0.14996   0.99439   0.00000  Uiso   1.00
C57    C     0.37051   0.09231   0.95674   0.00000  Uiso   1.00
C58    C     0.33952   0.11370   0.88246   0.00000  Uiso   1.00
C59    C     0.27389   0.11853   0.76147   0.00000  Uiso   1.00
C60    C     0.49559   0.27990   0.01079   0.00000  Uiso   1.00
C61    C     0.57255   0.22796   0.02742   0.00000  Uiso   1.00
C62    C     0.65354   0.25084   0.01064   0.00000  Uiso   1.00
C63    C     0.71527   0.19463   0.03042   0.00000  Uiso   1.00
C64    C     0.45121   0.28918   0.09040   0.00000  Uiso   1.00
C65    C     0.43016   0.36354   0.12655   0.00000  Uiso   1.00
C66    C     0.38973   0.35887   0.19934   0.00000  Uiso   1.00
C67    C     0.43947   0.22629   0.95909   0.00000  Uiso   1.00
C68    C     0.40854   0.24778   0.88486   0.00000  Uiso   1.00
C69    C     0.35822   0.19017   0.84711   0.00000  Uiso   1.00
H70    H     0.44668   0.07996   0.10324   0.00000  Uiso   1.00
H71    H     0.60104   0.03631   0.10984   0.00000  Uiso   1.00
H72    H     0.37768   0.14900   0.22572   0.00000  Uiso   1.00
H73    H     0.35608   0.03325   0.98407   0.00000  Uiso   1.00
H74    H     0.78040   0.02160   0.10161   0.00000  Uiso   1.00
H75    H     0.30942   0.25919   0.34595   0.00000  Uiso   1.00
H76    H     0.26385   0.01512   0.83638   0.00000  Uiso   1.00
H77    H     0.51013   0.33933   0.98332   0.00000  Uiso   1.00
H78    H     0.66797   0.30991   0.98333   0.00000  Uiso   1.00
H79    H     0.44461   0.42259   0.09922   0.00000  Uiso   1.00
H80    H     0.42300   0.30685   0.85757   0.00000  Uiso   1.00
H81    H     0.83472   0.24366   0.99894   0.00000  Uiso   1.00
H82    H     0.36374   0.48125   0.24328   0.00000  Uiso   1.00
H83    H     0.31817   0.23718   0.73371   0.00000  Uiso   1.00
O84    O     0.91025   0.10861   0.05247   0.00000  Uiso   1.00
O85    O     0.29233   0.42032   0.37303   0.00000  Uiso   1.00
O86    O     0.23255   0.10010   0.70448   0.00000  Uiso   1.00
N87    N     0.77152   0.07789   0.07743   0.00000  Uiso   1.00
N88    N     0.33120   0.30002   0.30588   0.00000  Uiso   1.00
N89    N     0.28858   0.07184   0.82949   0.00000  Uiso   1.00
N90    N     0.80075   0.19738   0.02218   0.00000  Uiso   1.00
N91    N     0.36043   0.41951   0.25063   0.00000  Uiso   1.00
N92    N     0.31781   0.19133   0.77424   0.00000  Uiso   1.00
C93    C     0.63938   0.03878   0.57577   0.00000  Uiso   1.00
C94    C     0.65163   0.94612   0.56271   0.00000  Uiso   1.00
C95    C     0.59537   0.88449   0.58252   0.00000  Uiso   1.00
C96    C     0.61817   0.80343   0.56578   0.00000  Uiso   1.00
C97    C     0.62560   0.66239   0.55091   0.00000  Uiso   1.00
C98    C     0.71285   0.06746   0.62568   0.00000  Uiso   1.00
C99    C     0.70807   0.10787   0.69843   0.00000  Uiso   1.00
C100   C     0.78241   0.12897   0.73469   0.00000  Uiso   1.00
C101   C     0.88488   0.17637   0.81756   0.00000  Uiso   1.00
C102   C     0.64996   0.07920   0.49439   0.00000  Uiso   1.00
C103   C     0.59231   0.12949   0.45674   0.00000  Uiso   1.00
C104   C     0.61370   0.16048   0.38246   0.00000  Uiso   1.00
C105   C     0.61853   0.22611   0.26147   0.00000  Uiso   1.00
C106   C     0.77990   0.00441   0.51079   0.00000  Uiso   1.00
C107   C     0.72796   0.92745   0.52742   0.00000  Uiso   1.00
C108   C     0.75084   0.84646   0.51064   0.00000  Uiso   1.00
C109   C     0.69463   0.78473   0.53042   0.00000  Uiso   1.00
C110   C     0.78918   0.04879   0.59040   0.00000  Uiso   1.00
C111   C     0.86354   0.06984   0.62655   0.00000  Uiso   1.00
C112   C     0.85887   0.11027   0.69934   0.00000  Uiso   1.00
C113   C     0.72629   0.06053   0.45909   0.00000  Uiso   1.00
C114   C     0.74778   0.09146   0.38486   0.00000  Uiso   1.00
C115   C     0.69017   0.14178   0.34711   0.00000  Uiso   1.00
H116   H     0.57996   0.05332   0.60324   0.00000  Uiso   1.00
H117   H     0.53631   0.89896   0.60984   0.00000  Uiso   1.00
H118   H     0.64900   0.12232   0.72572   0.00000  Uiso   1.00
H119   H     0.53325   0.14392   0.48407   0.00000  Uiso   1.00
H120   H     0.52160   0.71960   0.60161   0.00000  Uiso   1.00
H121   H     0.75919   0.19058   0.84595   0.00000  Uiso   1.00
H122   H     0.51512   0.23615   0.33638   0.00000  Uiso   1.00
H123   H     0.83933   0.98987   0.48332   0.00000  Uiso   1.00
H124   H     0.80991   0.83203   0.48333   0.00000  Uiso   1.00
H125   H     0.92259   0.05539   0.59922   0.00000  Uiso   1.00
H126   H     0.80685   0.07700   0.35757   0.00000  Uiso   1.00
H127   H     0.74366   0.66528   0.49894   0.00000  Uiso   1.00
H128   H     0.98125   0.13626   0.74328   0.00000  Uiso   1.00
H129   H     0.73718   0.18183   0.23371   0.00000  Uiso   1.00
O130   O     0.60861   0.58975   0.55247   0.00000  Uiso   1.00
O131   O     0.92032   0.20767   0.87303   0.00000  Uiso   1.00
O132   O     0.60010   0.26745   0.20448   0.00000  Uiso   1.00
N133   N     0.57789   0.72848   0.57743   0.00000  Uiso   1.00
N134   N     0.80002   0.16880   0.80588   0.00000  Uiso   1.00
N135   N     0.57184   0.21142   0.32949   0.00000  Uiso   1.00
N136   N     0.69738   0.69925   0.52218   0.00000  Uiso   1.00
N137   N     0.91951   0.13957   0.75063   0.00000  Uiso   1.00
N138   N     0.69133   0.18219   0.27424   0.00000  Uiso   1.00
C139   C     0.36062   0.96122   0.57577   0.00000  Uiso   1.00
C140   C     0.34837   0.05388   0.56271   0.00000  Uiso   1.00
C141   C     0.40463   0.11551   0.58252   0.00000  Uiso   1.00
C142   C     0.38183   0.19657   0.56578   0.00000  Uiso   1.00
C143   C     0.37440   0.33761   0.55091   0.00000  Uiso   1.00
C144   C     0.28715   0.93254   0.62568   0.00000  Uiso   1.00
C145   C     0.29193   0.89213   0.69843   0.00000  Uiso   1.00
C146   C     0.21759   0.87103   0.73469   0.00000  Uiso   1.00
C147   C     0.11512   0.82363   0.81756   0.00000  Uiso   1.00
C148   C     0.35004   0.92080   0.49439   0.00000  Uiso   1.00
C149   C     0.40769   0.87051   0.45674   0.00000  Uiso   1.00
C150   C     0.38630   0.83952   0.38246   0.00000  Uiso   1.00
C151   C     0.38147   0.77389   0.26147   0.00000  Uiso   1.00
C152   C     0.22010   0.99559   0.51079   0.00000  Uiso   1.00
C153   C     0.27204   0.07255   0.52742   0.00000  Uiso   1.00
C154   C     0.24916   0.15354   0.51064   0.00000  Uiso   1.00
C155   C     0.30537   0.21527   0.53042   0.00000  Uiso   1.00
C156   C     0.21082   0.95121   0.59040   0.00000  Uiso   1.00
C157   C     0.13646   0.93016   0.62655   0.00000  Uiso   1.00
C158   C     0.14113   0.88973   0.69934   0.00000  Uiso   1.00
C159   C     0.27371   0.93947   0.45909   0.00000  Uiso   1.00
C160   C     0.25222   0.90854   0.38486   0.00000  Uiso   1.00
C161   C     0.30983   0.85822   0.34711   0.00000  Uiso   1.00
H162   H     0.42004   0.94668   0.60324   0.00000  Uiso   1.00
H163   H     0.46369   0.10104   0.60984   0.00000  Uiso   1.00
H164   H     0.35100   0.87768   0.72572   0.00000  Uiso   1.00
H165   H     0.46675   0.85608   0.48407   0.00000  Uiso   1.00
H166   H     0.47840   0.28040   0.60161   0.00000  Uiso   1.00
H167   H     0.24081   0.80942   0.84595   0.00000  Uiso   1.00
H168   H     0.48488   0.76385   0.33638   0.00000  Uiso   1.00
H169   H     0.16067   0.01013   0.48332   0.00000  Uiso   1.00
H170   H     0.19009   0.16797   0.48333   0.00000  Uiso   1.00
H171   H     0.07741   0.94461   0.59922   0.00000  Uiso   1.00
H172   H     0.19315   0.92300   0.35757   0.00000  Uiso   1.00
H173   H     0.25634   0.33472   0.49894   0.00000  Uiso   1.00
H174   H     0.01875   0.86374   0.74328   0.00000  Uiso   1.00
H175   H     0.26282   0.81817   0.23371   0.00000  Uiso   1.00
O176   O     0.39139   0.41025   0.55247   0.00000  Uiso   1.00
O177   O     0.07968   0.79233   0.87303   0.00000  Uiso   1.00
O178   O     0.39990   0.73255   0.20448   0.00000  Uiso   1.00
N179   N     0.42211   0.27152   0.57743   0.00000  Uiso   1.00
N180   N     0.19998   0.83120   0.80588   0.00000  Uiso   1.00
N181   N     0.42816   0.78858   0.32949   0.00000  Uiso   1.00
N182   N     0.30262   0.30075   0.52218   0.00000  Uiso   1.00
N183   N     0.08049   0.86043   0.75063   0.00000  Uiso   1.00
N184   N     0.30867   0.81781   0.27424   0.00000  Uiso   1.00
C185   C     0.96122   0.63938   0.42423   0.00000  Uiso   1.00
C186   C     0.05388   0.65163   0.43729   0.00000  Uiso   1.00
C187   C     0.11551   0.59537   0.41748   0.00000  Uiso   1.00
C188   C     0.19657   0.61817   0.43422   0.00000  Uiso   1.00
C189   C     0.33761   0.62560   0.44909   0.00000  Uiso   1.00
C190   C     0.93254   0.71285   0.37432   0.00000  Uiso   1.00
C191   C     0.89213   0.70807   0.30157   0.00000  Uiso   1.00
C192   C     0.87103   0.78241   0.26531   0.00000  Uiso   1.00
C193   C     0.82363   0.88488   0.18244   0.00000  Uiso   1.00
C194   C     0.92080   0.64996   0.50561   0.00000  Uiso   1.00
C195   C     0.87051   0.59231   0.54326   0.00000  Uiso   1.00
C196   C     0.83952   0.61370   0.61754   0.00000  Uiso   1.00
C197   C     0.77389   0.61853   0.73853   0.00000  Uiso   1.00
C198   C     0.99559   0.77990   0.48921   0.00000  Uiso   1.00
C199   C     0.07255   0.72796   0.47258   0.00000  Uiso   1.00
C200   C     0.15354   0.75084   0.48936   0.00000  Uiso   1.00
C201   C     0.21527   0.69463   0.46958   0.00000  Uiso   1.00
C202   C     0.95121   0.78918   0.40960   0.00000  Uiso   1.00
C203   C     0.93016   0.86354   0.37345   0.00000  Uiso   1.00
C204   C     0.88973   0.85887   0.30066   0.00000  Uiso   1.00
C205   C     0.93947   0.72629   0.54091   0.00000  Uiso   1.00
C206   C     0.90854   0.74778   0.61514   0.00000  Uiso   1.00
C207   C     0.85822   0.69017   0.65289   0.00000  Uiso   1.00
H208   H     0.94668   0.57996   0.39676   0.00000  Uiso   1.00
H209   H     0.10104   0.53631   0.39016   0.00000  Uiso   1.00
H210   H     0.87768   0.64900   0.27428   0.00000  Uiso   1.00
H211   H     0.85608   0.53325   0.51593   0.00000  Uiso   1.00
H212   H     0.28040   0.52160   0.39839   0.00000  Uiso   1.00
H213   H     0.80942   0.75919   0.15405   0.00000  Uiso   1.00
H214   H     0.76385   0.51512   0.66362   0.00000  Uiso   1.00
H215   H     0.01013   0.83933   0.51668   0.00000  Uiso   1.00
H216   H     0.16797   0.80991   0.51667   0.00000  Uiso   1.00
H217   H     0.94461   0.92259   0.40078   0.00000  Uiso   1.00
H218   H     0.92300   0.80685   0.64243   0.00000  Uiso   1.00
H219   H     0.33472   0.74366   0.50106   0.00000  Uiso   1.00
H220   H     0.86374   0.98125   0.25672   0.00000  Uiso   1.00
H221   H     0.81817   0.73718   0.76629   0.00000  Uiso   1.00
O222   O     0.41025   0.60861   0.44753   0.00000  Uiso   1.00
O223   O     0.79233   0.92032   0.12697   0.00000  Uiso   1.00
O224   O     0.73255   0.60010   0.79552   0.00000  Uiso   1.00
N225   N     0.27152   0.57789   0.42257   0.00000  Uiso   1.00
N226   N     0.83120   0.80002   0.19412   0.00000  Uiso   1.00
N227   N     0.78858   0.57184   0.67051   0.00000  Uiso   1.00
N228   N     0.30075   0.69738   0.47782   0.00000  Uiso   1.00
N229   N     0.86043   0.91951   0.24937   0.00000  Uiso   1.00
N230   N     0.81781   0.69133   0.72576   0.00000  Uiso   1.00
C231   C     0.03878   0.36062   0.42423   0.00000  Uiso   1.00
C232   C     0.94612   0.34837   0.43729   0.00000  Uiso   1.00
C233   C     0.88449   0.40463   0.41748   0.00000  Uiso   1.00
C234   C     0.80343   0.38183   0.43422   0.00000  Uiso   1.00
C235   C     0.66239   0.37440   0.44909   0.00000  Uiso   1.00
C236   C     0.06746   0.28715   0.37432   0.00000  Uiso   1.00
C237   C     0.10787   0.29193   0.30157   0.00000  Uiso   1.00
C238   C     0.12897   0.21759   0.26531   0.00000  Uiso   1.00
C239   C     0.17637   0.11512   0.18244   0.00000  Uiso   1.00
C240   C     0.07920   0.35004   0.50561   0.00000  Uiso   1.00
C241   C     0.12949   0.40769   0.54326   0.00000  Uiso   1.00
C242   C     0.16048   0.38630   0.61754   0.00000  Uiso   1.00
C243   C     0.22611   0.38147   0.73853   0.00000  Uiso   1.00
C244   C     0.00441   0.22010   0.48921   0.00000  Uiso   1.00
C245   C     0.92745   0.27204   0.47258   0.00000  Uiso   1.00
C246   C     0.84646   0.24916   0.48936   0.00000  Uiso   1.00
C247   C     0.78473   0.30537   0.46958   0.00000  Uiso   1.00
C248   C     0.04879   0.21082   0.40960   0.00000  Uiso   1.00
C249   C     0.06984   0.13646   0.37345   0.00000  Uiso   1.00
C250   C     0.11027   0.14113   0.30066   0.00000  Uiso   1.00
C251   C     0.06053   0.27371   0.54091   0.00000  Uiso   1.00
C252   C     0.09146   0.25222   0.61514   0.00000  Uiso   1.00
C253   C     0.14178   0.30983   0.65289   0.00000  Uiso   1.00
H254   H     0.05332   0.42004   0.39676   0.00000  Uiso   1.00
H255   H     0.89896   0.46369   0.39016   0.00000  Uiso   1.00
H256   H     0.12232   0.35100   0.27428   0.00000  Uiso   1.00
H257   H     0.14392   0.46675   0.51593   0.00000  Uiso   1.00
H258   H     0.71960   0.47840   0.39839   0.00000  Uiso   1.00
H259   H     0.19058   0.24081   0.15405   0.00000  Uiso   1.00
H260   H     0.23615   0.48488   0.66362   0.00000  Uiso   1.00
H261   H     0.98987   0.16067   0.51668   0.00000  Uiso   1.00
H262   H     0.83203   0.19009   0.51667   0.00000  Uiso   1.00
H263   H     0.05539   0.07741   0.40078   0.00000  Uiso   1.00
H264   H     0.07700   0.19315   0.64243   0.00000  Uiso   1.00
H265   H     0.66528   0.25634   0.50106   0.00000  Uiso   1.00
H266   H     0.13626   0.01875   0.25672   0.00000  Uiso   1.00
H267   H     0.18183   0.26282   0.76629   0.00000  Uiso   1.00
O268   O     0.58975   0.39139   0.44753   0.00000  Uiso   1.00
O269   O     0.20767   0.07968   0.12697   0.00000  Uiso   1.00
O270   O     0.26745   0.39990   0.79552   0.00000  Uiso   1.00
N271   N     0.72848   0.42211   0.42257   0.00000  Uiso   1.00
N272   N     0.16880   0.19998   0.19412   0.00000  Uiso   1.00
N273   N     0.21142   0.42816   0.67051   0.00000  Uiso   1.00
N274   N     0.69925   0.30262   0.47782   0.00000  Uiso   1.00
N275   N     0.13957   0.08049   0.24937   0.00000  Uiso   1.00
N276   N     0.18219   0.30867   0.72576   0.00000  Uiso   1.00
C277   C     0.86062   0.46122   0.92423   0.00000  Uiso   1.00
C278   C     0.84837   0.55388   0.93729   0.00000  Uiso   1.00
C279   C     0.90463   0.61551   0.91748   0.00000  Uiso   1.00
C280   C     0.88183   0.69657   0.93422   0.00000  Uiso   1.00
C281   C     0.87440   0.83761   0.94909   0.00000  Uiso   1.00
C282   C     0.78715   0.43254   0.87432   0.00000  Uiso   1.00
C283   C     0.79193   0.39213   0.80157   0.00000  Uiso   1.00
C284   C     0.71759   0.37103   0.76531   0.00000  Uiso   1.00
C285   C     0.61512   0.32363   0.68244   0.00000  Uiso   1.00
C286   C     0.85004   0.42080   0.00561   0.00000  Uiso   1.00
C287   C     0.90769   0.37051   0.04326   0.00000  Uiso   1.00
C288   C     0.88630   0.33952   0.11754   0.00000  Uiso   1.00
C289   C     0.88147   0.27389   0.23853   0.00000  Uiso   1.00
C290   C     0.72010   0.49559   0.98921   0.00000  Uiso   1.00
C291   C     0.77204   0.57255   0.97258   0.00000  Uiso   1.00
C292   C     0.74916   0.65354   0.98936   0.00000  Uiso   1.00
C293   C     0.80537   0.71527   0.96958   0.00000  Uiso   1.00
C294   C     0.71082   0.45121   0.90960   0.00000  Uiso   1.00
C295   C     0.63646   0.43016   0.87345   0.00000  Uiso   1.00
C296   C     0.64113   0.38973   0.80066   0.00000  Uiso   1.00
C297   C     0.77371   0.43947   0.04091   0.00000  Uiso   1.00
C298   C     0.75222   0.40854   0.11514   0.00000  Uiso   1.00
C299   C     0.80983   0.35822   0.15289   0.00000  Uiso   1.00
H300   H     0.92004   0.44668   0.89676   0.00000  Uiso   1.00
H301   H     0.96369   0.60104   0.89016   0.00000  Uiso   1.00
H302   H     0.85100   0.37768   0.77428   0.00000  Uiso   1.00
H303   H     0.96675   0.35608   0.01593   0.00000  Uiso   1.00
H304   H     0.97840   0.78040   0.89839   0.00000  Uiso   1.00
H305   H     0.74081   0.30942   0.65405   0.00000  Uiso   1.00
H306   H     0.98488   0.26385   0.16362   0.00000  Uiso   1.00
H307   H     0.66067   0.51013   0.01668   0.00000  Uiso   1.00
H308   H     0.69009   0.66797   0.01667   0.00000  Uiso   1.00
H309   H     0.57741   0.44461   0.90078   0.00000  Uiso   1.00
H310   H     0.69315   0.42300   0.14243   0.00000  Uiso   1.00
H311   H     0.75634   0.83472   0.00106   0.00000  Uiso   1.00
H312   H     0.51875   0.36374   0.75672   0.00000  Uiso   1.00
H313   H     0.76282   0.31817   0.26629   0.00000  Uiso   1.00
O314   O     0.89139   0.91025   0.94753   0.00000  Uiso   1.00
O315   O     0.57968   0.29233   0.62697   0.00000  Uiso   1.00
O316   O     0.89990   0.23255   0.29552   0.00000  Uiso   1.00
N317   N     0.92211   0.77152   0.92257   0.00000  Uiso   1.00
N318   N     0.69998   0.33120   0.69412   0.00000  Uiso   1.00
N319   N     0.92816   0.28858   0.17051   0.00000  Uiso   1.00
N320   N     0.80262   0.80075   0.97782   0.00000  Uiso   1.00
N321   N     0.58049   0.36043   0.74937   0.00000  Uiso   1.00
N322   N     0.80867   0.31781   0.22576   0.00000  Uiso   1.00
C323   C     0.13938   0.53878   0.92423   0.00000  Uiso   1.00
C324   C     0.15163   0.44612   0.93729   0.00000  Uiso   1.00
C325   C     0.09537   0.38449   0.91748   0.00000  Uiso   1.00
C326   C     0.11817   0.30343   0.93422   0.00000  Uiso   1.00
C327   C     0.12560   0.16239   0.94909   0.00000  Uiso   1.00
C328   C     0.21285   0.56746   0.87432   0.00000  Uiso   1.00
C329   C     0.20807   0.60787   0.80157   0.00000  Uiso   1.00
C330   C     0.28241   0.62897   0.76531   0.00000  Uiso   1.00
C331   C     0.38488   0.67637   0.68244   0.00000  Uiso   1.00
C332   C     0.14996   0.57920   0.00561   0.00000  Uiso   1.00
C333   C     0.09231   0.62949   0.04326   0.00000  Uiso   1.00
C334   C     0.11370   0.66048   0.11754   0.00000  Uiso   1.00
C335   C     0.11853   0.72611   0.23853   0.00000  Uiso   1.00
C336   C     0.27990   0.50441   0.98921   0.00000  Uiso   1.00
C337   C     0.22796   0.42745   0.97258   0.00000  Uiso   1.00
C338   C     0.25084   0.34646   0.98936   0.00000  Uiso   1.00
C339   C     0.19463   0.28473   0.96958   0.00000  Uiso   1.00
C340   C     0.28918   0.54879   0.90960   0.00000  Uiso   1.00
C341   C     0.36354   0.56984   0.87345   0.00000  Uiso   1.00
C342   C     0.35887   0.61027   0.80066   0.00000  Uiso   1.00
C343   C     0.22629   0.56053   0.04091   0.00000  Uiso   1.00
C344   C     0.24778   0.59146   0.11514   0.00000  Uiso   1.00
C345   C     0.19017   0.64178   0.15289   0.00000  Uiso   1.00
H346   H     0.07996   0.55332   0.89676   0.00000  Uiso   1.00
H347   H     0.03631   0.39896   0.89016   0.00000  Uiso   1.00
H348   H     0.14900   0.62232   0.77428   0.00000  Uiso   1.00
H349   H     0.03325   0.64392   0.01593   0.00000  Uiso   1.00
H350   H     0.02160   0.21960   0.89839   0.00000  Uiso   1.00
H351   H     0.25919   0.69058   0.65405   0.00000  Uiso   1.00
H352   H     0.01512   0.73615   0.16362   0.00000  Uiso   1.00
H353   H     0.33933   0.48987   0.01668   0.00000  Uiso   1.00
H354   H     0.30991   0.33203   0.01667   0.00000  Uiso   1.00
H355   H     0.42259   0.55539   0.90078   0.00000  Uiso   1.00
H356   H     0.30685   0.57700   0.14243   0.00000  Uiso   1.00
H357   H     0.24366   0.16528   0.00106   0.00000  Uiso   1.00
H358   H     0.48125   0.63626   0.75672   0.00000  Uiso   1.00
H359   H     0.23718   0.68183   0.26629   0.00000  Uiso   1.00
O360   O     0.10861   0.08975   0.94753   0.00000  Uiso   1.00
O361   O     0.42032   0.70767   0.62697   0.00000  Uiso   1.00
O362   O     0.10010   0.76745   0.29552   0.00000  Uiso   1.00
N363   N     0.07789   0.22848   0.92257   0.00000  Uiso   1.00
N364   N     0.30002   0.66880   0.69412   0.00000  Uiso   1.00
N365   N     0.07184   0.71142   0.17051   0.00000  Uiso   1.00
N366   N     0.19738   0.19925   0.97782   0.00000  Uiso   1.00
N367   N     0.41951   0.63957   0.74937   0.00000  Uiso   1.00
N368   N     0.19133   0.68219   0.22576   0.00000  Uiso   1.00
