data_job_03404
_audit_creation_date              2018-12-19
_audit_creation_method            'Materials Studio'
_symmetry_space_group_name_H-M    'P1'
_symmetry_Int_Tables_number       1
_symmetry_cell_setting            triclinic
loop_
_symmetry_equiv_pos_as_xyz
  x,y,z
_cell_length_a                    19.4678
_cell_length_b                    12.9636
_cell_length_c                    22.7499
_cell_angle_alpha                 90.0000
_cell_angle_beta                  90.0000
_cell_angle_gamma                 90.0000
loop_
_atom_site_label
_atom_site_type_symbol
_atom_site_fract_x
_atom_site_fract_y
_atom_site_fract_z
_atom_site_U_iso_or_equiv
_atom_site_adp_type
_atom_site_occupancy
C1     C     0.76225   0.59734   0.97422   0.00000  Uiso   1.00
C2     C     0.77703   0.49708   0.00692   0.00000  Uiso   1.00
C3     C     0.75059   0.46962   0.06137   0.00000  Uiso   1.00
C4     C     0.77032   0.37457   0.08385   0.00000  Uiso   1.00
C5     C     0.78652   0.22883   0.13934   0.00000  Uiso   1.00
C6     C     0.83197   0.64680   0.96244   0.00000  Uiso   1.00
C7     C     0.85172   0.74523   0.97947   0.00000  Uiso   1.00
C8     C     0.91771   0.77621   0.96449   0.00000  Uiso   1.00
C9     C     0.01919   0.86294   0.95088   0.00000  Uiso   1.00
C10    C     0.73400   0.56593   0.91433   0.00000  Uiso   1.00
C11    C     0.67137   0.59638   0.89090   0.00000  Uiso   1.00
C12    C     0.65488   0.55928   0.83541   0.00000  Uiso   1.00
C13    C     0.60424   0.52044   0.74710   0.00000  Uiso   1.00
C14    C     0.84432   0.47736   0.91733   0.00000  Uiso   1.00
C15    C     0.82161   0.43192   0.97602   0.00000  Uiso   1.00
C16    C     0.84139   0.33688   0.99842   0.00000  Uiso   1.00
C17    C     0.81498   0.30928   0.05289   0.00000  Uiso   1.00
C18    C     0.87655   0.58163   0.93153   0.00000  Uiso   1.00
C19    C     0.94252   0.61248   0.91652   0.00000  Uiso   1.00
C20    C     0.96237   0.71092   0.93354   0.00000  Uiso   1.00
C21    C     0.77857   0.50075   0.88342   0.00000  Uiso   1.00
C22    C     0.76218   0.46362   0.82796   0.00000  Uiso   1.00
C23    C     0.69954   0.49400   0.80445   0.00000  Uiso   1.00
H24    H     0.72754   0.64808   0.99828   0.00000  Uiso   1.00
H25    H     0.71609   0.52009   0.08527   0.00000  Uiso   1.00
H26    H     0.81721   0.79565   0.00338   0.00000  Uiso   1.00
H27    H     0.63689   0.64681   0.91483   0.00000  Uiso   1.00
H28    H     0.72308   0.34945   0.16810   0.00000  Uiso   1.00
H29    H     0.93628   0.93050   0.99541   0.00000  Uiso   1.00
H30    H     0.55604   0.61665   0.80868   0.00000  Uiso   1.00
H31    H     0.87903   0.42662   0.89327   0.00000  Uiso   1.00
H32    H     0.87589   0.28646   0.97449   0.00000  Uiso   1.00
H33    H     0.97701   0.56203   0.89261   0.00000  Uiso   1.00
H34    H     0.79669   0.41319   0.80405   0.00000  Uiso   1.00
H35    H     0.85277   0.15984   0.07819   0.00000  Uiso   1.00
H36    H     0.06597   0.74089   0.90550   0.00000  Uiso   1.00
H37    H     0.68574   0.42704   0.71877   0.00000  Uiso   1.00
O38    O     0.78314   0.16645   0.17848   0.00000  Uiso   1.00
O39    O     0.06285   0.92877   0.95191   0.00000  Uiso   1.00
O40    O     0.56398   0.51701   0.70693   0.00000  Uiso   1.00
N41    N     0.75402   0.32405   0.13579   0.00000  Uiso   1.00
N42    N     0.95335   0.86729   0.97434   0.00000  Uiso   1.00
N43    N     0.59787   0.57389   0.79975   0.00000  Uiso   1.00
N44    N     0.82381   0.22202   0.08740   0.00000  Uiso   1.00
N45    N     0.02314   0.76526   0.92596   0.00000  Uiso   1.00
N46    N     0.66766   0.47186   0.75137   0.00000  Uiso   1.00
C47    C     0.73775   0.90266   0.47422   0.00000  Uiso   1.00
C48    C     0.72297   0.00292   0.50692   0.00000  Uiso   1.00
C49    C     0.74941   0.03038   0.56137   0.00000  Uiso   1.00
C50    C     0.72968   0.12543   0.58385   0.00000  Uiso   1.00
C51    C     0.71348   0.27117   0.63934   0.00000  Uiso   1.00
C52    C     0.66803   0.85320   0.46244   0.00000  Uiso   1.00
C53    C     0.64828   0.75477   0.47947   0.00000  Uiso   1.00
C54    C     0.58229   0.72379   0.46449   0.00000  Uiso   1.00
C55    C     0.48081   0.63706   0.45088   0.00000  Uiso   1.00
C56    C     0.76600   0.93407   0.41433   0.00000  Uiso   1.00
C57    C     0.82863   0.90362   0.39090   0.00000  Uiso   1.00
C58    C     0.84512   0.94072   0.33541   0.00000  Uiso   1.00
C59    C     0.89576   0.97956   0.24710   0.00000  Uiso   1.00
C60    C     0.65568   0.02264   0.41733   0.00000  Uiso   1.00
C61    C     0.67839   0.06808   0.47602   0.00000  Uiso   1.00
C62    C     0.65861   0.16312   0.49842   0.00000  Uiso   1.00
C63    C     0.68502   0.19072   0.55289   0.00000  Uiso   1.00
C64    C     0.62345   0.91837   0.43153   0.00000  Uiso   1.00
C65    C     0.55748   0.88752   0.41652   0.00000  Uiso   1.00
C66    C     0.53763   0.78908   0.43354   0.00000  Uiso   1.00
C67    C     0.72143   0.99925   0.38342   0.00000  Uiso   1.00
C68    C     0.73782   0.03638   0.32796   0.00000  Uiso   1.00
C69    C     0.80046   0.00600   0.30445   0.00000  Uiso   1.00
H70    H     0.77246   0.85192   0.49828   0.00000  Uiso   1.00
H71    H     0.78391   0.97991   0.58527   0.00000  Uiso   1.00
H72    H     0.68279   0.70435   0.50338   0.00000  Uiso   1.00
H73    H     0.86311   0.85319   0.41483   0.00000  Uiso   1.00
H74    H     0.77692   0.15055   0.66810   0.00000  Uiso   1.00
H75    H     0.56372   0.56950   0.49541   0.00000  Uiso   1.00
H76    H     0.94396   0.88335   0.30868   0.00000  Uiso   1.00
H77    H     0.62097   0.07338   0.39327   0.00000  Uiso   1.00
H78    H     0.62411   0.21354   0.47449   0.00000  Uiso   1.00
H79    H     0.52299   0.93797   0.39261   0.00000  Uiso   1.00
H80    H     0.70331   0.08681   0.30405   0.00000  Uiso   1.00
H81    H     0.64723   0.34016   0.57819   0.00000  Uiso   1.00
H82    H     0.43403   0.75911   0.40550   0.00000  Uiso   1.00
H83    H     0.81426   0.07296   0.21877   0.00000  Uiso   1.00
O84    O     0.71686   0.33355   0.67848   0.00000  Uiso   1.00
O85    O     0.43715   0.57123   0.45191   0.00000  Uiso   1.00
O86    O     0.93602   0.98299   0.20693   0.00000  Uiso   1.00
N87    N     0.74598   0.17595   0.63579   0.00000  Uiso   1.00
N88    N     0.54665   0.63271   0.47434   0.00000  Uiso   1.00
N89    N     0.90213   0.92611   0.29975   0.00000  Uiso   1.00
N90    N     0.67619   0.27798   0.58740   0.00000  Uiso   1.00
N91    N     0.47686   0.73474   0.42596   0.00000  Uiso   1.00
N92    N     0.83234   0.02814   0.25137   0.00000  Uiso   1.00
C93    C     0.23775   0.59734   0.52578   0.00000  Uiso   1.00
C94    C     0.22297   0.49708   0.49308   0.00000  Uiso   1.00
C95    C     0.24941   0.46962   0.43863   0.00000  Uiso   1.00
C96    C     0.22968   0.37457   0.41615   0.00000  Uiso   1.00
C97    C     0.21348   0.22883   0.36066   0.00000  Uiso   1.00
C98    C     0.16803   0.64680   0.53756   0.00000  Uiso   1.00
C99    C     0.14828   0.74523   0.52053   0.00000  Uiso   1.00
C100   C     0.08229   0.77621   0.53551   0.00000  Uiso   1.00
C101   C     0.98081   0.86294   0.54912   0.00000  Uiso   1.00
C102   C     0.26600   0.56593   0.58567   0.00000  Uiso   1.00
C103   C     0.32863   0.59638   0.60910   0.00000  Uiso   1.00
C104   C     0.34512   0.55928   0.66459   0.00000  Uiso   1.00
C105   C     0.39576   0.52044   0.75290   0.00000  Uiso   1.00
C106   C     0.15568   0.47736   0.58267   0.00000  Uiso   1.00
C107   C     0.17839   0.43192   0.52398   0.00000  Uiso   1.00
C108   C     0.15861   0.33688   0.50158   0.00000  Uiso   1.00
C109   C     0.18502   0.30928   0.44711   0.00000  Uiso   1.00
C110   C     0.12345   0.58163   0.56847   0.00000  Uiso   1.00
C111   C     0.05748   0.61248   0.58348   0.00000  Uiso   1.00
C112   C     0.03763   0.71092   0.56646   0.00000  Uiso   1.00
C113   C     0.22143   0.50075   0.61658   0.00000  Uiso   1.00
C114   C     0.23782   0.46362   0.67204   0.00000  Uiso   1.00
C115   C     0.30046   0.49400   0.69555   0.00000  Uiso   1.00
H116   H     0.27246   0.64808   0.50172   0.00000  Uiso   1.00
H117   H     0.28391   0.52009   0.41473   0.00000  Uiso   1.00
H118   H     0.18279   0.79565   0.49662   0.00000  Uiso   1.00
H119   H     0.36311   0.64681   0.58517   0.00000  Uiso   1.00
H120   H     0.27692   0.34945   0.33190   0.00000  Uiso   1.00
H121   H     0.06372   0.93050   0.50459   0.00000  Uiso   1.00
H122   H     0.44396   0.61665   0.69132   0.00000  Uiso   1.00
H123   H     0.12097   0.42662   0.60673   0.00000  Uiso   1.00
H124   H     0.12411   0.28646   0.52551   0.00000  Uiso   1.00
H125   H     0.02299   0.56203   0.60739   0.00000  Uiso   1.00
H126   H     0.20331   0.41319   0.69595   0.00000  Uiso   1.00
H127   H     0.14723   0.15984   0.42181   0.00000  Uiso   1.00
H128   H     0.93403   0.74089   0.59450   0.00000  Uiso   1.00
H129   H     0.31426   0.42704   0.78123   0.00000  Uiso   1.00
O130   O     0.21686   0.16645   0.32152   0.00000  Uiso   1.00
O131   O     0.93715   0.92877   0.54809   0.00000  Uiso   1.00
O132   O     0.43602   0.51701   0.79307   0.00000  Uiso   1.00
N133   N     0.24598   0.32405   0.36421   0.00000  Uiso   1.00
N134   N     0.04665   0.86729   0.52566   0.00000  Uiso   1.00
N135   N     0.40213   0.57389   0.70025   0.00000  Uiso   1.00
N136   N     0.17619   0.22202   0.41260   0.00000  Uiso   1.00
N137   N     0.97686   0.76526   0.57404   0.00000  Uiso   1.00
N138   N     0.33234   0.47186   0.74863   0.00000  Uiso   1.00
C139   C     0.26225   0.90266   0.02578   0.00000  Uiso   1.00
C140   C     0.27703   0.00292   0.99308   0.00000  Uiso   1.00
C141   C     0.25059   0.03038   0.93863   0.00000  Uiso   1.00
C142   C     0.27032   0.12543   0.91615   0.00000  Uiso   1.00
C143   C     0.28652   0.27117   0.86066   0.00000  Uiso   1.00
C144   C     0.33197   0.85320   0.03756   0.00000  Uiso   1.00
C145   C     0.35172   0.75477   0.02053   0.00000  Uiso   1.00
C146   C     0.41771   0.72379   0.03551   0.00000  Uiso   1.00
C147   C     0.51919   0.63706   0.04912   0.00000  Uiso   1.00
C148   C     0.23400   0.93407   0.08567   0.00000  Uiso   1.00
C149   C     0.17137   0.90362   0.10910   0.00000  Uiso   1.00
C150   C     0.15488   0.94072   0.16459   0.00000  Uiso   1.00
C151   C     0.10424   0.97956   0.25290   0.00000  Uiso   1.00
C152   C     0.34432   0.02264   0.08267   0.00000  Uiso   1.00
C153   C     0.32161   0.06808   0.02398   0.00000  Uiso   1.00
C154   C     0.34139   0.16312   0.00158   0.00000  Uiso   1.00
C155   C     0.31498   0.19072   0.94711   0.00000  Uiso   1.00
C156   C     0.37655   0.91837   0.06847   0.00000  Uiso   1.00
C157   C     0.44252   0.88752   0.08348   0.00000  Uiso   1.00
C158   C     0.46237   0.78908   0.06646   0.00000  Uiso   1.00
C159   C     0.27857   0.99925   0.11658   0.00000  Uiso   1.00
C160   C     0.26218   0.03638   0.17204   0.00000  Uiso   1.00
C161   C     0.19954   0.00600   0.19555   0.00000  Uiso   1.00
H162   H     0.22754   0.85192   0.00172   0.00000  Uiso   1.00
H163   H     0.21609   0.97991   0.91473   0.00000  Uiso   1.00
H164   H     0.31721   0.70435   0.99662   0.00000  Uiso   1.00
H165   H     0.13689   0.85319   0.08517   0.00000  Uiso   1.00
H166   H     0.22308   0.15055   0.83190   0.00000  Uiso   1.00
H167   H     0.43628   0.56950   0.00459   0.00000  Uiso   1.00
H168   H     0.05604   0.88335   0.19132   0.00000  Uiso   1.00
H169   H     0.37903   0.07338   0.10673   0.00000  Uiso   1.00
H170   H     0.37589   0.21354   0.02551   0.00000  Uiso   1.00
H171   H     0.47701   0.93797   0.10739   0.00000  Uiso   1.00
H172   H     0.29669   0.08681   0.19595   0.00000  Uiso   1.00
H173   H     0.35277   0.34016   0.92181   0.00000  Uiso   1.00
H174   H     0.56597   0.75911   0.09450   0.00000  Uiso   1.00
H175   H     0.18574   0.07296   0.28123   0.00000  Uiso   1.00
O176   O     0.28314   0.33355   0.82152   0.00000  Uiso   1.00
O177   O     0.56285   0.57123   0.04809   0.00000  Uiso   1.00
O178   O     0.06398   0.98299   0.29307   0.00000  Uiso   1.00
N179   N     0.25402   0.17595   0.86421   0.00000  Uiso   1.00
N180   N     0.45335   0.63271   0.02566   0.00000  Uiso   1.00
N181   N     0.09787   0.92611   0.20025   0.00000  Uiso   1.00
N182   N     0.32381   0.27798   0.91260   0.00000  Uiso   1.00
N183   N     0.52314   0.73474   0.07404   0.00000  Uiso   1.00
N184   N     0.16766   0.02814   0.24863   0.00000  Uiso   1.00
C185   C     0.23775   0.40266   0.02578   0.00000  Uiso   1.00
C186   C     0.22297   0.50292   0.99308   0.00000  Uiso   1.00
C187   C     0.24941   0.53038   0.93863   0.00000  Uiso   1.00
C188   C     0.22968   0.62543   0.91615   0.00000  Uiso   1.00
C189   C     0.21348   0.77117   0.86066   0.00000  Uiso   1.00
C190   C     0.16803   0.35320   0.03756   0.00000  Uiso   1.00
C191   C     0.14828   0.25477   0.02053   0.00000  Uiso   1.00
C192   C     0.08229   0.22379   0.03551   0.00000  Uiso   1.00
C193   C     0.98081   0.13706   0.04912   0.00000  Uiso   1.00
C194   C     0.26600   0.43407   0.08567   0.00000  Uiso   1.00
C195   C     0.32863   0.40362   0.10910   0.00000  Uiso   1.00
C196   C     0.34512   0.44072   0.16459   0.00000  Uiso   1.00
C197   C     0.39576   0.47956   0.25290   0.00000  Uiso   1.00
C198   C     0.15568   0.52264   0.08267   0.00000  Uiso   1.00
C199   C     0.17839   0.56808   0.02398   0.00000  Uiso   1.00
C200   C     0.15861   0.66312   0.00158   0.00000  Uiso   1.00
C201   C     0.18502   0.69072   0.94711   0.00000  Uiso   1.00
C202   C     0.12345   0.41837   0.06847   0.00000  Uiso   1.00
C203   C     0.05748   0.38752   0.08348   0.00000  Uiso   1.00
C204   C     0.03763   0.28908   0.06646   0.00000  Uiso   1.00
C205   C     0.22143   0.49925   0.11658   0.00000  Uiso   1.00
C206   C     0.23782   0.53638   0.17204   0.00000  Uiso   1.00
C207   C     0.30046   0.50600   0.19555   0.00000  Uiso   1.00
H208   H     0.27246   0.35192   0.00172   0.00000  Uiso   1.00
H209   H     0.28391   0.47991   0.91473   0.00000  Uiso   1.00
H210   H     0.18279   0.20435   0.99662   0.00000  Uiso   1.00
H211   H     0.36311   0.35319   0.08517   0.00000  Uiso   1.00
H212   H     0.27692   0.65055   0.83190   0.00000  Uiso   1.00
H213   H     0.06372   0.06950   0.00459   0.00000  Uiso   1.00
H214   H     0.44396   0.38335   0.19132   0.00000  Uiso   1.00
H215   H     0.12097   0.57338   0.10673   0.00000  Uiso   1.00
H216   H     0.12411   0.71354   0.02551   0.00000  Uiso   1.00
H217   H     0.02299   0.43797   0.10739   0.00000  Uiso   1.00
H218   H     0.20331   0.58681   0.19595   0.00000  Uiso   1.00
H219   H     0.14723   0.84016   0.92181   0.00000  Uiso   1.00
H220   H     0.93403   0.25911   0.09450   0.00000  Uiso   1.00
H221   H     0.31426   0.57296   0.28123   0.00000  Uiso   1.00
O222   O     0.21686   0.83355   0.82152   0.00000  Uiso   1.00
O223   O     0.93715   0.07123   0.04809   0.00000  Uiso   1.00
O224   O     0.43602   0.48299   0.29307   0.00000  Uiso   1.00
N225   N     0.24598   0.67595   0.86421   0.00000  Uiso   1.00
N226   N     0.04665   0.13271   0.02566   0.00000  Uiso   1.00
N227   N     0.40213   0.42611   0.20025   0.00000  Uiso   1.00
N228   N     0.17619   0.77798   0.91260   0.00000  Uiso   1.00
N229   N     0.97686   0.23474   0.07404   0.00000  Uiso   1.00
N230   N     0.33234   0.52814   0.24863   0.00000  Uiso   1.00
C231   C     0.26225   0.09734   0.52578   0.00000  Uiso   1.00
C232   C     0.27703   0.99708   0.49308   0.00000  Uiso   1.00
C233   C     0.25059   0.96962   0.43863   0.00000  Uiso   1.00
C234   C     0.27032   0.87457   0.41615   0.00000  Uiso   1.00
C235   C     0.28652   0.72883   0.36066   0.00000  Uiso   1.00
C236   C     0.33197   0.14680   0.53756   0.00000  Uiso   1.00
C237   C     0.35172   0.24523   0.52053   0.00000  Uiso   1.00
C238   C     0.41771   0.27621   0.53551   0.00000  Uiso   1.00
C239   C     0.51919   0.36294   0.54912   0.00000  Uiso   1.00
C240   C     0.23400   0.06593   0.58567   0.00000  Uiso   1.00
C241   C     0.17137   0.09638   0.60910   0.00000  Uiso   1.00
C242   C     0.15488   0.05928   0.66459   0.00000  Uiso   1.00
C243   C     0.10424   0.02044   0.75290   0.00000  Uiso   1.00
C244   C     0.34432   0.97736   0.58267   0.00000  Uiso   1.00
C245   C     0.32161   0.93192   0.52398   0.00000  Uiso   1.00
C246   C     0.34139   0.83688   0.50158   0.00000  Uiso   1.00
C247   C     0.31498   0.80928   0.44711   0.00000  Uiso   1.00
C248   C     0.37655   0.08163   0.56847   0.00000  Uiso   1.00
C249   C     0.44252   0.11248   0.58348   0.00000  Uiso   1.00
C250   C     0.46237   0.21092   0.56646   0.00000  Uiso   1.00
C251   C     0.27857   0.00075   0.61658   0.00000  Uiso   1.00
C252   C     0.26218   0.96362   0.67204   0.00000  Uiso   1.00
C253   C     0.19954   0.99400   0.69555   0.00000  Uiso   1.00
H254   H     0.22754   0.14808   0.50172   0.00000  Uiso   1.00
H255   H     0.21609   0.02009   0.41473   0.00000  Uiso   1.00
H256   H     0.31721   0.29565   0.49662   0.00000  Uiso   1.00
H257   H     0.13689   0.14681   0.58517   0.00000  Uiso   1.00
H258   H     0.22308   0.84945   0.33190   0.00000  Uiso   1.00
H259   H     0.43628   0.43050   0.50459   0.00000  Uiso   1.00
H260   H     0.05604   0.11665   0.69132   0.00000  Uiso   1.00
H261   H     0.37903   0.92662   0.60673   0.00000  Uiso   1.00
H262   H     0.37589   0.78646   0.52551   0.00000  Uiso   1.00
H263   H     0.47701   0.06203   0.60739   0.00000  Uiso   1.00
H264   H     0.29669   0.91319   0.69595   0.00000  Uiso   1.00
H265   H     0.35277   0.65984   0.42181   0.00000  Uiso   1.00
H266   H     0.56597   0.24089   0.59450   0.00000  Uiso   1.00
H267   H     0.18574   0.92704   0.78123   0.00000  Uiso   1.00
O268   O     0.28314   0.66645   0.32152   0.00000  Uiso   1.00
O269   O     0.56285   0.42877   0.54809   0.00000  Uiso   1.00
O270   O     0.06398   0.01701   0.79307   0.00000  Uiso   1.00
N271   N     0.25402   0.82405   0.36421   0.00000  Uiso   1.00
N272   N     0.45335   0.36729   0.52566   0.00000  Uiso   1.00
N273   N     0.09787   0.07389   0.70025   0.00000  Uiso   1.00
N274   N     0.32381   0.72202   0.41260   0.00000  Uiso   1.00
N275   N     0.52314   0.26526   0.57404   0.00000  Uiso   1.00
N276   N     0.16766   0.97186   0.74863   0.00000  Uiso   1.00
C277   C     0.76225   0.40266   0.47422   0.00000  Uiso   1.00
C278   C     0.77703   0.50292   0.50692   0.00000  Uiso   1.00
C279   C     0.75059   0.53038   0.56137   0.00000  Uiso   1.00
C280   C     0.77032   0.62543   0.58385   0.00000  Uiso   1.00
C281   C     0.78652   0.77117   0.63934   0.00000  Uiso   1.00
C282   C     0.83197   0.35320   0.46244   0.00000  Uiso   1.00
C283   C     0.85172   0.25477   0.47947   0.00000  Uiso   1.00
C284   C     0.91771   0.22379   0.46449   0.00000  Uiso   1.00
C285   C     0.01919   0.13706   0.45088   0.00000  Uiso   1.00
C286   C     0.73400   0.43407   0.41433   0.00000  Uiso   1.00
C287   C     0.67137   0.40362   0.39090   0.00000  Uiso   1.00
C288   C     0.65488   0.44072   0.33541   0.00000  Uiso   1.00
C289   C     0.60424   0.47956   0.24710   0.00000  Uiso   1.00
C290   C     0.84432   0.52264   0.41733   0.00000  Uiso   1.00
C291   C     0.82161   0.56808   0.47602   0.00000  Uiso   1.00
C292   C     0.84139   0.66312   0.49842   0.00000  Uiso   1.00
C293   C     0.81498   0.69072   0.55289   0.00000  Uiso   1.00
C294   C     0.87655   0.41837   0.43153   0.00000  Uiso   1.00
C295   C     0.94252   0.38752   0.41652   0.00000  Uiso   1.00
C296   C     0.96237   0.28908   0.43354   0.00000  Uiso   1.00
C297   C     0.77857   0.49925   0.38342   0.00000  Uiso   1.00
C298   C     0.76218   0.53638   0.32796   0.00000  Uiso   1.00
C299   C     0.69954   0.50600   0.30445   0.00000  Uiso   1.00
H300   H     0.72754   0.35192   0.49828   0.00000  Uiso   1.00
H301   H     0.71609   0.47991   0.58527   0.00000  Uiso   1.00
H302   H     0.81721   0.20435   0.50338   0.00000  Uiso   1.00
H303   H     0.63689   0.35319   0.41483   0.00000  Uiso   1.00
H304   H     0.72308   0.65055   0.66810   0.00000  Uiso   1.00
H305   H     0.93628   0.06950   0.49541   0.00000  Uiso   1.00
H306   H     0.55604   0.38335   0.30868   0.00000  Uiso   1.00
H307   H     0.87903   0.57338   0.39327   0.00000  Uiso   1.00
H308   H     0.87589   0.71354   0.47449   0.00000  Uiso   1.00
H309   H     0.97701   0.43797   0.39261   0.00000  Uiso   1.00
H310   H     0.79669   0.58681   0.30405   0.00000  Uiso   1.00
H311   H     0.85277   0.84016   0.57819   0.00000  Uiso   1.00
H312   H     0.06597   0.25911   0.40550   0.00000  Uiso   1.00
H313   H     0.68574   0.57296   0.21877   0.00000  Uiso   1.00
O314   O     0.78314   0.83355   0.67848   0.00000  Uiso   1.00
O315   O     0.06285   0.07123   0.45191   0.00000  Uiso   1.00
O316   O     0.56398   0.48299   0.20693   0.00000  Uiso   1.00
N317   N     0.75402   0.67595   0.63579   0.00000  Uiso   1.00
N318   N     0.95335   0.13271   0.47434   0.00000  Uiso   1.00
N319   N     0.59787   0.42611   0.29975   0.00000  Uiso   1.00
N320   N     0.82381   0.77798   0.58740   0.00000  Uiso   1.00
N321   N     0.02314   0.23474   0.42596   0.00000  Uiso   1.00
N322   N     0.66766   0.52814   0.25137   0.00000  Uiso   1.00
C323   C     0.73775   0.09734   0.97422   0.00000  Uiso   1.00
C324   C     0.72297   0.99708   0.00692   0.00000  Uiso   1.00
C325   C     0.74941   0.96962   0.06137   0.00000  Uiso   1.00
C326   C     0.72968   0.87457   0.08385   0.00000  Uiso   1.00
C327   C     0.71348   0.72883   0.13934   0.00000  Uiso   1.00
C328   C     0.66803   0.14680   0.96244   0.00000  Uiso   1.00
C329   C     0.64828   0.24523   0.97947   0.00000  Uiso   1.00
C330   C     0.58229   0.27621   0.96449   0.00000  Uiso   1.00
C331   C     0.48081   0.36294   0.95088   0.00000  Uiso   1.00
C332   C     0.76600   0.06593   0.91433   0.00000  Uiso   1.00
C333   C     0.82863   0.09638   0.89090   0.00000  Uiso   1.00
C334   C     0.84512   0.05928   0.83541   0.00000  Uiso   1.00
C335   C     0.89576   0.02044   0.74710   0.00000  Uiso   1.00
C336   C     0.65568   0.97736   0.91733   0.00000  Uiso   1.00
C337   C     0.67839   0.93192   0.97602   0.00000  Uiso   1.00
C338   C     0.65861   0.83688   0.99842   0.00000  Uiso   1.00
C339   C     0.68502   0.80928   0.05289   0.00000  Uiso   1.00
C340   C     0.62345   0.08163   0.93153   0.00000  Uiso   1.00
C341   C     0.55748   0.11248   0.91652   0.00000  Uiso   1.00
C342   C     0.53763   0.21092   0.93354   0.00000  Uiso   1.00
C343   C     0.72143   0.00075   0.88342   0.00000  Uiso   1.00
C344   C     0.73782   0.96362   0.82796   0.00000  Uiso   1.00
C345   C     0.80046   0.99400   0.80445   0.00000  Uiso   1.00
H346   H     0.77246   0.14808   0.99828   0.00000  Uiso   1.00
H347   H     0.78391   0.02009   0.08527   0.00000  Uiso   1.00
H348   H     0.68279   0.29565   0.00338   0.00000  Uiso   1.00
H349   H     0.86311   0.14681   0.91483   0.00000  Uiso   1.00
H350   H     0.77692   0.84945   0.16810   0.00000  Uiso   1.00
H351   H     0.56372   0.43050   0.99541   0.00000  Uiso   1.00
H352   H     0.94396   0.11665   0.80868   0.00000  Uiso   1.00
H353   H     0.62097   0.92662   0.89327   0.00000  Uiso   1.00
H354   H     0.62411   0.78646   0.97449   0.00000  Uiso   1.00
H355   H     0.52299   0.06203   0.89261   0.00000  Uiso   1.00
H356   H     0.70331   0.91319   0.80405   0.00000  Uiso   1.00
H357   H     0.64723   0.65984   0.07819   0.00000  Uiso   1.00
H358   H     0.43403   0.24089   0.90550   0.00000  Uiso   1.00
H359   H     0.81426   0.92704   0.71877   0.00000  Uiso   1.00
O360   O     0.71686   0.66645   0.17848   0.00000  Uiso   1.00
O361   O     0.43715   0.42877   0.95191   0.00000  Uiso   1.00
O362   O     0.93602   0.01701   0.70693   0.00000  Uiso   1.00
N363   N     0.74598   0.82405   0.13579   0.00000  Uiso   1.00
N364   N     0.54665   0.36729   0.97434   0.00000  Uiso   1.00
N365   N     0.90213   0.07389   0.79975   0.00000  Uiso   1.00
N366   N     0.67619   0.72202   0.08740   0.00000  Uiso   1.00
N367   N     0.47686   0.26526   0.92596   0.00000  Uiso   1.00
N368   N     0.83234   0.97186   0.75137   0.00000  Uiso   1.00
