data_job_06817
_audit_creation_date              2018-12-19
_audit_creation_method            'Materials Studio'
_symmetry_space_group_name_H-M    'P1'
_symmetry_Int_Tables_number       1
_symmetry_cell_setting            triclinic
loop_
_symmetry_equiv_pos_as_xyz
  x,y,z
_cell_length_a                    21.3217
_cell_length_b                    21.7804
_cell_length_c                    22.1092
_cell_angle_alpha                 107.5075
_cell_angle_beta                  97.9562
_cell_angle_gamma                 115.1418
loop_
_atom_site_label
_atom_site_type_symbol
_atom_site_fract_x
_atom_site_fract_y
_atom_site_fract_z
_atom_site_U_iso_or_equiv
_atom_site_adp_type
_atom_site_occupancy
C1     C     0.63383   0.31960   0.68799   0.00000  Uiso   1.00
C2     C     0.71383   0.34073   0.70012   0.00000  Uiso   1.00
C3     C     0.74032   0.29806   0.66474   0.00000  Uiso   1.00
C4     C     0.81532   0.32717   0.68350   0.00000  Uiso   1.00
C5     C     0.93242   0.34942   0.69441   0.00000  Uiso   1.00
C6     C     0.61924   0.32333   0.75425   0.00000  Uiso   1.00
C7     C     0.56618   0.26602   0.76437   0.00000  Uiso   1.00
C8     C     0.56154   0.28050   0.82870   0.00000  Uiso   1.00
C9     C     0.53174   0.27575   0.92362   0.00000  Uiso   1.00
C10    C     0.62742   0.38218   0.67557   0.00000  Uiso   1.00
C11    C     0.58123   0.37436   0.61954   0.00000  Uiso   1.00
C12    C     0.58347   0.43838   0.61763   0.00000  Uiso   1.00
C13    C     0.56638   0.52501   0.59039   0.00000  Uiso   1.00
C14    C     0.71992   0.44721   0.78424   0.00000  Uiso   1.00
C15    C     0.76059   0.41005   0.75240   0.00000  Uiso   1.00
C16    C     0.83557   0.43924   0.77123   0.00000  Uiso   1.00
C17    C     0.86216   0.39661   0.73588   0.00000  Uiso   1.00
C18    C     0.66600   0.39264   0.80653   0.00000  Uiso   1.00
C19    C     0.66143   0.40721   0.87086   0.00000  Uiso   1.00
C20    C     0.60838   0.34993   0.88107   0.00000  Uiso   1.00
C21    C     0.67418   0.45150   0.72785   0.00000  Uiso   1.00
C22    C     0.67649   0.51554   0.72603   0.00000  Uiso   1.00
C23    C     0.63031   0.50781   0.67001   0.00000  Uiso   1.00
H24    H     0.59743   0.26564   0.64729   0.00000  Uiso   1.00
H25    H     0.70411   0.24441   0.62429   0.00000  Uiso   1.00
H26    H     0.53000   0.21239   0.72390   0.00000  Uiso   1.00
H27    H     0.54505   0.32071   0.57909   0.00000  Uiso   1.00
H28    H     0.84302   0.25144   0.62185   0.00000  Uiso   1.00
H29    H     0.47587   0.18393   0.83189   0.00000  Uiso   1.00
H30    H     0.50761   0.41234   0.52653   0.00000  Uiso   1.00
H31    H     0.75633   0.50117   0.82494   0.00000  Uiso   1.00
H32    H     0.87174   0.49288   0.81169   0.00000  Uiso   1.00
H33    H     0.69762   0.46085   0.91130   0.00000  Uiso   1.00
H34    H     0.71268   0.56917   0.76649   0.00000  Uiso   1.00
H35    H     0.97907   0.45310   0.77395   0.00000  Uiso   1.00
H36    H     0.61191   0.38558   0.98399   0.00000  Uiso   1.00
H37    H     0.64366   0.61399   0.67863   0.00000  Uiso   1.00
O38    O     0.98410   0.34255   0.68599   0.00000  Uiso   1.00
O39    O     0.50240   0.25398   0.96154   0.00000  Uiso   1.00
O40    O     0.54405   0.55364   0.56092   0.00000  Uiso   1.00
N41    N     0.85920   0.30004   0.65946   0.00000  Uiso   1.00
N42    N     0.51594   0.23692   0.85583   0.00000  Uiso   1.00
N43    N     0.54561   0.45046   0.57036   0.00000  Uiso   1.00
N44    N     0.93241   0.40855   0.74130   0.00000  Uiso   1.00
N45    N     0.58915   0.34543   0.93767   0.00000  Uiso   1.00
N46    N     0.61882   0.55897   0.65220   0.00000  Uiso   1.00
C47    C     0.69356   0.04985   0.79753   0.00000  Uiso   1.00
C48    C     0.71291   0.02703   0.85305   0.00000  Uiso   1.00
C49    C     0.76049   0.99954   0.85825   0.00000  Uiso   1.00
C50    C     0.77090   0.98187   0.91276   0.00000  Uiso   1.00
C51    C     0.80638   0.94495   0.99172   0.00000  Uiso   1.00
C52    C     0.61088   0.00448   0.76766   0.00000  Uiso   1.00
C53    C     0.57266   0.95804   0.70107   0.00000  Uiso   1.00
C54    C     0.49718   0.92139   0.68371   0.00000  Uiso   1.00
C55    C     0.37425   0.84951   0.63010   0.00000  Uiso   1.00
C56    C     0.71158   0.13003   0.83187   0.00000  Uiso   1.00
C57    C     0.75803   0.18916   0.81925   0.00000  Uiso   1.00
C58    C     0.76733   0.25822   0.85593   0.00000  Uiso   1.00
C59    C     0.80076   0.38128   0.90201   0.00000  Uiso   1.00
C60    C     0.62745   0.06735   0.88509   0.00000  Uiso   1.00
C61    C     0.67700   0.03653   0.90061   0.00000  Uiso   1.00
C62    C     0.68735   0.01890   0.95513   0.00000  Uiso   1.00
C63    C     0.73493   0.99139   0.96041   0.00000  Uiso   1.00
C64    C     0.57497   0.01398   0.81522   0.00000  Uiso   1.00
C65    C     0.49952   0.97740   0.79795   0.00000  Uiso   1.00
C66    C     0.46121   0.93091   0.73135   0.00000  Uiso   1.00
C67    C     0.67568   0.13954   0.87943   0.00000  Uiso   1.00
C68    C     0.68490   0.20852   0.91613   0.00000  Uiso   1.00
C69    C     0.73135   0.26775   0.90357   0.00000  Uiso   1.00
H70    H     0.72151   0.04245   0.76050   0.00000  Uiso   1.00
H71    H     0.78826   0.99218   0.82143   0.00000  Uiso   1.00
H72    H     0.60047   0.95070   0.66428   0.00000  Uiso   1.00
H73    H     0.78581   0.18178   0.78245   0.00000  Uiso   1.00
H74    H     0.84641   0.94062   0.90995   0.00000  Uiso   1.00
H75    H     0.45043   0.85317   0.57858   0.00000  Uiso   1.00
H76    H     0.84127   0.34046   0.82775   0.00000  Uiso   1.00
H77    H     0.59949   0.07475   0.92211   0.00000  Uiso   1.00
H78    H     0.65955   0.02626   0.99192   0.00000  Uiso   1.00
H79    H     0.47176   0.98478   0.83477   0.00000  Uiso   1.00
H80    H     0.65710   0.21586   0.95293   0.00000  Uiso   1.00
H81    H     0.74194   0.96828   0.04833   0.00000  Uiso   1.00
H82    H     0.34597   0.88083   0.71695   0.00000  Uiso   1.00
H83    H     0.73680   0.36812   0.96612   0.00000  Uiso   1.00
O84    O     0.83586   0.92195   0.02213   0.00000  Uiso   1.00
O85    O     0.31636   0.80722   0.58739   0.00000  Uiso   1.00
O86    O     0.82913   0.44653   0.91429   0.00000  Uiso   1.00
N87    N     0.81359   0.95380   0.93295   0.00000  Uiso   1.00
N88    N     0.44338   0.87203   0.62314   0.00000  Uiso   1.00
N89    N     0.80876   0.32760   0.85607   0.00000  Uiso   1.00
N90    N     0.75738   0.96868   0.00740   0.00000  Uiso   1.00
N91    N     0.38717   0.88691   0.69759   0.00000  Uiso   1.00
N92    N     0.75255   0.34248   0.93053   0.00000  Uiso   1.00
C93    C     0.39702   0.24174   0.46974   0.00000  Uiso   1.00
C94    C     0.37313   0.23960   0.40051   0.00000  Uiso   1.00
C95    C     0.41627   0.28527   0.37347   0.00000  Uiso   1.00
C96    C     0.38430   0.27457   0.30935   0.00000  Uiso   1.00
C97    C     0.35822   0.27954   0.20730   0.00000  Uiso   1.00
C98    C     0.34348   0.25303   0.50459   0.00000  Uiso   1.00
C99    C     0.36171   0.30999   0.56507   0.00000  Uiso   1.00
C100   C     0.30478   0.31059   0.58857   0.00000  Uiso   1.00
C101   C     0.23267   0.33639   0.64813   0.00000  Uiso   1.00
C102   C     0.38296   0.16394   0.45904   0.00000  Uiso   1.00
C103   C     0.43437   0.14598   0.48123   0.00000  Uiso   1.00
C104   C     0.41067   0.07157   0.46639   0.00000  Uiso   1.00
C105   C     0.39985   0.95903   0.45523   0.00000  Uiso   1.00
C106   C     0.26350   0.14153   0.40396   0.00000  Uiso   1.00
C107   C     0.30060   0.18517   0.36478   0.00000  Uiso   1.00
C108   C     0.26855   0.17439   0.30068   0.00000  Uiso   1.00
C109   C     0.31165   0.22004   0.27355   0.00000  Uiso   1.00
C110   C     0.27096   0.19860   0.46887   0.00000  Uiso   1.00
C111   C     0.21399   0.19912   0.49228   0.00000  Uiso   1.00
C112   C     0.23212   0.25607   0.55277   0.00000  Uiso   1.00
C113   C     0.31043   0.10950   0.42331   0.00000  Uiso   1.00
C114   C     0.28665   0.03511   0.40844   0.00000  Uiso   1.00
C115   C     0.33801   0.01704   0.43059   0.00000  Uiso   1.00
H116   H     0.45348   0.28412   0.49756   0.00000  Uiso   1.00
H117   H     0.47239   0.32739   0.40114   0.00000  Uiso   1.00
H118   H     0.41784   0.35210   0.59271   0.00000  Uiso   1.00
H119   H     0.49048   0.18812   0.50888   0.00000  Uiso   1.00
H120   H     0.46137   0.35137   0.27848   0.00000  Uiso   1.00
H121   H     0.34634   0.40347   0.68243   0.00000  Uiso   1.00
H122   H     0.49953   0.05767   0.50566   0.00000  Uiso   1.00
H123   H     0.20704   0.09916   0.37614   0.00000  Uiso   1.00
H124   H     0.21243   0.13227   0.27305   0.00000  Uiso   1.00
H125   H     0.15787   0.15699   0.46462   0.00000  Uiso   1.00
H126   H     0.23052   0.99300   0.38079   0.00000  Uiso   1.00
H127   H     0.25038   0.19301   0.17452   0.00000  Uiso   1.00
H128   H     0.13534   0.24510   0.57848   0.00000  Uiso   1.00
H129   H     0.28853   0.89931   0.40170   0.00000  Uiso   1.00
O130   O     0.36386   0.29733   0.16088   0.00000  Uiso   1.00
O131   O     0.21294   0.36567   0.69086   0.00000  Uiso   1.00
O132   O     0.41393   0.91199   0.45893   0.00000  Uiso   1.00
N133   N     0.41098   0.30954   0.26816   0.00000  Uiso   1.00
N134   N     0.30343   0.35826   0.64582   0.00000  Uiso   1.00
N135   N     0.44665   0.03497   0.48057   0.00000  Uiso   1.00
N136   N     0.29745   0.22433   0.21222   0.00000  Uiso   1.00
N137   N     0.18989   0.27304   0.58988   0.00000  Uiso   1.00
N138   N     0.33311   0.94976   0.42463   0.00000  Uiso   1.00
C139   C     0.23028   0.73367   0.79932   0.00000  Uiso   1.00
C140   C     0.30406   0.73909   0.82170   0.00000  Uiso   1.00
C141   C     0.36980   0.79158   0.82106   0.00000  Uiso   1.00
C142   C     0.43123   0.78717   0.84356   0.00000  Uiso   1.00
C143   C     0.54645   0.80396   0.87495   0.00000  Uiso   1.00
C144   C     0.20095   0.73694   0.85865   0.00000  Uiso   1.00
C145   C     0.17999   0.78762   0.88906   0.00000  Uiso   1.00
C146   C     0.15461   0.78139   0.94266   0.00000  Uiso   1.00
C147   C     0.10970   0.79482   0.03138   0.00000  Uiso   1.00
C148   C     0.18046   0.65564   0.74579   0.00000  Uiso   1.00
C149   C     0.14225   0.63796   0.68131   0.00000  Uiso   1.00
C150   C     0.09960   0.56327   0.63989   0.00000  Uiso   1.00
C151   C     0.02287   0.45047   0.55338   0.00000  Uiso   1.00
C152   C     0.22246   0.63247   0.84044   0.00000  Uiso   1.00
C153   C     0.29981   0.68412   0.84404   0.00000  Uiso   1.00
C154   C     0.36115   0.67962   0.86655   0.00000  Uiso   1.00
C155   C     0.42697   0.73210   0.86594   0.00000  Uiso   1.00
C156   C     0.19670   0.68198   0.88099   0.00000  Uiso   1.00
C157   C     0.17134   0.67566   0.93455   0.00000  Uiso   1.00
C158   C     0.15036   0.72633   0.96504   0.00000  Uiso   1.00
C159   C     0.17621   0.60067   0.76812   0.00000  Uiso   1.00
C160   C     0.13361   0.52600   0.72680   0.00000  Uiso   1.00
C161   C     0.09535   0.50821   0.66227   0.00000  Uiso   1.00
H162   H     0.23358   0.77646   0.78193   0.00000  Uiso   1.00
H163   H     0.37307   0.83412   0.80377   0.00000  Uiso   1.00
H164   H     0.18328   0.83015   0.87176   0.00000  Uiso   1.00
H165   H     0.14555   0.68051   0.66404   0.00000  Uiso   1.00
H166   H     0.52585   0.87381   0.83786   0.00000  Uiso   1.00
H167   H     0.12564   0.86543   0.98120   0.00000  Uiso   1.00
H168   H     0.04608   0.54988   0.54318   0.00000  Uiso   1.00
H169   H     0.21915   0.58968   0.85783   0.00000  Uiso   1.00
H170   H     0.35785   0.63708   0.88383   0.00000  Uiso   1.00
H171   H     0.16806   0.63312   0.95182   0.00000  Uiso   1.00
H172   H     0.13033   0.48348   0.74410   0.00000  Uiso   1.00
H173   H     0.51350   0.71389   0.90284   0.00000  Uiso   1.00
H174   H     0.11329   0.70551   0.04618   0.00000  Uiso   1.00
H175   H     0.03373   0.38997   0.60817   0.00000  Uiso   1.00
O176   O     0.61118   0.82842   0.88611   0.00000  Uiso   1.00
O177   O     0.08611   0.81742   0.07415   0.00000  Uiso   1.00
O178   O     0.98173   0.40343   0.49949   0.00000  Uiso   1.00
N179   N     0.50390   0.82966   0.84957   0.00000  Uiso   1.00
N180   N     0.12975   0.82183   0.98359   0.00000  Uiso   1.00
N181   N     0.05535   0.52682   0.57409   0.00000  Uiso   1.00
N182   N     0.49726   0.74361   0.88454   0.00000  Uiso   1.00
N183   N     0.12310   0.73578   0.01856   0.00000  Uiso   1.00
N184   N     0.04870   0.44077   0.60906   0.00000  Uiso   1.00
C185   C     0.19337   0.88684   0.76408   0.00000  Uiso   1.00
C186   C     0.19866   0.89585   0.69888   0.00000  Uiso   1.00
C187   C     0.18719   0.84100   0.63960   0.00000  Uiso   1.00
C188   C     0.19462   0.86028   0.58554   0.00000  Uiso   1.00
C189   C     0.20002   0.86337   0.48352   0.00000  Uiso   1.00
C190   C     0.13784   0.90910   0.78356   0.00000  Uiso   1.00
C191   C     0.07525   0.86538   0.79549   0.00000  Uiso   1.00
C192   C     0.03148   0.89582   0.81274   0.00000  Uiso   1.00
C193   C     0.94250   0.91950   0.84224   0.00000  Uiso   1.00
C194   C     0.26661   0.94589   0.81624   0.00000  Uiso   1.00
C195   C     0.31228   0.93311   0.85566   0.00000  Uiso   1.00
C196   C     0.37692   0.99453   0.90042   0.00000  Uiso   1.00
C197   C     0.48786   0.07533   0.98066   0.00000  Uiso   1.00
C198   C     0.22696   0.01863   0.77350   0.00000  Uiso   1.00
C199   C     0.21690   0.96743   0.70400   0.00000  Uiso   1.00
C200   C     0.22435   0.98681   0.65002   0.00000  Uiso   1.00
C201   C     0.21290   0.93199   0.59067   0.00000  Uiso   1.00
C202   C     0.15608   0.98068   0.78868   0.00000  Uiso   1.00
C203   C     0.11241   0.01119   0.80592   0.00000  Uiso   1.00
C204   C     0.04976   0.96753   0.81787   0.00000  Uiso   1.00
C205   C     0.28486   0.01747   0.82136   0.00000  Uiso   1.00
C206   C     0.34944   0.07892   0.86608   0.00000  Uiso   1.00
C207   C     0.39519   0.06624   0.90555   0.00000  Uiso   1.00
H208   H     0.17916   0.83111   0.76009   0.00000  Uiso   1.00
H209   H     0.17307   0.78561   0.63565   0.00000  Uiso   1.00
H210   H     0.06115   0.80999   0.79153   0.00000  Uiso   1.00
H211   H     0.29814   0.87771   0.85168   0.00000  Uiso   1.00
H212   H     0.17433   0.76672   0.49994   0.00000  Uiso   1.00
H213   H     0.93835   0.81814   0.82864   0.00000  Uiso   1.00
H214   H     0.43810   0.96094   0.95548   0.00000  Uiso   1.00
H215   H     0.24116   0.07436   0.77749   0.00000  Uiso   1.00
H216   H     0.23847   0.04221   0.65400   0.00000  Uiso   1.00
H217   H     0.12654   0.06659   0.80988   0.00000  Uiso   1.00
H218   H     0.36353   0.13431   0.87003   0.00000  Uiso   1.00
H219   H     0.22741   0.97498   0.51483   0.00000  Uiso   1.00
H220   H     0.99143   0.02641   0.84354   0.00000  Uiso   1.00
H221   H     0.49117   0.16921   0.97037   0.00000  Uiso   1.00
O222   O     0.19796   0.84530   0.42583   0.00000  Uiso   1.00
O223   O     0.88837   0.91277   0.85709   0.00000  Uiso   1.00
O224   O     0.54402   0.10012   0.02350   0.00000  Uiso   1.00
N225   N     0.18721   0.82015   0.52039   0.00000  Uiso   1.00
N226   N     0.96657   0.86823   0.82770   0.00000  Uiso   1.00
N227   N     0.43378   0.00173   0.94630   0.00000  Uiso   1.00
N228   N     0.21577   0.93222   0.52841   0.00000  Uiso   1.00
N229   N     0.99513   0.98029   0.83571   0.00000  Uiso   1.00
N230   N     0.46234   0.11380   0.95431   0.00000  Uiso   1.00
C231   C     0.91761   0.67817   0.57324   0.00000  Uiso   1.00
C232   C     0.83622   0.63448   0.53595   0.00000  Uiso   1.00
C233   C     0.80352   0.58090   0.47117   0.00000  Uiso   1.00
C234   C     0.72830   0.54727   0.44604   0.00000  Uiso   1.00
C235   C     0.60816   0.47647   0.38232   0.00000  Uiso   1.00
C236   C     0.92580   0.66472   0.63697   0.00000  Uiso   1.00
C237   C     0.96843   0.63657   0.65713   0.00000  Uiso   1.00
C238   C     0.96862   0.62840   0.71705   0.00000  Uiso   1.00
C239   C     0.98759   0.60459   0.81019   0.00000  Uiso   1.00
C240   C     0.93912   0.75967   0.59517   0.00000  Uiso   1.00
C241   C     0.99295   0.81136   0.58020   0.00000  Uiso   1.00
C242   C     0.00437   0.88314   0.60494   0.00000  Uiso   1.00
C243   C     0.04401   0.00676   0.63318   0.00000  Uiso   1.00
C244   C     0.84218   0.71372   0.64382   0.00000  Uiso   1.00
C245   C     0.79525   0.65379   0.57429   0.00000  Uiso   1.00
C246   C     0.72006   0.62024   0.54926   0.00000  Uiso   1.00
C247   C     0.68726   0.56662   0.48445   0.00000  Uiso   1.00
C248   C     0.88483   0.68403   0.67531   0.00000  Uiso   1.00
C249   C     0.88497   0.67590   0.73521   0.00000  Uiso   1.00
C250   C     0.92757   0.64775   0.75546   0.00000  Uiso   1.00
C251   C     0.89814   0.77898   0.63351   0.00000  Uiso   1.00
C252   C     0.90949   0.85069   0.65828   0.00000  Uiso   1.00
C253   C     0.96332   0.90249   0.64335   0.00000  Uiso   1.00
H254   H     0.94951   0.66313   0.54340   0.00000  Uiso   1.00
H255   H     0.83525   0.56597   0.44152   0.00000  Uiso   1.00
H256   H     0.00013   0.62163   0.62745   0.00000  Uiso   1.00
H257   H     0.02465   0.79640   0.55053   0.00000  Uiso   1.00
H258   H     0.69049   0.46674   0.34548   0.00000  Uiso   1.00
H259   H     0.03818   0.58414   0.73754   0.00000  Uiso   1.00
H260   H     0.08988   0.95266   0.57535   0.00000  Uiso   1.00
H261   H     0.81028   0.72876   0.67367   0.00000  Uiso   1.00
H262   H     0.68837   0.63519   0.57893   0.00000  Uiso   1.00
H263   H     0.85326   0.69086   0.76487   0.00000  Uiso   1.00
H264   H     0.87777   0.86562   0.68795   0.00000  Uiso   1.00
H265   H     0.57128   0.52292   0.45701   0.00000  Uiso   1.00
H266   H     0.91897   0.64032   0.84908   0.00000  Uiso   1.00
H267   H     0.97067   0.00884   0.68688   0.00000  Uiso   1.00
O268   O     0.55320   0.43207   0.33659   0.00000  Uiso   1.00
O269   O     0.00936   0.58612   0.85096   0.00000  Uiso   1.00
O270   O     0.07719   0.06961   0.63816   0.00000  Uiso   1.00
N271   N     0.67917   0.49281   0.38473   0.00000  Uiso   1.00
N272   N     0.00422   0.60256   0.75128   0.00000  Uiso   1.00
N273   N     0.05257   0.94711   0.59965   0.00000  Uiso   1.00
N274   N     0.61502   0.52304   0.44474   0.00000  Uiso   1.00
N275   N     0.94008   0.63279   0.81129   0.00000  Uiso   1.00
N276   N     0.98843   0.97734   0.65966   0.00000  Uiso   1.00
C277   C     0.36617   0.68040   0.31201   0.00000  Uiso   1.00
C278   C     0.28617   0.65927   0.29988   0.00000  Uiso   1.00
C279   C     0.25968   0.70194   0.33526   0.00000  Uiso   1.00
C280   C     0.18468   0.67283   0.31650   0.00000  Uiso   1.00
C281   C     0.06758   0.65058   0.30559   0.00000  Uiso   1.00
C282   C     0.38076   0.67667   0.24575   0.00000  Uiso   1.00
C283   C     0.43382   0.73398   0.23563   0.00000  Uiso   1.00
C284   C     0.43846   0.71950   0.17130   0.00000  Uiso   1.00
C285   C     0.46826   0.72425   0.07638   0.00000  Uiso   1.00
C286   C     0.37258   0.61782   0.32443   0.00000  Uiso   1.00
C287   C     0.41877   0.62564   0.38046   0.00000  Uiso   1.00
C288   C     0.41653   0.56162   0.38237   0.00000  Uiso   1.00
C289   C     0.43362   0.47499   0.40961   0.00000  Uiso   1.00
C290   C     0.28008   0.55279   0.21576   0.00000  Uiso   1.00
C291   C     0.23941   0.58995   0.24760   0.00000  Uiso   1.00
C292   C     0.16443   0.56076   0.22877   0.00000  Uiso   1.00
C293   C     0.13784   0.60339   0.26412   0.00000  Uiso   1.00
C294   C     0.33400   0.60736   0.19347   0.00000  Uiso   1.00
C295   C     0.33857   0.59279   0.12914   0.00000  Uiso   1.00
C296   C     0.39162   0.65007   0.11893   0.00000  Uiso   1.00
C297   C     0.32582   0.54850   0.27215   0.00000  Uiso   1.00
C298   C     0.32351   0.48446   0.27397   0.00000  Uiso   1.00
C299   C     0.36969   0.49219   0.32999   0.00000  Uiso   1.00
H300   H     0.40257   0.73436   0.35271   0.00000  Uiso   1.00
H301   H     0.29589   0.75559   0.37571   0.00000  Uiso   1.00
H302   H     0.47000   0.78761   0.27610   0.00000  Uiso   1.00
H303   H     0.45495   0.67929   0.42091   0.00000  Uiso   1.00
H304   H     0.15698   0.74856   0.37815   0.00000  Uiso   1.00
H305   H     0.52413   0.81607   0.16811   0.00000  Uiso   1.00
H306   H     0.49239   0.58766   0.47347   0.00000  Uiso   1.00
H307   H     0.24367   0.49883   0.17506   0.00000  Uiso   1.00
H308   H     0.12826   0.50712   0.18831   0.00000  Uiso   1.00
H309   H     0.30238   0.53915   0.08870   0.00000  Uiso   1.00
H310   H     0.28732   0.43083   0.23351   0.00000  Uiso   1.00
H311   H     0.02093   0.54690   0.22605   0.00000  Uiso   1.00
H312   H     0.38809   0.61442   0.01601   0.00000  Uiso   1.00
H313   H     0.35634   0.38601   0.32137   0.00000  Uiso   1.00
O314   O     0.01590   0.65745   0.31401   0.00000  Uiso   1.00
O315   O     0.49760   0.74602   0.03846   0.00000  Uiso   1.00
O316   O     0.45595   0.44636   0.43908   0.00000  Uiso   1.00
N317   N     0.14080   0.69996   0.34054   0.00000  Uiso   1.00
N318   N     0.48406   0.76308   0.14417   0.00000  Uiso   1.00
N319   N     0.45439   0.54954   0.42964   0.00000  Uiso   1.00
N320   N     0.06759   0.59145   0.25870   0.00000  Uiso   1.00
N321   N     0.41085   0.65457   0.06233   0.00000  Uiso   1.00
N322   N     0.38118   0.44103   0.34780   0.00000  Uiso   1.00
C323   C     0.30644   0.95015   0.20247   0.00000  Uiso   1.00
C324   C     0.28709   0.97297   0.14695   0.00000  Uiso   1.00
C325   C     0.23951   0.00046   0.14175   0.00000  Uiso   1.00
C326   C     0.22910   0.01813   0.08724   0.00000  Uiso   1.00
C327   C     0.19362   0.05505   0.00828   0.00000  Uiso   1.00
C328   C     0.38912   0.99552   0.23234   0.00000  Uiso   1.00
C329   C     0.42734   0.04196   0.29893   0.00000  Uiso   1.00
C330   C     0.50282   0.07861   0.31629   0.00000  Uiso   1.00
C331   C     0.62575   0.15049   0.36990   0.00000  Uiso   1.00
C332   C     0.28842   0.86997   0.16813   0.00000  Uiso   1.00
C333   C     0.24197   0.81084   0.18075   0.00000  Uiso   1.00
C334   C     0.23267   0.74178   0.14407   0.00000  Uiso   1.00
C335   C     0.19924   0.61872   0.09799   0.00000  Uiso   1.00
C336   C     0.37255   0.93265   0.11491   0.00000  Uiso   1.00
C337   C     0.32300   0.96347   0.09939   0.00000  Uiso   1.00
C338   C     0.31265   0.98110   0.04487   0.00000  Uiso   1.00
C339   C     0.26507   0.00861   0.03959   0.00000  Uiso   1.00
C340   C     0.42503   0.98602   0.18478   0.00000  Uiso   1.00
C341   C     0.50048   0.02260   0.20205   0.00000  Uiso   1.00
C342   C     0.53879   0.06909   0.26865   0.00000  Uiso   1.00
C343   C     0.32432   0.86046   0.12057   0.00000  Uiso   1.00
C344   C     0.31510   0.79148   0.08387   0.00000  Uiso   1.00
C345   C     0.26865   0.73225   0.09643   0.00000  Uiso   1.00
H346   H     0.27849   0.95755   0.23950   0.00000  Uiso   1.00
H347   H     0.21174   0.00782   0.17857   0.00000  Uiso   1.00
H348   H     0.39953   0.04930   0.33572   0.00000  Uiso   1.00
H349   H     0.21419   0.81822   0.21755   0.00000  Uiso   1.00
H350   H     0.15359   0.05938   0.09005   0.00000  Uiso   1.00
H351   H     0.54957   0.14683   0.42142   0.00000  Uiso   1.00
H352   H     0.15873   0.65954   0.17225   0.00000  Uiso   1.00
H353   H     0.40051   0.92525   0.07789   0.00000  Uiso   1.00
H354   H     0.34045   0.97374   0.00808   0.00000  Uiso   1.00
H355   H     0.52824   0.01522   0.16523   0.00000  Uiso   1.00
H356   H     0.34290   0.78414   0.04707   0.00000  Uiso   1.00
H357   H     0.25806   0.03172   0.95167   0.00000  Uiso   1.00
H358   H     0.65403   0.11917   0.28305   0.00000  Uiso   1.00
H359   H     0.26320   0.63188   0.03388   0.00000  Uiso   1.00
O360   O     0.16414   0.07805   0.97787   0.00000  Uiso   1.00
O361   O     0.68364   0.19278   0.41261   0.00000  Uiso   1.00
O362   O     0.17087   0.55347   0.08571   0.00000  Uiso   1.00
N363   N     0.18641   0.04620   0.06705   0.00000  Uiso   1.00
N364   N     0.55662   0.12797   0.37686   0.00000  Uiso   1.00
N365   N     0.19124   0.67240   0.14393   0.00000  Uiso   1.00
N366   N     0.24262   0.03132   0.99260   0.00000  Uiso   1.00
N367   N     0.61283   0.11309   0.30241   0.00000  Uiso   1.00
N368   N     0.24745   0.65752   0.06947   0.00000  Uiso   1.00
C369   C     0.60298   0.75826   0.53026   0.00000  Uiso   1.00
C370   C     0.62687   0.76040   0.59949   0.00000  Uiso   1.00
C371   C     0.58373   0.71473   0.62653   0.00000  Uiso   1.00
C372   C     0.61570   0.72543   0.69065   0.00000  Uiso   1.00
C373   C     0.64178   0.72046   0.79270   0.00000  Uiso   1.00
C374   C     0.65652   0.74697   0.49541   0.00000  Uiso   1.00
C375   C     0.63829   0.69001   0.43493   0.00000  Uiso   1.00
C376   C     0.69522   0.68941   0.41143   0.00000  Uiso   1.00
C377   C     0.76733   0.66361   0.35187   0.00000  Uiso   1.00
C378   C     0.61704   0.83606   0.54096   0.00000  Uiso   1.00
C379   C     0.56563   0.85402   0.51877   0.00000  Uiso   1.00
C380   C     0.58933   0.92843   0.53361   0.00000  Uiso   1.00
C381   C     0.60015   0.04097   0.54477   0.00000  Uiso   1.00
C382   C     0.73650   0.85847   0.59604   0.00000  Uiso   1.00
C383   C     0.69940   0.81483   0.63522   0.00000  Uiso   1.00
C384   C     0.73145   0.82561   0.69932   0.00000  Uiso   1.00
C385   C     0.68835   0.77996   0.72645   0.00000  Uiso   1.00
C386   C     0.72904   0.80140   0.53113   0.00000  Uiso   1.00
C387   C     0.78601   0.80088   0.50772   0.00000  Uiso   1.00
C388   C     0.76788   0.74393   0.44723   0.00000  Uiso   1.00
C389   C     0.68957   0.89050   0.57669   0.00000  Uiso   1.00
C390   C     0.71335   0.96489   0.59156   0.00000  Uiso   1.00
C391   C     0.66199   0.98296   0.56941   0.00000  Uiso   1.00
H392   H     0.54652   0.71588   0.50244   0.00000  Uiso   1.00
H393   H     0.52761   0.67261   0.59886   0.00000  Uiso   1.00
H394   H     0.58216   0.64790   0.40729   0.00000  Uiso   1.00
H395   H     0.50952   0.81188   0.49112   0.00000  Uiso   1.00
H396   H     0.53863   0.64863   0.72152   0.00000  Uiso   1.00
H397   H     0.65366   0.59653   0.31757   0.00000  Uiso   1.00
H398   H     0.50047   0.94233   0.49434   0.00000  Uiso   1.00
H399   H     0.79296   0.90084   0.62386   0.00000  Uiso   1.00
H400   H     0.78757   0.86773   0.72695   0.00000  Uiso   1.00
H401   H     0.84213   0.84301   0.53538   0.00000  Uiso   1.00
H402   H     0.76948   0.00700   0.61921   0.00000  Uiso   1.00
H403   H     0.74962   0.80699   0.82548   0.00000  Uiso   1.00
H404   H     0.86466   0.75490   0.42152   0.00000  Uiso   1.00
H405   H     0.71147   0.10069   0.59830   0.00000  Uiso   1.00
O406   O     0.63614   0.70267   0.83912   0.00000  Uiso   1.00
O407   O     0.78706   0.63433   0.30914   0.00000  Uiso   1.00
O408   O     0.58607   0.08801   0.54107   0.00000  Uiso   1.00
N409   N     0.58902   0.69046   0.73184   0.00000  Uiso   1.00
N410   N     0.69657   0.64174   0.35418   0.00000  Uiso   1.00
N411   N     0.55335   0.96503   0.51943   0.00000  Uiso   1.00
N412   N     0.70255   0.77567   0.78778   0.00000  Uiso   1.00
N413   N     0.81011   0.72696   0.41012   0.00000  Uiso   1.00
N414   N     0.66689   0.05024   0.57537   0.00000  Uiso   1.00
C415   C     0.76972   0.26633   0.20068   0.00000  Uiso   1.00
C416   C     0.69594   0.26091   0.17830   0.00000  Uiso   1.00
C417   C     0.63020   0.20842   0.17894   0.00000  Uiso   1.00
C418   C     0.56877   0.21283   0.15644   0.00000  Uiso   1.00
C419   C     0.45355   0.19604   0.12505   0.00000  Uiso   1.00
C420   C     0.79905   0.26306   0.14135   0.00000  Uiso   1.00
C421   C     0.82001   0.21238   0.11094   0.00000  Uiso   1.00
C422   C     0.84539   0.21861   0.05734   0.00000  Uiso   1.00
C423   C     0.89030   0.20518   0.96862   0.00000  Uiso   1.00
C424   C     0.81954   0.34436   0.25421   0.00000  Uiso   1.00
C425   C     0.85775   0.36204   0.31869   0.00000  Uiso   1.00
C426   C     0.90040   0.43673   0.36011   0.00000  Uiso   1.00
C427   C     0.97713   0.54953   0.44662   0.00000  Uiso   1.00
C428   C     0.77754   0.36753   0.15956   0.00000  Uiso   1.00
C429   C     0.70019   0.31588   0.15596   0.00000  Uiso   1.00
C430   C     0.63885   0.32038   0.13345   0.00000  Uiso   1.00
C431   C     0.57303   0.26790   0.13406   0.00000  Uiso   1.00
C432   C     0.80330   0.31802   0.11901   0.00000  Uiso   1.00
C433   C     0.82866   0.32434   0.06545   0.00000  Uiso   1.00
C434   C     0.84964   0.27367   0.03496   0.00000  Uiso   1.00
C435   C     0.82379   0.39933   0.23188   0.00000  Uiso   1.00
C436   C     0.86639   0.47400   0.27320   0.00000  Uiso   1.00
C437   C     0.90465   0.49179   0.33773   0.00000  Uiso   1.00
H438   H     0.76642   0.22354   0.21807   0.00000  Uiso   1.00
H439   H     0.62693   0.16588   0.19623   0.00000  Uiso   1.00
H440   H     0.81672   0.16985   0.12824   0.00000  Uiso   1.00
H441   H     0.85445   0.31949   0.33596   0.00000  Uiso   1.00
H442   H     0.47415   0.12619   0.16214   0.00000  Uiso   1.00
H443   H     0.87436   0.13457   0.01880   0.00000  Uiso   1.00
H444   H     0.95392   0.45012   0.45682   0.00000  Uiso   1.00
H445   H     0.78085   0.41032   0.14217   0.00000  Uiso   1.00
H446   H     0.64215   0.36292   0.11617   0.00000  Uiso   1.00
H447   H     0.83194   0.36688   0.04818   0.00000  Uiso   1.00
H448   H     0.86967   0.51652   0.25590   0.00000  Uiso   1.00
H449   H     0.48650   0.28611   0.09716   0.00000  Uiso   1.00
H450   H     0.88671   0.29449   0.95382   0.00000  Uiso   1.00
H451   H     0.96627   0.61003   0.39183   0.00000  Uiso   1.00
O452   O     0.38882   0.17158   0.11389   0.00000  Uiso   1.00
O453   O     0.91389   0.18258   0.92585   0.00000  Uiso   1.00
O454   O     0.01827   0.59657   0.50051   0.00000  Uiso   1.00
N455   N     0.49610   0.17034   0.15043   0.00000  Uiso   1.00
N456   N     0.87025   0.17817   0.01641   0.00000  Uiso   1.00
N457   N     0.94465   0.47318   0.42591   0.00000  Uiso   1.00
N458   N     0.50274   0.25639   0.11546   0.00000  Uiso   1.00
N459   N     0.87690   0.26422   0.98144   0.00000  Uiso   1.00
N460   N     0.95130   0.55923   0.39094   0.00000  Uiso   1.00
C461   C     0.80663   0.11316   0.23592   0.00000  Uiso   1.00
C462   C     0.80134   0.10415   0.30112   0.00000  Uiso   1.00
C463   C     0.81281   0.15900   0.36040   0.00000  Uiso   1.00
C464   C     0.80538   0.13972   0.41446   0.00000  Uiso   1.00
C465   C     0.79998   0.13663   0.51648   0.00000  Uiso   1.00
C466   C     0.86216   0.09090   0.21644   0.00000  Uiso   1.00
C467   C     0.92475   0.13462   0.20451   0.00000  Uiso   1.00
C468   C     0.96852   0.10418   0.18726   0.00000  Uiso   1.00
C469   C     0.05750   0.08050   0.15776   0.00000  Uiso   1.00
C470   C     0.73339   0.05411   0.18376   0.00000  Uiso   1.00
C471   C     0.68772   0.06689   0.14434   0.00000  Uiso   1.00
C472   C     0.62308   0.00547   0.09958   0.00000  Uiso   1.00
C473   C     0.51214   0.92467   0.01934   0.00000  Uiso   1.00
C474   C     0.77304   0.98137   0.22650   0.00000  Uiso   1.00
C475   C     0.78310   0.03257   0.29600   0.00000  Uiso   1.00
C476   C     0.77565   0.01319   0.34998   0.00000  Uiso   1.00
C477   C     0.78710   0.06801   0.40933   0.00000  Uiso   1.00
C478   C     0.84392   0.01932   0.21132   0.00000  Uiso   1.00
C479   C     0.88759   0.98881   0.19408   0.00000  Uiso   1.00
C480   C     0.95024   0.03247   0.18213   0.00000  Uiso   1.00
C481   C     0.71514   0.98253   0.17864   0.00000  Uiso   1.00
C482   C     0.65056   0.92108   0.13392   0.00000  Uiso   1.00
C483   C     0.60481   0.93376   0.09445   0.00000  Uiso   1.00
H484   H     0.82084   0.16889   0.23991   0.00000  Uiso   1.00
H485   H     0.82693   0.21439   0.36435   0.00000  Uiso   1.00
H486   H     0.93885   0.19001   0.20847   0.00000  Uiso   1.00
H487   H     0.70186   0.12229   0.14832   0.00000  Uiso   1.00
H488   H     0.82567   0.23328   0.50006   0.00000  Uiso   1.00
H489   H     0.06165   0.18186   0.17136   0.00000  Uiso   1.00
H490   H     0.56190   0.03906   0.04452   0.00000  Uiso   1.00
H491   H     0.75884   0.92564   0.22251   0.00000  Uiso   1.00
H492   H     0.76153   0.95779   0.34600   0.00000  Uiso   1.00
H493   H     0.87346   0.93341   0.19012   0.00000  Uiso   1.00
H494   H     0.63647   0.86569   0.12997   0.00000  Uiso   1.00
H495   H     0.77259   0.02502   0.48517   0.00000  Uiso   1.00
H496   H     0.00857   0.97359   0.15646   0.00000  Uiso   1.00
H497   H     0.50883   0.83079   0.02963   0.00000  Uiso   1.00
O498   O     0.80204   0.15470   0.57417   0.00000  Uiso   1.00
O499   O     0.11163   0.08723   0.14291   0.00000  Uiso   1.00
O500   O     0.45598   0.89988   0.97650   0.00000  Uiso   1.00
N501   N     0.81279   0.17985   0.47961   0.00000  Uiso   1.00
N502   N     0.03343   0.13177   0.17230   0.00000  Uiso   1.00
N503   N     0.56622   0.99827   0.05370   0.00000  Uiso   1.00
N504   N     0.78423   0.06778   0.47159   0.00000  Uiso   1.00
N505   N     0.00487   0.01971   0.16429   0.00000  Uiso   1.00
N506   N     0.53766   0.88620   0.04569   0.00000  Uiso   1.00
C507   C     0.08239   0.32183   0.42676   0.00000  Uiso   1.00
C508   C     0.16378   0.36552   0.46405   0.00000  Uiso   1.00
C509   C     0.19648   0.41910   0.52883   0.00000  Uiso   1.00
C510   C     0.27170   0.45273   0.55396   0.00000  Uiso   1.00
C511   C     0.39184   0.52353   0.61768   0.00000  Uiso   1.00
C512   C     0.07420   0.33528   0.36303   0.00000  Uiso   1.00
C513   C     0.03157   0.36343   0.34287   0.00000  Uiso   1.00
C514   C     0.03138   0.37160   0.28295   0.00000  Uiso   1.00
C515   C     0.01241   0.39541   0.18981   0.00000  Uiso   1.00
C516   C     0.06088   0.24033   0.40483   0.00000  Uiso   1.00
C517   C     0.00705   0.18864   0.41980   0.00000  Uiso   1.00
C518   C     0.99563   0.11686   0.39506   0.00000  Uiso   1.00
C519   C     0.95599   0.99324   0.36682   0.00000  Uiso   1.00
C520   C     0.15782   0.28628   0.35618   0.00000  Uiso   1.00
C521   C     0.20475   0.34621   0.42571   0.00000  Uiso   1.00
C522   C     0.27994   0.37976   0.45074   0.00000  Uiso   1.00
C523   C     0.31274   0.43338   0.51555   0.00000  Uiso   1.00
C524   C     0.11517   0.31597   0.32469   0.00000  Uiso   1.00
C525   C     0.11503   0.32410   0.26479   0.00000  Uiso   1.00
C526   C     0.07243   0.35225   0.24454   0.00000  Uiso   1.00
C527   C     0.10186   0.22102   0.36649   0.00000  Uiso   1.00
C528   C     0.09051   0.14931   0.34172   0.00000  Uiso   1.00
C529   C     0.03668   0.09751   0.35665   0.00000  Uiso   1.00
H530   H     0.05049   0.33687   0.45660   0.00000  Uiso   1.00
H531   H     0.16475   0.43403   0.55848   0.00000  Uiso   1.00
H532   H     0.99987   0.37837   0.37255   0.00000  Uiso   1.00
H533   H     0.97535   0.20360   0.44947   0.00000  Uiso   1.00
H534   H     0.30951   0.53326   0.65452   0.00000  Uiso   1.00
H535   H     0.96182   0.41586   0.26246   0.00000  Uiso   1.00
H536   H     0.91012   0.04734   0.42465   0.00000  Uiso   1.00
H537   H     0.18972   0.27124   0.32633   0.00000  Uiso   1.00
H538   H     0.31163   0.36481   0.42107   0.00000  Uiso   1.00
H539   H     0.14674   0.30914   0.23513   0.00000  Uiso   1.00
H540   H     0.12223   0.13438   0.31205   0.00000  Uiso   1.00
H541   H     0.42872   0.47708   0.54299   0.00000  Uiso   1.00
H542   H     0.08103   0.35968   0.15092   0.00000  Uiso   1.00
H543   H     0.02933   0.99116   0.31312   0.00000  Uiso   1.00
O544   O     0.44680   0.56793   0.66341   0.00000  Uiso   1.00
O545   O     0.99064   0.41388   0.14904   0.00000  Uiso   1.00
O546   O     0.92281   0.93039   0.36184   0.00000  Uiso   1.00
N547   N     0.32083   0.50719   0.61527   0.00000  Uiso   1.00
N548   N     0.99578   0.39744   0.24872   0.00000  Uiso   1.00
N549   N     0.94743   0.05289   0.40035   0.00000  Uiso   1.00
N550   N     0.38498   0.47696   0.55526   0.00000  Uiso   1.00
N551   N     0.05992   0.36721   0.18871   0.00000  Uiso   1.00
N552   N     0.01157   0.02266   0.34034   0.00000  Uiso   1.00
