data_job_02180
_audit_creation_date              2018-12-19
_audit_creation_method            'Materials Studio'
_symmetry_space_group_name_H-M    'P1'
_symmetry_Int_Tables_number       1
_symmetry_cell_setting            triclinic
loop_
_symmetry_equiv_pos_as_xyz
  x,y,z
_cell_length_a                    24.8488
_cell_length_b                    11.4198
_cell_length_c                    19.6758
_cell_angle_alpha                 90.0000
_cell_angle_beta                  145.2620
_cell_angle_gamma                 90.0000
loop_
_atom_site_label
_atom_site_type_symbol
_atom_site_fract_x
_atom_site_fract_y
_atom_site_fract_z
_atom_site_U_iso_or_equiv
_atom_site_adp_type
_atom_site_occupancy
C1     C     0.16052   0.99465   0.38712   0.00000  Uiso   1.00
C2     C     0.12797   0.09580   0.30849   0.00000  Uiso   1.00
C3     C     0.03801   0.14402   0.21440   0.00000  Uiso   1.00
C4     C     0.02234   0.23607   0.15344   0.00000  Uiso   1.00
C5     C     0.96086   0.38668   0.02643   0.00000  Uiso   1.00
C6     C     0.19856   0.90133   0.37838   0.00000  Uiso   1.00
C7     C     0.16796   0.78604   0.34307   0.00000  Uiso   1.00
C8     C     0.21171   0.71438   0.34096   0.00000  Uiso   1.00
C9     C     0.25987   0.56305   0.32255   0.00000  Uiso   1.00
C10    C     0.24558   0.04007   0.51495   0.00000  Uiso   1.00
C11    C     0.25454   0.04140   0.59448   0.00000  Uiso   1.00
C12    C     0.33790   0.08652   0.70735   0.00000  Uiso   1.00
C13    C     0.45907   0.15059   0.90097   0.00000  Uiso   1.00
C14    C     0.29265   0.07238   0.44618   0.00000  Uiso   1.00
C15    C     0.19974   0.13802   0.34057   0.00000  Uiso   1.00
C16    C     0.18420   0.23003   0.27974   0.00000  Uiso   1.00
C17    C     0.09423   0.27838   0.18558   0.00000  Uiso   1.00
C18    C     0.27032   0.94355   0.41046   0.00000  Uiso   1.00
C19    C     0.31414   0.87205   0.40841   0.00000  Uiso   1.00
C20    C     0.28361   0.75668   0.37310   0.00000  Uiso   1.00
C21    C     0.31735   0.08229   0.54703   0.00000  Uiso   1.00
C22    C     0.40072   0.12741   0.65981   0.00000  Uiso   1.00
C23    C     0.40979   0.12882   0.73949   0.00000  Uiso   1.00
H24    H     0.10465   0.96177   0.36215   0.00000  Uiso   1.00
H25    H     0.98249   0.11131   0.18960   0.00000  Uiso   1.00
H26    H     0.11242   0.75339   0.31826   0.00000  Uiso   1.00
H27    H     0.19899   0.00871   0.56962   0.00000  Uiso   1.00
H28    H     0.87869   0.29571   0.01241   0.00000  Uiso   1.00
H29    H     0.15268   0.54099   0.28375   0.00000  Uiso   1.00
H30    H     0.33522   0.07939   0.81379   0.00000  Uiso   1.00
H31    H     0.34853   0.10525   0.47116   0.00000  Uiso   1.00
H32    H     0.23975   0.26269   0.30459   0.00000  Uiso   1.00
H33    H     0.36968   0.90475   0.43325   0.00000  Uiso   1.00
H34    H     0.45624   0.16008   0.68460   0.00000  Uiso   1.00
H35    H     0.08749   0.41856   0.10574   0.00000  Uiso   1.00
H36    H     0.36149   0.66383   0.37708   0.00000  Uiso   1.00
H37    H     0.54402   0.20224   0.90711   0.00000  Uiso   1.00
O38    O     0.90712   0.45808   0.94751   0.00000  Uiso   1.00
O39    O     0.26660   0.46791   0.30351   0.00000  Uiso   1.00
O40    O     0.50608   0.17429   0.99890   0.00000  Uiso   1.00
N41    N     0.94277   0.30303   0.05725   0.00000  Uiso   1.00
N42    N     0.19892   0.59742   0.31091   0.00000  Uiso   1.00
N43    N     0.36959   0.10075   0.80647   0.00000  Uiso   1.00
N44    N     0.05512   0.36914   0.10747   0.00000  Uiso   1.00
N45    N     0.31128   0.66352   0.36113   0.00000  Uiso   1.00
N46    N     0.48194   0.16686   0.85669   0.00000  Uiso   1.00
C47    C     0.83948   0.49465   0.11288   0.00000  Uiso   1.00
C48    C     0.87203   0.59580   0.19151   0.00000  Uiso   1.00
C49    C     0.96199   0.64402   0.28560   0.00000  Uiso   1.00
C50    C     0.97766   0.73607   0.34656   0.00000  Uiso   1.00
C51    C     0.03914   0.88668   0.47357   0.00000  Uiso   1.00
C52    C     0.80144   0.40133   0.12162   0.00000  Uiso   1.00
C53    C     0.83204   0.28604   0.15693   0.00000  Uiso   1.00
C54    C     0.78829   0.21438   0.15904   0.00000  Uiso   1.00
C55    C     0.74013   0.06305   0.17745   0.00000  Uiso   1.00
C56    C     0.75442   0.54007   0.98505   0.00000  Uiso   1.00
C57    C     0.74546   0.54140   0.90552   0.00000  Uiso   1.00
C58    C     0.66210   0.58652   0.79265   0.00000  Uiso   1.00
C59    C     0.54093   0.65059   0.59903   0.00000  Uiso   1.00
C60    C     0.70735   0.57238   0.05382   0.00000  Uiso   1.00
C61    C     0.80026   0.63802   0.15943   0.00000  Uiso   1.00
C62    C     0.81580   0.73003   0.22026   0.00000  Uiso   1.00
C63    C     0.90577   0.77838   0.31442   0.00000  Uiso   1.00
C64    C     0.72968   0.44355   0.08954   0.00000  Uiso   1.00
C65    C     0.68586   0.37205   0.09159   0.00000  Uiso   1.00
C66    C     0.71639   0.25668   0.12690   0.00000  Uiso   1.00
C67    C     0.68265   0.58229   0.95297   0.00000  Uiso   1.00
C68    C     0.59928   0.62741   0.84019   0.00000  Uiso   1.00
C69    C     0.59021   0.62882   0.76051   0.00000  Uiso   1.00
H70    H     0.89535   0.46177   0.13785   0.00000  Uiso   1.00
H71    H     0.01751   0.61131   0.31040   0.00000  Uiso   1.00
H72    H     0.88758   0.25339   0.18174   0.00000  Uiso   1.00
H73    H     0.80101   0.50871   0.93038   0.00000  Uiso   1.00
H74    H     0.12131   0.79571   0.48759   0.00000  Uiso   1.00
H75    H     0.84732   0.04099   0.21625   0.00000  Uiso   1.00
H76    H     0.66478   0.57939   0.68621   0.00000  Uiso   1.00
H77    H     0.65147   0.60525   0.02884   0.00000  Uiso   1.00
H78    H     0.76025   0.76269   0.19541   0.00000  Uiso   1.00
H79    H     0.63032   0.40475   0.06675   0.00000  Uiso   1.00
H80    H     0.54376   0.66008   0.81540   0.00000  Uiso   1.00
H81    H     0.91251   0.91856   0.39426   0.00000  Uiso   1.00
H82    H     0.63851   0.16383   0.12292   0.00000  Uiso   1.00
H83    H     0.45598   0.70224   0.59289   0.00000  Uiso   1.00
O84    O     0.09288   0.95808   0.55249   0.00000  Uiso   1.00
O85    O     0.73340   0.96791   0.19649   0.00000  Uiso   1.00
O86    O     0.49392   0.67429   0.50110   0.00000  Uiso   1.00
N87    N     0.05723   0.80303   0.44275   0.00000  Uiso   1.00
N88    N     0.80108   0.09742   0.18909   0.00000  Uiso   1.00
N89    N     0.63041   0.60075   0.69353   0.00000  Uiso   1.00
N90    N     0.94488   0.86914   0.39253   0.00000  Uiso   1.00
N91    N     0.68872   0.16352   0.13887   0.00000  Uiso   1.00
N92    N     0.51806   0.66686   0.64331   0.00000  Uiso   1.00
C93    C     0.83948   0.00535   0.61288   0.00000  Uiso   1.00
C94    C     0.87203   0.90420   0.69151   0.00000  Uiso   1.00
C95    C     0.96199   0.85598   0.78560   0.00000  Uiso   1.00
C96    C     0.97766   0.76393   0.84656   0.00000  Uiso   1.00
C97    C     0.03914   0.61332   0.97357   0.00000  Uiso   1.00
C98    C     0.80144   0.09867   0.62162   0.00000  Uiso   1.00
C99    C     0.83204   0.21396   0.65693   0.00000  Uiso   1.00
C100   C     0.78829   0.28562   0.65904   0.00000  Uiso   1.00
C101   C     0.74013   0.43695   0.67745   0.00000  Uiso   1.00
C102   C     0.75442   0.95993   0.48505   0.00000  Uiso   1.00
C103   C     0.74546   0.95860   0.40552   0.00000  Uiso   1.00
C104   C     0.66210   0.91348   0.29265   0.00000  Uiso   1.00
C105   C     0.54093   0.84941   0.09903   0.00000  Uiso   1.00
C106   C     0.70735   0.92762   0.55382   0.00000  Uiso   1.00
C107   C     0.80026   0.86198   0.65943   0.00000  Uiso   1.00
C108   C     0.81580   0.76997   0.72026   0.00000  Uiso   1.00
C109   C     0.90577   0.72162   0.81442   0.00000  Uiso   1.00
C110   C     0.72968   0.05645   0.58954   0.00000  Uiso   1.00
C111   C     0.68586   0.12795   0.59159   0.00000  Uiso   1.00
C112   C     0.71639   0.24332   0.62690   0.00000  Uiso   1.00
C113   C     0.68265   0.91771   0.45297   0.00000  Uiso   1.00
C114   C     0.59928   0.87259   0.34019   0.00000  Uiso   1.00
C115   C     0.59021   0.87118   0.26051   0.00000  Uiso   1.00
H116   H     0.89535   0.03823   0.63785   0.00000  Uiso   1.00
H117   H     0.01751   0.88869   0.81040   0.00000  Uiso   1.00
H118   H     0.88758   0.24661   0.68174   0.00000  Uiso   1.00
H119   H     0.80101   0.99129   0.43038   0.00000  Uiso   1.00
H120   H     0.12131   0.70429   0.98759   0.00000  Uiso   1.00
H121   H     0.84732   0.45901   0.71625   0.00000  Uiso   1.00
H122   H     0.66478   0.92061   0.18621   0.00000  Uiso   1.00
H123   H     0.65147   0.89475   0.52884   0.00000  Uiso   1.00
H124   H     0.76025   0.73731   0.69541   0.00000  Uiso   1.00
H125   H     0.63032   0.09525   0.56675   0.00000  Uiso   1.00
H126   H     0.54376   0.83992   0.31540   0.00000  Uiso   1.00
H127   H     0.91251   0.58144   0.89426   0.00000  Uiso   1.00
H128   H     0.63851   0.33617   0.62292   0.00000  Uiso   1.00
H129   H     0.45598   0.79776   0.09289   0.00000  Uiso   1.00
O130   O     0.09288   0.54192   0.05249   0.00000  Uiso   1.00
O131   O     0.73340   0.53209   0.69649   0.00000  Uiso   1.00
O132   O     0.49392   0.82571   0.00110   0.00000  Uiso   1.00
N133   N     0.05723   0.69697   0.94275   0.00000  Uiso   1.00
N134   N     0.80108   0.40258   0.68909   0.00000  Uiso   1.00
N135   N     0.63041   0.89925   0.19353   0.00000  Uiso   1.00
N136   N     0.94488   0.63086   0.89253   0.00000  Uiso   1.00
N137   N     0.68872   0.33648   0.63887   0.00000  Uiso   1.00
N138   N     0.51806   0.83314   0.14331   0.00000  Uiso   1.00
C139   C     0.16052   0.50535   0.88712   0.00000  Uiso   1.00
C140   C     0.12797   0.40420   0.80849   0.00000  Uiso   1.00
C141   C     0.03801   0.35598   0.71440   0.00000  Uiso   1.00
C142   C     0.02234   0.26393   0.65344   0.00000  Uiso   1.00
C143   C     0.96086   0.11332   0.52643   0.00000  Uiso   1.00
C144   C     0.19856   0.59867   0.87838   0.00000  Uiso   1.00
C145   C     0.16796   0.71396   0.84307   0.00000  Uiso   1.00
C146   C     0.21171   0.78562   0.84096   0.00000  Uiso   1.00
C147   C     0.25987   0.93695   0.82255   0.00000  Uiso   1.00
C148   C     0.24558   0.45993   0.01495   0.00000  Uiso   1.00
C149   C     0.25454   0.45860   0.09448   0.00000  Uiso   1.00
C150   C     0.33790   0.41348   0.20735   0.00000  Uiso   1.00
C151   C     0.45907   0.34941   0.40097   0.00000  Uiso   1.00
C152   C     0.29265   0.42762   0.94618   0.00000  Uiso   1.00
C153   C     0.19974   0.36198   0.84057   0.00000  Uiso   1.00
C154   C     0.18420   0.26997   0.77974   0.00000  Uiso   1.00
C155   C     0.09423   0.22162   0.68558   0.00000  Uiso   1.00
C156   C     0.27032   0.55645   0.91046   0.00000  Uiso   1.00
C157   C     0.31414   0.62795   0.90841   0.00000  Uiso   1.00
C158   C     0.28361   0.74332   0.87310   0.00000  Uiso   1.00
C159   C     0.31735   0.41771   0.04703   0.00000  Uiso   1.00
C160   C     0.40072   0.37259   0.15981   0.00000  Uiso   1.00
C161   C     0.40979   0.37118   0.23949   0.00000  Uiso   1.00
H162   H     0.10465   0.53823   0.86215   0.00000  Uiso   1.00
H163   H     0.98249   0.38869   0.68960   0.00000  Uiso   1.00
H164   H     0.11242   0.74661   0.81826   0.00000  Uiso   1.00
H165   H     0.19899   0.49129   0.06962   0.00000  Uiso   1.00
H166   H     0.87869   0.20429   0.51241   0.00000  Uiso   1.00
H167   H     0.15268   0.95901   0.78375   0.00000  Uiso   1.00
H168   H     0.33522   0.42061   0.31379   0.00000  Uiso   1.00
H169   H     0.34853   0.39475   0.97116   0.00000  Uiso   1.00
H170   H     0.23975   0.23731   0.80459   0.00000  Uiso   1.00
H171   H     0.36968   0.59525   0.93325   0.00000  Uiso   1.00
H172   H     0.45624   0.33992   0.18460   0.00000  Uiso   1.00
H173   H     0.08749   0.08144   0.60574   0.00000  Uiso   1.00
H174   H     0.36149   0.83617   0.87708   0.00000  Uiso   1.00
H175   H     0.54402   0.29776   0.40711   0.00000  Uiso   1.00
O176   O     0.90712   0.04192   0.44751   0.00000  Uiso   1.00
O177   O     0.26660   0.03209   0.80351   0.00000  Uiso   1.00
O178   O     0.50608   0.32571   0.49890   0.00000  Uiso   1.00
N179   N     0.94277   0.19697   0.55725   0.00000  Uiso   1.00
N180   N     0.19892   0.90258   0.81091   0.00000  Uiso   1.00
N181   N     0.36959   0.39925   0.30647   0.00000  Uiso   1.00
N182   N     0.05512   0.13086   0.60747   0.00000  Uiso   1.00
N183   N     0.31128   0.83648   0.86113   0.00000  Uiso   1.00
N184   N     0.48194   0.33314   0.35669   0.00000  Uiso   1.00
