data_job_03898
_audit_creation_date              2018-12-19
_audit_creation_method            'Materials Studio'
_symmetry_space_group_name_H-M    'P1'
_symmetry_Int_Tables_number       1
_symmetry_cell_setting            triclinic
loop_
_symmetry_equiv_pos_as_xyz
  x,y,z
_cell_length_a                    23.0475
_cell_length_b                    12.3460
_cell_length_c                    26.6363
_cell_angle_alpha                 90.0000
_cell_angle_beta                  120.7205
_cell_angle_gamma                 90.0000
loop_
_atom_site_label
_atom_site_type_symbol
_atom_site_fract_x
_atom_site_fract_y
_atom_site_fract_z
_atom_site_U_iso_or_equiv
_atom_site_adp_type
_atom_site_occupancy
C1     C     0.60331   0.00686   0.55324   0.00000  Uiso   1.00
C2     C     0.62393   0.10976   0.53464   0.00000  Uiso   1.00
C3     C     0.58341   0.16864   0.48416   0.00000  Uiso   1.00
C4     C     0.61162   0.26043   0.47503   0.00000  Uiso   1.00
C5     C     0.63356   0.41536   0.44007   0.00000  Uiso   1.00
C6     C     0.65510   0.92101   0.56163   0.00000  Uiso   1.00
C7     C     0.64078   0.82119   0.53383   0.00000  Uiso   1.00
C8     C     0.69522   0.75408   0.54743   0.00000  Uiso   1.00
C9     C     0.76554   0.61594   0.55439   0.00000  Uiso   1.00
C10    C     0.61462   0.02978   0.61386   0.00000  Uiso   1.00
C11    C     0.56627   0.02138   0.62999   0.00000  Uiso   1.00
C12    C     0.58664   0.04583   0.68757   0.00000  Uiso   1.00
C13    C     0.59411   0.07656   0.77562   0.00000  Uiso   1.00
C14    C     0.72546   0.06518   0.62681   0.00000  Uiso   1.00
C15    C     0.69028   0.14143   0.57461   0.00000  Uiso   1.00
C16    C     0.71856   0.23316   0.56556   0.00000  Uiso   1.00
C17    C     0.67809   0.29217   0.51506   0.00000  Uiso   1.00
C18    C     0.72144   0.95268   0.60159   0.00000  Uiso   1.00
C19    C     0.77592   0.88570   0.61523   0.00000  Uiso   1.00
C20    C     0.76169   0.78581   0.58746   0.00000  Uiso   1.00
C21    C     0.68097   0.06145   0.65382   0.00000  Uiso   1.00
C22    C     0.70142   0.08591   0.71138   0.00000  Uiso   1.00
C23    C     0.65311   0.07756   0.72760   0.00000  Uiso   1.00
H24    H     0.55166   0.98220   0.52213   0.00000  Uiso   1.00
H25    H     0.53207   0.14410   0.45324   0.00000  Uiso   1.00
H26    H     0.58943   0.79669   0.50292   0.00000  Uiso   1.00
H27    H     0.51494   0.99687   0.59905   0.00000  Uiso   1.00
H28    H     0.53962   0.33754   0.39448   0.00000  Uiso   1.00
H29    H     0.66056   0.60501   0.49924   0.00000  Uiso   1.00
H30    H     0.50347   0.02711   0.70196   0.00000  Uiso   1.00
H31    H     0.77712   0.08983   0.65792   0.00000  Uiso   1.00
H32    H     0.76990   0.25765   0.59649   0.00000  Uiso   1.00
H33    H     0.82726   0.91024   0.64616   0.00000  Uiso   1.00
H34    H     0.75276   0.11042   0.74230   0.00000  Uiso   1.00
H35    H     0.73266   0.42970   0.51074   0.00000  Uiso   1.00
H36    H     0.85359   0.69716   0.61550   0.00000  Uiso   1.00
H37    H     0.69651   0.11927   0.81822   0.00000  Uiso   1.00
O38    O     0.62733   0.49205   0.40974   0.00000  Uiso   1.00
O39    O     0.78599   0.53099   0.54718   0.00000  Uiso   1.00
O40    O     0.57990   0.08478   0.81315   0.00000  Uiso   1.00
N41    N     0.58604   0.33621   0.43028   0.00000  Uiso   1.00
N42    N     0.69911   0.65134   0.52821   0.00000  Uiso   1.00
N43    N     0.55225   0.04594   0.71775   0.00000  Uiso   1.00
N44    N     0.68991   0.38580   0.49284   0.00000  Uiso   1.00
N45    N     0.80298   0.70093   0.59077   0.00000  Uiso   1.00
N46    N     0.65612   0.09554   0.78031   0.00000  Uiso   1.00
C47    C     0.10331   0.50686   0.55324   0.00000  Uiso   1.00
C48    C     0.12393   0.60976   0.53464   0.00000  Uiso   1.00
C49    C     0.08341   0.66864   0.48416   0.00000  Uiso   1.00
C50    C     0.11162   0.76043   0.47503   0.00000  Uiso   1.00
C51    C     0.13356   0.91536   0.44007   0.00000  Uiso   1.00
C52    C     0.15510   0.42101   0.56163   0.00000  Uiso   1.00
C53    C     0.14078   0.32119   0.53383   0.00000  Uiso   1.00
C54    C     0.19522   0.25408   0.54743   0.00000  Uiso   1.00
C55    C     0.26554   0.11594   0.55439   0.00000  Uiso   1.00
C56    C     0.11462   0.52978   0.61386   0.00000  Uiso   1.00
C57    C     0.06627   0.52138   0.62999   0.00000  Uiso   1.00
C58    C     0.08664   0.54583   0.68757   0.00000  Uiso   1.00
C59    C     0.09411   0.57656   0.77562   0.00000  Uiso   1.00
C60    C     0.22546   0.56518   0.62681   0.00000  Uiso   1.00
C61    C     0.19028   0.64143   0.57461   0.00000  Uiso   1.00
C62    C     0.21856   0.73316   0.56556   0.00000  Uiso   1.00
C63    C     0.17809   0.79217   0.51506   0.00000  Uiso   1.00
C64    C     0.22144   0.45268   0.60159   0.00000  Uiso   1.00
C65    C     0.27592   0.38570   0.61523   0.00000  Uiso   1.00
C66    C     0.26169   0.28581   0.58746   0.00000  Uiso   1.00
C67    C     0.18097   0.56145   0.65382   0.00000  Uiso   1.00
C68    C     0.20142   0.58591   0.71138   0.00000  Uiso   1.00
C69    C     0.15311   0.57756   0.72760   0.00000  Uiso   1.00
H70    H     0.05166   0.48220   0.52213   0.00000  Uiso   1.00
H71    H     0.03207   0.64410   0.45324   0.00000  Uiso   1.00
H72    H     0.08943   0.29669   0.50292   0.00000  Uiso   1.00
H73    H     0.01494   0.49687   0.59905   0.00000  Uiso   1.00
H74    H     0.03962   0.83754   0.39448   0.00000  Uiso   1.00
H75    H     0.16056   0.10501   0.49924   0.00000  Uiso   1.00
H76    H     0.00347   0.52711   0.70196   0.00000  Uiso   1.00
H77    H     0.27712   0.58983   0.65792   0.00000  Uiso   1.00
H78    H     0.26990   0.75765   0.59649   0.00000  Uiso   1.00
H79    H     0.32726   0.41024   0.64616   0.00000  Uiso   1.00
H80    H     0.25276   0.61042   0.74230   0.00000  Uiso   1.00
H81    H     0.23266   0.92970   0.51074   0.00000  Uiso   1.00
H82    H     0.35359   0.19716   0.61550   0.00000  Uiso   1.00
H83    H     0.19651   0.61927   0.81822   0.00000  Uiso   1.00
O84    O     0.12733   0.99205   0.40974   0.00000  Uiso   1.00
O85    O     0.28599   0.03099   0.54718   0.00000  Uiso   1.00
O86    O     0.07990   0.58478   0.81315   0.00000  Uiso   1.00
N87    N     0.08604   0.83621   0.43028   0.00000  Uiso   1.00
N88    N     0.19911   0.15134   0.52821   0.00000  Uiso   1.00
N89    N     0.05225   0.54594   0.71775   0.00000  Uiso   1.00
N90    N     0.18991   0.88580   0.49284   0.00000  Uiso   1.00
N91    N     0.30298   0.20093   0.59077   0.00000  Uiso   1.00
N92    N     0.15612   0.59554   0.78031   0.00000  Uiso   1.00
C93    C     0.39669   0.00686   0.94676   0.00000  Uiso   1.00
C94    C     0.37607   0.10976   0.96536   0.00000  Uiso   1.00
C95    C     0.41659   0.16864   0.01584   0.00000  Uiso   1.00
C96    C     0.38838   0.26043   0.02497   0.00000  Uiso   1.00
C97    C     0.36644   0.41536   0.05993   0.00000  Uiso   1.00
C98    C     0.34490   0.92101   0.93837   0.00000  Uiso   1.00
C99    C     0.35922   0.82119   0.96617   0.00000  Uiso   1.00
C100   C     0.30478   0.75408   0.95257   0.00000  Uiso   1.00
C101   C     0.23446   0.61594   0.94561   0.00000  Uiso   1.00
C102   C     0.38538   0.02978   0.88614   0.00000  Uiso   1.00
C103   C     0.43373   0.02138   0.87001   0.00000  Uiso   1.00
C104   C     0.41336   0.04583   0.81243   0.00000  Uiso   1.00
C105   C     0.40589   0.07656   0.72438   0.00000  Uiso   1.00
C106   C     0.27454   0.06518   0.87319   0.00000  Uiso   1.00
C107   C     0.30972   0.14143   0.92539   0.00000  Uiso   1.00
C108   C     0.28144   0.23316   0.93444   0.00000  Uiso   1.00
C109   C     0.32191   0.29217   0.98494   0.00000  Uiso   1.00
C110   C     0.27856   0.95268   0.89841   0.00000  Uiso   1.00
C111   C     0.22408   0.88570   0.88477   0.00000  Uiso   1.00
C112   C     0.23831   0.78581   0.91254   0.00000  Uiso   1.00
C113   C     0.31903   0.06145   0.84618   0.00000  Uiso   1.00
C114   C     0.29858   0.08591   0.78862   0.00000  Uiso   1.00
C115   C     0.34689   0.07756   0.77240   0.00000  Uiso   1.00
H116   H     0.44834   0.98220   0.97787   0.00000  Uiso   1.00
H117   H     0.46793   0.14410   0.04676   0.00000  Uiso   1.00
H118   H     0.41057   0.79669   0.99708   0.00000  Uiso   1.00
H119   H     0.48506   0.99687   0.90095   0.00000  Uiso   1.00
H120   H     0.46038   0.33754   0.10552   0.00000  Uiso   1.00
H121   H     0.33944   0.60501   0.00076   0.00000  Uiso   1.00
H122   H     0.49653   0.02711   0.79804   0.00000  Uiso   1.00
H123   H     0.22288   0.08983   0.84208   0.00000  Uiso   1.00
H124   H     0.23010   0.25765   0.90351   0.00000  Uiso   1.00
H125   H     0.17274   0.91024   0.85384   0.00000  Uiso   1.00
H126   H     0.24724   0.11042   0.75770   0.00000  Uiso   1.00
H127   H     0.26734   0.42970   0.98926   0.00000  Uiso   1.00
H128   H     0.14641   0.69716   0.88450   0.00000  Uiso   1.00
H129   H     0.30349   0.11927   0.68178   0.00000  Uiso   1.00
O130   O     0.37267   0.49205   0.09026   0.00000  Uiso   1.00
O131   O     0.21401   0.53099   0.95282   0.00000  Uiso   1.00
O132   O     0.42010   0.08478   0.68685   0.00000  Uiso   1.00
N133   N     0.41396   0.33621   0.06972   0.00000  Uiso   1.00
N134   N     0.30089   0.65134   0.97179   0.00000  Uiso   1.00
N135   N     0.44775   0.04594   0.78225   0.00000  Uiso   1.00
N136   N     0.31009   0.38580   0.00716   0.00000  Uiso   1.00
N137   N     0.19702   0.70093   0.90923   0.00000  Uiso   1.00
N138   N     0.34388   0.09554   0.71969   0.00000  Uiso   1.00
C139   C     0.89669   0.50686   0.94676   0.00000  Uiso   1.00
C140   C     0.87607   0.60976   0.96536   0.00000  Uiso   1.00
C141   C     0.91659   0.66864   0.01584   0.00000  Uiso   1.00
C142   C     0.88838   0.76043   0.02497   0.00000  Uiso   1.00
C143   C     0.86644   0.91536   0.05993   0.00000  Uiso   1.00
C144   C     0.84490   0.42101   0.93837   0.00000  Uiso   1.00
C145   C     0.85922   0.32119   0.96617   0.00000  Uiso   1.00
C146   C     0.80478   0.25408   0.95257   0.00000  Uiso   1.00
C147   C     0.73446   0.11594   0.94561   0.00000  Uiso   1.00
C148   C     0.88538   0.52978   0.88614   0.00000  Uiso   1.00
C149   C     0.93373   0.52138   0.87001   0.00000  Uiso   1.00
C150   C     0.91336   0.54583   0.81243   0.00000  Uiso   1.00
C151   C     0.90589   0.57656   0.72438   0.00000  Uiso   1.00
C152   C     0.77454   0.56518   0.87319   0.00000  Uiso   1.00
C153   C     0.80972   0.64143   0.92539   0.00000  Uiso   1.00
C154   C     0.78144   0.73316   0.93444   0.00000  Uiso   1.00
C155   C     0.82191   0.79217   0.98494   0.00000  Uiso   1.00
C156   C     0.77856   0.45268   0.89841   0.00000  Uiso   1.00
C157   C     0.72408   0.38570   0.88477   0.00000  Uiso   1.00
C158   C     0.73831   0.28581   0.91254   0.00000  Uiso   1.00
C159   C     0.81903   0.56145   0.84618   0.00000  Uiso   1.00
C160   C     0.79858   0.58591   0.78862   0.00000  Uiso   1.00
C161   C     0.84689   0.57756   0.77240   0.00000  Uiso   1.00
H162   H     0.94834   0.48220   0.97787   0.00000  Uiso   1.00
H163   H     0.96793   0.64410   0.04676   0.00000  Uiso   1.00
H164   H     0.91057   0.29669   0.99708   0.00000  Uiso   1.00
H165   H     0.98506   0.49687   0.90095   0.00000  Uiso   1.00
H166   H     0.96038   0.83754   0.10552   0.00000  Uiso   1.00
H167   H     0.83944   0.10501   0.00076   0.00000  Uiso   1.00
H168   H     0.99653   0.52711   0.79804   0.00000  Uiso   1.00
H169   H     0.72288   0.58983   0.84208   0.00000  Uiso   1.00
H170   H     0.73010   0.75765   0.90351   0.00000  Uiso   1.00
H171   H     0.67274   0.41024   0.85384   0.00000  Uiso   1.00
H172   H     0.74724   0.61042   0.75770   0.00000  Uiso   1.00
H173   H     0.76734   0.92970   0.98926   0.00000  Uiso   1.00
H174   H     0.64641   0.19716   0.88450   0.00000  Uiso   1.00
H175   H     0.80349   0.61927   0.68178   0.00000  Uiso   1.00
O176   O     0.87267   0.99205   0.09026   0.00000  Uiso   1.00
O177   O     0.71401   0.03099   0.95282   0.00000  Uiso   1.00
O178   O     0.92010   0.58478   0.68685   0.00000  Uiso   1.00
N179   N     0.91396   0.83621   0.06972   0.00000  Uiso   1.00
N180   N     0.80089   0.15134   0.97179   0.00000  Uiso   1.00
N181   N     0.94775   0.54594   0.78225   0.00000  Uiso   1.00
N182   N     0.81009   0.88580   0.00716   0.00000  Uiso   1.00
N183   N     0.69702   0.20093   0.90923   0.00000  Uiso   1.00
N184   N     0.84388   0.59554   0.71969   0.00000  Uiso   1.00
C185   C     0.39669   0.99314   0.44676   0.00000  Uiso   1.00
C186   C     0.37607   0.89024   0.46536   0.00000  Uiso   1.00
C187   C     0.41659   0.83136   0.51584   0.00000  Uiso   1.00
C188   C     0.38838   0.73957   0.52497   0.00000  Uiso   1.00
C189   C     0.36644   0.58464   0.55993   0.00000  Uiso   1.00
C190   C     0.34490   0.07899   0.43837   0.00000  Uiso   1.00
C191   C     0.35922   0.17881   0.46617   0.00000  Uiso   1.00
C192   C     0.30478   0.24592   0.45257   0.00000  Uiso   1.00
C193   C     0.23446   0.38406   0.44561   0.00000  Uiso   1.00
C194   C     0.38538   0.97022   0.38614   0.00000  Uiso   1.00
C195   C     0.43373   0.97862   0.37001   0.00000  Uiso   1.00
C196   C     0.41336   0.95417   0.31243   0.00000  Uiso   1.00
C197   C     0.40589   0.92344   0.22438   0.00000  Uiso   1.00
C198   C     0.27454   0.93482   0.37319   0.00000  Uiso   1.00
C199   C     0.30972   0.85857   0.42539   0.00000  Uiso   1.00
C200   C     0.28144   0.76684   0.43444   0.00000  Uiso   1.00
C201   C     0.32191   0.70783   0.48494   0.00000  Uiso   1.00
C202   C     0.27856   0.04732   0.39841   0.00000  Uiso   1.00
C203   C     0.22408   0.11430   0.38477   0.00000  Uiso   1.00
C204   C     0.23831   0.21419   0.41254   0.00000  Uiso   1.00
C205   C     0.31903   0.93855   0.34618   0.00000  Uiso   1.00
C206   C     0.29858   0.91409   0.28862   0.00000  Uiso   1.00
C207   C     0.34689   0.92244   0.27240   0.00000  Uiso   1.00
H208   H     0.44834   0.01780   0.47787   0.00000  Uiso   1.00
H209   H     0.46793   0.85590   0.54676   0.00000  Uiso   1.00
H210   H     0.41057   0.20331   0.49708   0.00000  Uiso   1.00
H211   H     0.48506   0.00313   0.40095   0.00000  Uiso   1.00
H212   H     0.46038   0.66246   0.60552   0.00000  Uiso   1.00
H213   H     0.33944   0.39499   0.50076   0.00000  Uiso   1.00
H214   H     0.49653   0.97289   0.29804   0.00000  Uiso   1.00
H215   H     0.22288   0.91017   0.34208   0.00000  Uiso   1.00
H216   H     0.23010   0.74235   0.40351   0.00000  Uiso   1.00
H217   H     0.17274   0.08976   0.35384   0.00000  Uiso   1.00
H218   H     0.24724   0.88958   0.25770   0.00000  Uiso   1.00
H219   H     0.26734   0.57030   0.48926   0.00000  Uiso   1.00
H220   H     0.14641   0.30284   0.38450   0.00000  Uiso   1.00
H221   H     0.30349   0.88073   0.18178   0.00000  Uiso   1.00
O222   O     0.37267   0.50795   0.59026   0.00000  Uiso   1.00
O223   O     0.21401   0.46901   0.45282   0.00000  Uiso   1.00
O224   O     0.42010   0.91522   0.18685   0.00000  Uiso   1.00
N225   N     0.41396   0.66379   0.56972   0.00000  Uiso   1.00
N226   N     0.30089   0.34866   0.47179   0.00000  Uiso   1.00
N227   N     0.44775   0.95406   0.28225   0.00000  Uiso   1.00
N228   N     0.31009   0.61420   0.50716   0.00000  Uiso   1.00
N229   N     0.19702   0.29907   0.40923   0.00000  Uiso   1.00
N230   N     0.34388   0.90446   0.21969   0.00000  Uiso   1.00
C231   C     0.89669   0.49314   0.44676   0.00000  Uiso   1.00
C232   C     0.87607   0.39024   0.46536   0.00000  Uiso   1.00
C233   C     0.91659   0.33136   0.51584   0.00000  Uiso   1.00
C234   C     0.88838   0.23957   0.52497   0.00000  Uiso   1.00
C235   C     0.86644   0.08464   0.55993   0.00000  Uiso   1.00
C236   C     0.84490   0.57899   0.43837   0.00000  Uiso   1.00
C237   C     0.85922   0.67881   0.46617   0.00000  Uiso   1.00
C238   C     0.80478   0.74592   0.45257   0.00000  Uiso   1.00
C239   C     0.73446   0.88406   0.44561   0.00000  Uiso   1.00
C240   C     0.88538   0.47022   0.38614   0.00000  Uiso   1.00
C241   C     0.93373   0.47862   0.37001   0.00000  Uiso   1.00
C242   C     0.91336   0.45417   0.31243   0.00000  Uiso   1.00
C243   C     0.90589   0.42344   0.22438   0.00000  Uiso   1.00
C244   C     0.77454   0.43482   0.37319   0.00000  Uiso   1.00
C245   C     0.80972   0.35857   0.42539   0.00000  Uiso   1.00
C246   C     0.78144   0.26684   0.43444   0.00000  Uiso   1.00
C247   C     0.82191   0.20783   0.48494   0.00000  Uiso   1.00
C248   C     0.77856   0.54732   0.39841   0.00000  Uiso   1.00
C249   C     0.72408   0.61430   0.38477   0.00000  Uiso   1.00
C250   C     0.73831   0.71419   0.41254   0.00000  Uiso   1.00
C251   C     0.81903   0.43855   0.34618   0.00000  Uiso   1.00
C252   C     0.79858   0.41409   0.28862   0.00000  Uiso   1.00
C253   C     0.84689   0.42244   0.27240   0.00000  Uiso   1.00
H254   H     0.94834   0.51780   0.47787   0.00000  Uiso   1.00
H255   H     0.96793   0.35590   0.54676   0.00000  Uiso   1.00
H256   H     0.91057   0.70331   0.49708   0.00000  Uiso   1.00
H257   H     0.98506   0.50313   0.40095   0.00000  Uiso   1.00
H258   H     0.96038   0.16246   0.60552   0.00000  Uiso   1.00
H259   H     0.83944   0.89499   0.50076   0.00000  Uiso   1.00
H260   H     0.99653   0.47289   0.29804   0.00000  Uiso   1.00
H261   H     0.72288   0.41017   0.34208   0.00000  Uiso   1.00
H262   H     0.73010   0.24235   0.40351   0.00000  Uiso   1.00
H263   H     0.67274   0.58976   0.35384   0.00000  Uiso   1.00
H264   H     0.74724   0.38958   0.25770   0.00000  Uiso   1.00
H265   H     0.76734   0.07030   0.48926   0.00000  Uiso   1.00
H266   H     0.64641   0.80284   0.38450   0.00000  Uiso   1.00
H267   H     0.80349   0.38073   0.18178   0.00000  Uiso   1.00
O268   O     0.87267   0.00795   0.59026   0.00000  Uiso   1.00
O269   O     0.71401   0.96901   0.45282   0.00000  Uiso   1.00
O270   O     0.92010   0.41522   0.18685   0.00000  Uiso   1.00
N271   N     0.91396   0.16379   0.56972   0.00000  Uiso   1.00
N272   N     0.80089   0.84866   0.47179   0.00000  Uiso   1.00
N273   N     0.94775   0.45406   0.28225   0.00000  Uiso   1.00
N274   N     0.81009   0.11420   0.50716   0.00000  Uiso   1.00
N275   N     0.69702   0.79907   0.40923   0.00000  Uiso   1.00
N276   N     0.84388   0.40446   0.21969   0.00000  Uiso   1.00
C277   C     0.60331   0.99314   0.05324   0.00000  Uiso   1.00
C278   C     0.62393   0.89024   0.03464   0.00000  Uiso   1.00
C279   C     0.58341   0.83136   0.98416   0.00000  Uiso   1.00
C280   C     0.61162   0.73957   0.97503   0.00000  Uiso   1.00
C281   C     0.63356   0.58464   0.94007   0.00000  Uiso   1.00
C282   C     0.65510   0.07899   0.06163   0.00000  Uiso   1.00
C283   C     0.64078   0.17881   0.03383   0.00000  Uiso   1.00
C284   C     0.69522   0.24592   0.04743   0.00000  Uiso   1.00
C285   C     0.76554   0.38406   0.05439   0.00000  Uiso   1.00
C286   C     0.61462   0.97022   0.11386   0.00000  Uiso   1.00
C287   C     0.56627   0.97862   0.12999   0.00000  Uiso   1.00
C288   C     0.58664   0.95417   0.18757   0.00000  Uiso   1.00
C289   C     0.59411   0.92344   0.27562   0.00000  Uiso   1.00
C290   C     0.72546   0.93482   0.12681   0.00000  Uiso   1.00
C291   C     0.69028   0.85857   0.07461   0.00000  Uiso   1.00
C292   C     0.71856   0.76684   0.06556   0.00000  Uiso   1.00
C293   C     0.67809   0.70783   0.01506   0.00000  Uiso   1.00
C294   C     0.72144   0.04732   0.10159   0.00000  Uiso   1.00
C295   C     0.77592   0.11430   0.11523   0.00000  Uiso   1.00
C296   C     0.76169   0.21419   0.08746   0.00000  Uiso   1.00
C297   C     0.68097   0.93855   0.15382   0.00000  Uiso   1.00
C298   C     0.70142   0.91409   0.21138   0.00000  Uiso   1.00
C299   C     0.65311   0.92244   0.22760   0.00000  Uiso   1.00
H300   H     0.55166   0.01780   0.02213   0.00000  Uiso   1.00
H301   H     0.53207   0.85590   0.95324   0.00000  Uiso   1.00
H302   H     0.58943   0.20331   0.00292   0.00000  Uiso   1.00
H303   H     0.51494   0.00313   0.09905   0.00000  Uiso   1.00
H304   H     0.53962   0.66246   0.89448   0.00000  Uiso   1.00
H305   H     0.66056   0.39499   0.99924   0.00000  Uiso   1.00
H306   H     0.50347   0.97289   0.20196   0.00000  Uiso   1.00
H307   H     0.77712   0.91017   0.15792   0.00000  Uiso   1.00
H308   H     0.76990   0.74235   0.09649   0.00000  Uiso   1.00
H309   H     0.82726   0.08976   0.14616   0.00000  Uiso   1.00
H310   H     0.75276   0.88958   0.24230   0.00000  Uiso   1.00
H311   H     0.73266   0.57030   0.01074   0.00000  Uiso   1.00
H312   H     0.85359   0.30284   0.11550   0.00000  Uiso   1.00
H313   H     0.69651   0.88073   0.31822   0.00000  Uiso   1.00
O314   O     0.62733   0.50795   0.90974   0.00000  Uiso   1.00
O315   O     0.78599   0.46901   0.04718   0.00000  Uiso   1.00
O316   O     0.57990   0.91522   0.31315   0.00000  Uiso   1.00
N317   N     0.58604   0.66379   0.93028   0.00000  Uiso   1.00
N318   N     0.69911   0.34866   0.02821   0.00000  Uiso   1.00
N319   N     0.55225   0.95406   0.21775   0.00000  Uiso   1.00
N320   N     0.68991   0.61420   0.99284   0.00000  Uiso   1.00
N321   N     0.80298   0.29907   0.09077   0.00000  Uiso   1.00
N322   N     0.65612   0.90446   0.28031   0.00000  Uiso   1.00
C323   C     0.10331   0.49314   0.05324   0.00000  Uiso   1.00
C324   C     0.12393   0.39024   0.03464   0.00000  Uiso   1.00
C325   C     0.08341   0.33136   0.98416   0.00000  Uiso   1.00
C326   C     0.11162   0.23957   0.97503   0.00000  Uiso   1.00
C327   C     0.13356   0.08464   0.94007   0.00000  Uiso   1.00
C328   C     0.15510   0.57899   0.06163   0.00000  Uiso   1.00
C329   C     0.14078   0.67881   0.03383   0.00000  Uiso   1.00
C330   C     0.19522   0.74592   0.04743   0.00000  Uiso   1.00
C331   C     0.26554   0.88406   0.05439   0.00000  Uiso   1.00
C332   C     0.11462   0.47022   0.11386   0.00000  Uiso   1.00
C333   C     0.06627   0.47862   0.12999   0.00000  Uiso   1.00
C334   C     0.08664   0.45417   0.18757   0.00000  Uiso   1.00
C335   C     0.09411   0.42344   0.27562   0.00000  Uiso   1.00
C336   C     0.22546   0.43482   0.12681   0.00000  Uiso   1.00
C337   C     0.19028   0.35857   0.07461   0.00000  Uiso   1.00
C338   C     0.21856   0.26684   0.06556   0.00000  Uiso   1.00
C339   C     0.17809   0.20783   0.01506   0.00000  Uiso   1.00
C340   C     0.22144   0.54732   0.10159   0.00000  Uiso   1.00
C341   C     0.27592   0.61430   0.11523   0.00000  Uiso   1.00
C342   C     0.26169   0.71419   0.08746   0.00000  Uiso   1.00
C343   C     0.18097   0.43855   0.15382   0.00000  Uiso   1.00
C344   C     0.20142   0.41409   0.21138   0.00000  Uiso   1.00
C345   C     0.15311   0.42244   0.22760   0.00000  Uiso   1.00
H346   H     0.05166   0.51780   0.02213   0.00000  Uiso   1.00
H347   H     0.03207   0.35590   0.95324   0.00000  Uiso   1.00
H348   H     0.08943   0.70331   0.00292   0.00000  Uiso   1.00
H349   H     0.01494   0.50313   0.09905   0.00000  Uiso   1.00
H350   H     0.03962   0.16246   0.89448   0.00000  Uiso   1.00
H351   H     0.16056   0.89499   0.99924   0.00000  Uiso   1.00
H352   H     0.00347   0.47289   0.20196   0.00000  Uiso   1.00
H353   H     0.27712   0.41017   0.15792   0.00000  Uiso   1.00
H354   H     0.26990   0.24235   0.09649   0.00000  Uiso   1.00
H355   H     0.32726   0.58976   0.14616   0.00000  Uiso   1.00
H356   H     0.25276   0.38958   0.24230   0.00000  Uiso   1.00
H357   H     0.23266   0.07030   0.01074   0.00000  Uiso   1.00
H358   H     0.35359   0.80284   0.11550   0.00000  Uiso   1.00
H359   H     0.19651   0.38073   0.31822   0.00000  Uiso   1.00
O360   O     0.12733   0.00795   0.90974   0.00000  Uiso   1.00
O361   O     0.28599   0.96901   0.04718   0.00000  Uiso   1.00
O362   O     0.07990   0.41522   0.31315   0.00000  Uiso   1.00
N363   N     0.08604   0.16379   0.93028   0.00000  Uiso   1.00
N364   N     0.19911   0.84866   0.02821   0.00000  Uiso   1.00
N365   N     0.05225   0.45406   0.21775   0.00000  Uiso   1.00
N366   N     0.18991   0.11420   0.99284   0.00000  Uiso   1.00
N367   N     0.30298   0.79907   0.09077   0.00000  Uiso   1.00
N368   N     0.15612   0.40446   0.28031   0.00000  Uiso   1.00
