data_job_06508
_audit_creation_date              2018-12-19
_audit_creation_method            'Materials Studio'
_symmetry_space_group_name_H-M    'P1'
_symmetry_Int_Tables_number       1
_symmetry_cell_setting            triclinic
loop_
_symmetry_equiv_pos_as_xyz
  x,y,z
_cell_length_a                    17.2354
_cell_length_b                    21.5100
_cell_length_c                    21.5907
_cell_angle_alpha                 69.2887
_cell_angle_beta                  102.8853
_cell_angle_gamma                 86.6644
loop_
_atom_site_label
_atom_site_type_symbol
_atom_site_fract_x
_atom_site_fract_y
_atom_site_fract_z
_atom_site_U_iso_or_equiv
_atom_site_adp_type
_atom_site_occupancy
C1     C     0.32396   0.78501   0.97878   0.00000  Uiso   1.00
C2     C     0.38725   0.73412   0.97611   0.00000  Uiso   1.00
C3     C     0.39630   0.66485   0.00929   0.00000  Uiso   1.00
C4     C     0.45788   0.62698   0.00042   0.00000  Uiso   1.00
C5     C     0.54848   0.54334   0.00247   0.00000  Uiso   1.00
C6     C     0.37025   0.83321   0.00450   0.00000  Uiso   1.00
C7     C     0.36498   0.84725   0.06154   0.00000  Uiso   1.00
C8     C     0.41224   0.89280   0.07655   0.00000  Uiso   1.00
C9     C     0.47640   0.96303   0.12265   0.00000  Uiso   1.00
C10    C     0.27830   0.82602   0.90450   0.00000  Uiso   1.00
C11    C     0.19572   0.83404   0.87747   0.00000  Uiso   1.00
C12    C     0.16556   0.87355   0.80829   0.00000  Uiso   1.00
C13    C     0.08695   0.93263   0.69913   0.00000  Uiso   1.00
C14    C     0.41724   0.84093   0.90401   0.00000  Uiso   1.00
C15    C     0.43792   0.76450   0.93550   0.00000  Uiso   1.00
C16    C     0.49950   0.72672   0.92656   0.00000  Uiso   1.00
C17    C     0.50863   0.65740   0.95972   0.00000  Uiso   1.00
C18    C     0.42092   0.86358   0.96388   0.00000  Uiso   1.00
C19    C     0.46819   0.90912   0.97881   0.00000  Uiso   1.00
C20    C     0.46300   0.92322   0.03586   0.00000  Uiso   1.00
C21    C     0.32897   0.85640   0.86388   0.00000  Uiso   1.00
C22    C     0.29893   0.89591   0.79473   0.00000  Uiso   1.00
C23    C     0.21632   0.90398   0.76760   0.00000  Uiso   1.00
H24    H     0.28451   0.76137   0.01041   0.00000  Uiso   1.00
H25    H     0.35708   0.64137   0.04073   0.00000  Uiso   1.00
H26    H     0.32576   0.82375   0.09296   0.00000  Uiso   1.00
H27    H     0.15653   0.81053   0.90892   0.00000  Uiso   1.00
H28    H     0.45989   0.52172   0.05645   0.00000  Uiso   1.00
H29    H     0.39384   0.90629   0.16657   0.00000  Uiso   1.00
H30    H     0.03697   0.87843   0.77848   0.00000  Uiso   1.00
H31    H     0.45669   0.86458   0.87238   0.00000  Uiso   1.00
H32    H     0.53871   0.75024   0.89513   0.00000  Uiso   1.00
H33    H     0.50739   0.93262   0.94736   0.00000  Uiso   1.00
H34    H     0.33816   0.91940   0.76332   0.00000  Uiso   1.00
H35    H     0.60731   0.61008   0.93828   0.00000  Uiso   1.00
H36    H     0.54125   0.99466   0.04840   0.00000  Uiso   1.00
H37    H     0.18439   0.96679   0.66031   0.00000  Uiso   1.00
O38    O     0.58446   0.48882   0.01484   0.00000  Uiso   1.00
O39    O     0.49779   0.99337   0.15930   0.00000  Uiso   1.00
O40    O     0.02960   0.95682   0.65013   0.00000  Uiso   1.00
N41    N     0.48332   0.55820   0.02551   0.00000  Uiso   1.00
N42    N     0.42158   0.91775   0.12847   0.00000  Uiso   1.00
N43    N     0.08793   0.89172   0.76564   0.00000  Uiso   1.00
N44    N     0.56265   0.60575   0.96192   0.00000  Uiso   1.00
N45    N     0.50090   0.96530   0.06488   0.00000  Uiso   1.00
N46    N     0.16726   0.93926   0.70205   0.00000  Uiso   1.00
C47    C     0.74231   0.12346   0.27629   0.00000  Uiso   1.00
C48    C     0.73901   0.18044   0.20869   0.00000  Uiso   1.00
C49    C     0.66963   0.21534   0.15785   0.00000  Uiso   1.00
C50    C     0.67934   0.26574   0.09981   0.00000  Uiso   1.00
C51    C     0.66261   0.35193   0.99587   0.00000  Uiso   1.00
C52    C     0.79682   0.06371   0.27877   0.00000  Uiso   1.00
C53    C     0.77604   0.00047   0.28686   0.00000  Uiso   1.00
C54    C     0.83442   0.95261   0.28782   0.00000  Uiso   1.00
C55    C     0.90745   0.85757   0.29273   0.00000  Uiso   1.00
C56    C     0.78747   0.14503   0.33274   0.00000  Uiso   1.00
C57    C     0.75884   0.15014   0.38621   0.00000  Uiso   1.00
C58    C     0.80937   0.17072   0.43262   0.00000  Uiso   1.00
C59    C     0.86789   0.20193   0.52132   0.00000  Uiso   1.00
C60    C     0.88295   0.15092   0.26363   0.00000  Uiso   1.00
C61    C     0.81541   0.19535   0.20182   0.00000  Uiso   1.00
C62    C     0.82523   0.24572   0.14384   0.00000  Uiso   1.00
C63    C     0.75587   0.28069   0.09292   0.00000  Uiso   1.00
C64    C     0.87321   0.07863   0.27189   0.00000  Uiso   1.00
C65    C     0.93164   0.03085   0.27285   0.00000  Uiso   1.00
C66    C     0.91095   0.96755   0.28093   0.00000  Uiso   1.00
C67    C     0.86387   0.15995   0.32586   0.00000  Uiso   1.00
C68    C     0.91445   0.18052   0.37219   0.00000  Uiso   1.00
C69    C     0.88590   0.18567   0.42572   0.00000  Uiso   1.00
H70    H     0.68284   0.11184   0.28165   0.00000  Uiso   1.00
H71    H     0.61052   0.20377   0.16319   0.00000  Uiso   1.00
H72    H     0.71692   0.98894   0.29219   0.00000  Uiso   1.00
H73    H     0.69973   0.13859   0.39152   0.00000  Uiso   1.00
H74    H     0.56403   0.31226   0.02881   0.00000  Uiso   1.00
H75    H     0.78839   0.85926   0.30083   0.00000  Uiso   1.00
H76    H     0.75213   0.17483   0.51029   0.00000  Uiso   1.00
H77    H     0.94243   0.16253   0.25827   0.00000  Uiso   1.00
H78    H     0.88436   0.25725   0.13853   0.00000  Uiso   1.00
H79    H     0.99075   0.04241   0.26752   0.00000  Uiso   1.00
H80    H     0.97356   0.19206   0.36685   0.00000  Uiso   1.00
H81    H     0.78629   0.35566   0.00879   0.00000  Uiso   1.00
H82    H     0.01065   0.90266   0.28082   0.00000  Uiso   1.00
H83    H     0.97439   0.21823   0.49027   0.00000  Uiso   1.00
O84    O     0.63228   0.39534   0.94044   0.00000  Uiso   1.00
O85    O     0.92663   0.80102   0.29733   0.00000  Uiso   1.00
O86    O     0.87906   0.21504   0.57214   0.00000  Uiso   1.00
N87    N     0.62431   0.30949   0.04054   0.00000  Uiso   1.00
N88    N     0.83406   0.88596   0.29485   0.00000  Uiso   1.00
N89    N     0.80018   0.18097   0.49069   0.00000  Uiso   1.00
N90    N     0.74390   0.33284   0.02977   0.00000  Uiso   1.00
N91    N     0.95366   0.90932   0.28408   0.00000  Uiso   1.00
N92    N     0.91977   0.20432   0.47992   0.00000  Uiso   1.00
C93    C     0.13846   0.47082   0.71458   0.00000  Uiso   1.00
C94    C     0.21067   0.50043   0.69245   0.00000  Uiso   1.00
C95    C     0.26131   0.53413   0.72453   0.00000  Uiso   1.00
C96    C     0.32398   0.55742   0.69638   0.00000  Uiso   1.00
C97    C     0.43433   0.60496   0.67084   0.00000  Uiso   1.00
C98    C     0.06634   0.50271   0.65233   0.00000  Uiso   1.00
C99    C     0.99563   0.53831   0.65069   0.00000  Uiso   1.00
C100   C     0.93680   0.56351   0.58878   0.00000  Uiso   1.00
C101   C     0.82305   0.61454   0.50097   0.00000  Uiso   1.00
C102   C     0.15293   0.39661   0.72561   0.00000  Uiso   1.00
C103   C     0.15499   0.34300   0.78558   0.00000  Uiso   1.00
C104   C     0.16905   0.27887   0.78536   0.00000  Uiso   1.00
C105   C     0.18974   0.16517   0.81132   0.00000  Uiso   1.00
C106   C     0.15972   0.45226   0.60755   0.00000  Uiso   1.00
C107   C     0.22222   0.49036   0.63431   0.00000  Uiso   1.00
C108   C     0.28484   0.51360   0.60611   0.00000  Uiso   1.00
C109   C     0.33556   0.54732   0.63814   0.00000  Uiso   1.00
C110   C     0.07789   0.49263   0.59420   0.00000  Uiso   1.00
C111   C     0.01916   0.51778   0.53227   0.00000  Uiso   1.00
C112   C     0.94837   0.55341   0.53053   0.00000  Uiso   1.00
C113   C     0.16448   0.38653   0.66748   0.00000  Uiso   1.00
C114   C     0.17853   0.32247   0.66716   0.00000  Uiso   1.00
C115   C     0.18062   0.26878   0.72711   0.00000  Uiso   1.00
H116   H     0.12946   0.47867   0.75984   0.00000  Uiso   1.00
H117   H     0.25234   0.54193   0.76952   0.00000  Uiso   1.00
H118   H     0.98670   0.54610   0.69569   0.00000  Uiso   1.00
H119   H     0.14605   0.35082   0.83056   0.00000  Uiso   1.00
H120   H     0.39366   0.60763   0.75459   0.00000  Uiso   1.00
H121   H     0.83353   0.61641   0.59894   0.00000  Uiso   1.00
H122   H     0.16954   0.20463   0.88333   0.00000  Uiso   1.00
H123   H     0.16872   0.44442   0.56228   0.00000  Uiso   1.00
H124   H     0.29376   0.50579   0.56112   0.00000  Uiso   1.00
H125   H     0.02811   0.50996   0.48729   0.00000  Uiso   1.00
H126   H     0.18746   0.31469   0.62216   0.00000  Uiso   1.00
H127   H     0.42727   0.57831   0.58544   0.00000  Uiso   1.00
H128   H     0.86714   0.58708   0.42979   0.00000  Uiso   1.00
H129   H     0.20315   0.17531   0.71418   0.00000  Uiso   1.00
O130   O     0.49200   0.63398   0.67280   0.00000  Uiso   1.00
O131   O     0.75712   0.64548   0.46859   0.00000  Uiso   1.00
O132   O     0.19797   0.10524   0.84171   0.00000  Uiso   1.00
N133   N     0.38442   0.59230   0.71495   0.00000  Uiso   1.00
N134   N     0.86073   0.60051   0.56942   0.00000  Uiso   1.00
N135   N     0.17486   0.21553   0.83530   0.00000  Uiso   1.00
N136   N     0.40251   0.57652   0.62393   0.00000  Uiso   1.00
N137   N     0.87882   0.58473   0.47840   0.00000  Uiso   1.00
N138   N     0.19294   0.19975   0.74428   0.00000  Uiso   1.00
C139   C     0.94542   0.84944   0.04629   0.00000  Uiso   1.00
C140   C     0.99007   0.90782   0.01775   0.00000  Uiso   1.00
C141   C     0.00678   0.95718   0.04416   0.00000  Uiso   1.00
C142   C     0.04828   0.00627   0.01069   0.00000  Uiso   1.00
C143   C     0.11401   0.09696   0.97519   0.00000  Uiso   1.00
C144   C     0.00180   0.78566   0.06104   0.00000  Uiso   1.00
C145   C     0.02837   0.73231   0.12383   0.00000  Uiso   1.00
C146   C     0.07975   0.67857   0.12680   0.00000  Uiso   1.00
C147   C     0.16364   0.57958   0.15849   0.00000  Uiso   1.00
C148   C     0.87455   0.85441   0.98718   0.00000  Uiso   1.00
C149   C     0.79411   0.85886   0.98788   0.00000  Uiso   1.00
C150   C     0.73835   0.86298   0.92866   0.00000  Uiso   1.00
C151   C     0.62467   0.87074   0.84567   0.00000  Uiso   1.00
C152   C     0.98941   0.84884   0.93990   0.00000  Uiso   1.00
C153   C     0.01396   0.90749   0.95997   0.00000  Uiso   1.00
C154   C     0.05545   0.95652   0.92645   0.00000  Uiso   1.00
C155   C     0.07222   0.00595   0.95280   0.00000  Uiso   1.00
C156   C     0.02570   0.78534   0.00326   0.00000  Uiso   1.00
C157   C     0.07704   0.73166   0.00613   0.00000  Uiso   1.00
C158   C     0.10369   0.67825   0.06891   0.00000  Uiso   1.00
C159   C     0.89844   0.85409   0.92939   0.00000  Uiso   1.00
C160   C     0.84279   0.85820   0.87017   0.00000  Uiso   1.00
C161   C     0.76229   0.86265   0.87078   0.00000  Uiso   1.00
H162   H     0.92682   0.84968   0.09128   0.00000  Uiso   1.00
H163   H     0.98828   0.95741   0.08888   0.00000  Uiso   1.00
H164   H     0.00986   0.73258   0.16854   0.00000  Uiso   1.00
H165   H     0.77565   0.85911   0.03260   0.00000  Uiso   1.00
H166   H     0.06699   0.07669   0.06075   0.00000  Uiso   1.00
H167   H     0.11247   0.60261   0.22872   0.00000  Uiso   1.00
H168   H     0.61858   0.86941   0.94206   0.00000  Uiso   1.00
H169   H     0.00802   0.84858   0.89491   0.00000  Uiso   1.00
H170   H     0.07393   0.95626   0.88174   0.00000  Uiso   1.00
H171   H     0.09552   0.73142   0.96140   0.00000  Uiso   1.00
H172   H     0.86130   0.85795   0.82546   0.00000  Uiso   1.00
H173   H     0.13651   0.07575   0.89263   0.00000  Uiso   1.00
H174   H     0.18199   0.60167   0.06059   0.00000  Uiso   1.00
H175   H     0.68810   0.86847   0.77394   0.00000  Uiso   1.00
O176   O     0.14367   0.14706   0.97158   0.00000  Uiso   1.00
O177   O     0.20333   0.52508   0.19194   0.00000  Uiso   1.00
O178   O     0.55536   0.87512   0.81586   0.00000  Uiso   1.00
N179   N     0.07429   0.06170   0.02298   0.00000  Uiso   1.00
N180   N     0.11682   0.61847   0.18002   0.00000  Uiso   1.00
N181   N     0.65508   0.86789   0.91204   0.00000  Uiso   1.00
N182   N     0.11170   0.06120   0.93252   0.00000  Uiso   1.00
N183   N     0.15423   0.61796   0.08956   0.00000  Uiso   1.00
N184   N     0.69249   0.86738   0.82157   0.00000  Uiso   1.00
C185   C     0.27342   0.18761   0.32340   0.00000  Uiso   1.00
C186   C     0.22169   0.19045   0.25493   0.00000  Uiso   1.00
C187   C     0.14358   0.17601   0.24298   0.00000  Uiso   1.00
C188   C     0.10651   0.18157   0.17679   0.00000  Uiso   1.00
C189   C     0.02014   0.18309   0.07843   0.00000  Uiso   1.00
C190   C     0.29832   0.25708   0.30997   0.00000  Uiso   1.00
C191   C     0.28465   0.29865   0.34429   0.00000  Uiso   1.00
C192   C     0.31211   0.36031   0.32443   0.00000  Uiso   1.00
C193   C     0.34476   0.46524   0.31155   0.00000  Uiso   1.00
C194   C     0.35031   0.13967   0.33930   0.00000  Uiso   1.00
C195   C     0.38038   0.08252   0.39830   0.00000  Uiso   1.00
C196   C     0.45162   0.04532   0.40315   0.00000  Uiso   1.00
C197   C     0.56499   0.96795   0.43582   0.00000  Uiso   1.00
C198   C     0.34648   0.22318   0.22711   0.00000  Uiso   1.00
C199   C     0.26138   0.20978   0.20264   0.00000  Uiso   1.00
C200   C     0.22442   0.21536   0.13645   0.00000  Uiso   1.00
C201   C     0.14627   0.20093   0.12439   0.00000  Uiso   1.00
C202   C     0.33801   0.27641   0.25767   0.00000  Uiso   1.00
C203   C     0.36549   0.33801   0.23777   0.00000  Uiso   1.00
C204   C     0.35187   0.37966   0.27204   0.00000  Uiso   1.00
C205   C     0.39000   0.15899   0.28701   0.00000  Uiso   1.00
C206   C     0.46121   0.12187   0.29177   0.00000  Uiso   1.00
C207   C     0.49138   0.06468   0.35076   0.00000  Uiso   1.00
H208   H     0.24252   0.17257   0.36411   0.00000  Uiso   1.00
H209   H     0.11288   0.16106   0.28346   0.00000  Uiso   1.00
H210   H     0.25394   0.28368   0.38476   0.00000  Uiso   1.00
H211   H     0.34965   0.06758   0.43876   0.00000  Uiso   1.00
H212   H     0.98665   0.15685   0.17097   0.00000  Uiso   1.00
H213   H     0.28411   0.41540   0.38459   0.00000  Uiso   1.00
H214   H     0.48592   0.95970   0.49846   0.00000  Uiso   1.00
H215   H     0.37739   0.23822   0.18640   0.00000  Uiso   1.00
H216   H     0.25515   0.23032   0.09599   0.00000  Uiso   1.00
H217   H     0.39621   0.35294   0.19730   0.00000  Uiso   1.00
H218   H     0.49191   0.13684   0.25129   0.00000  Uiso   1.00
H219   H     0.10212   0.21307   0.01881   0.00000  Uiso   1.00
H220   H     0.39958   0.47161   0.23244   0.00000  Uiso   1.00
H221   H     0.60138   0.01592   0.34630   0.00000  Uiso   1.00
O222   O     0.96153   0.17859   0.03862   0.00000  Uiso   1.00
O223   O     0.35179   0.51779   0.31889   0.00000  Uiso   1.00
O224   O     0.61656   0.91993   0.46828   0.00000  Uiso   1.00
N225   N     0.03061   0.17115   0.14757   0.00000  Uiso   1.00
N226   N     0.30870   0.41288   0.34729   0.00000  Uiso   1.00
N227   N     0.49739   0.98686   0.45375   0.00000  Uiso   1.00
N228   N     0.09274   0.20140   0.06570   0.00000  Uiso   1.00
N229   N     0.37083   0.44313   0.26541   0.00000  Uiso   1.00
N230   N     0.55952   0.01710   0.37187   0.00000  Uiso   1.00
C231   C     0.64726   0.38404   0.70824   0.00000  Uiso   1.00
C232   C     0.72028   0.37822   0.68060   0.00000  Uiso   1.00
C233   C     0.77827   0.32181   0.70405   0.00000  Uiso   1.00
C234   C     0.84037   0.32656   0.67201   0.00000  Uiso   1.00
C235   C     0.95314   0.30853   0.63721   0.00000  Uiso   1.00
C236   C     0.57390   0.40405   0.64688   0.00000  Uiso   1.00
C237   C     0.50881   0.36938   0.64199   0.00000  Uiso   1.00
C238   C     0.44769   0.39589   0.58157   0.00000  Uiso   1.00
C239   C     0.33317   0.41800   0.49444   0.00000  Uiso   1.00
C240   C     0.65251   0.44435   0.72967   0.00000  Uiso   1.00
C241   C     0.65350   0.44357   0.79440   0.00000  Uiso   1.00
C242   C     0.65854   0.50402   0.80368   0.00000  Uiso   1.00
C243   C     0.66608   0.58869   0.84510   0.00000  Uiso   1.00
C244   C     0.65443   0.49278   0.60963   0.00000  Uiso   1.00
C245   C     0.72417   0.43728   0.62703   0.00000  Uiso   1.00
C246   C     0.78621   0.44212   0.59495   0.00000  Uiso   1.00
C247   C     0.84428   0.38573   0.61836   0.00000  Uiso   1.00
C248   C     0.57779   0.46311   0.59332   0.00000  Uiso   1.00
C249   C     0.51675   0.48969   0.53289   0.00000  Uiso   1.00
C250   C     0.45159   0.45506   0.52791   0.00000  Uiso   1.00
C251   C     0.65641   0.50342   0.67611   0.00000  Uiso   1.00
C252   C     0.66144   0.56388   0.68530   0.00000  Uiso   1.00
C253   C     0.66244   0.56318   0.75002   0.00000  Uiso   1.00
H254   H     0.64422   0.33805   0.74994   0.00000  Uiso   1.00
H255   H     0.77523   0.27611   0.74550   0.00000  Uiso   1.00
H256   H     0.50581   0.32368   0.68345   0.00000  Uiso   1.00
H257   H     0.65048   0.39785   0.83583   0.00000  Uiso   1.00
H258   H     0.92218   0.23348   0.71694   0.00000  Uiso   1.00
H259   H     0.35408   0.33378   0.58612   0.00000  Uiso   1.00
H260   H     0.65914   0.49020   0.90744   0.00000  Uiso   1.00
H261   H     0.65746   0.53876   0.56793   0.00000  Uiso   1.00
H262   H     0.78920   0.48783   0.55351   0.00000  Uiso   1.00
H263   H     0.51978   0.53540   0.49146   0.00000  Uiso   1.00
H264   H     0.66445   0.60957   0.64384   0.00000  Uiso   1.00
H265   H     0.93352   0.40532   0.56111   0.00000  Uiso   1.00
H266   H     0.36542   0.50562   0.43029   0.00000  Uiso   1.00
H267   H     0.67048   0.66204   0.75161   0.00000  Uiso   1.00
O268   O     0.01425   0.28227   0.63280   0.00000  Uiso   1.00
O269   O     0.26893   0.41387   0.46118   0.00000  Uiso   1.00
O270   O     0.66917   0.61908   0.88275   0.00000  Uiso   1.00
N271   N     0.90677   0.28091   0.68225   0.00000  Uiso   1.00
N272   N     0.37565   0.37469   0.55994   0.00000  Uiso   1.00
N273   N     0.66083   0.52093   0.86035   0.00000  Uiso   1.00
N274   N     0.91288   0.37338   0.59840   0.00000  Uiso   1.00
N275   N     0.38175   0.46715   0.47609   0.00000  Uiso   1.00
N276   N     0.66693   0.61339   0.77650   0.00000  Uiso   1.00
C277   C     0.55588   0.23331   0.85399   0.00000  Uiso   1.00
C278   C     0.50973   0.28219   0.87457   0.00000  Uiso   1.00
C279   C     0.50132   0.35178   0.84544   0.00000  Uiso   1.00
C280   C     0.45676   0.38759   0.87145   0.00000  Uiso   1.00
C281   C     0.39038   0.46845   0.89527   0.00000  Uiso   1.00
C282   C     0.49600   0.18921   0.83536   0.00000  Uiso   1.00
C283   C     0.47605   0.18063   0.77327   0.00000  Uiso   1.00
C284   C     0.41995   0.13816   0.76628   0.00000  Uiso   1.00
C285   C     0.33229   0.07464   0.72925   0.00000  Uiso   1.00
C286   C     0.61792   0.18730   0.91921   0.00000  Uiso   1.00
C287   C     0.70048   0.17709   0.92762   0.00000  Uiso   1.00
C288   C     0.74701   0.13299   0.99123   0.00000  Uiso   1.00
C289   C     0.84865   0.06650   0.08439   0.00000  Uiso   1.00
C290   C     0.49172   0.17313   0.95199   0.00000  Uiso   1.00
C291   C     0.47488   0.24949   0.92779   0.00000  Uiso   1.00
C292   C     0.43034   0.28520   0.95386   0.00000  Uiso   1.00
C293   C     0.42186   0.35484   0.92477   0.00000  Uiso   1.00
C294   C     0.46115   0.15652   0.88858   0.00000  Uiso   1.00
C295   C     0.40507   0.11405   0.88168   0.00000  Uiso   1.00
C296   C     0.38503   0.10541   0.81960   0.00000  Uiso   1.00
C297   C     0.58307   0.15461   0.97244   0.00000  Uiso   1.00
C298   C     0.62949   0.11051   0.03604   0.00000  Uiso   1.00
C299   C     0.71210   0.10024   0.04455   0.00000  Uiso   1.00
H300   H     0.58300   0.25876   0.81255   0.00000  Uiso   1.00
H301   H     0.52829   0.37706   0.80424   0.00000  Uiso   1.00
H302   H     0.50304   0.20593   0.73209   0.00000  Uiso   1.00
H303   H     0.72742   0.20239   0.88642   0.00000  Uiso   1.00
H304   H     0.45224   0.49381   0.81849   0.00000  Uiso   1.00
H305   H     0.39900   0.13295   0.66635   0.00000  Uiso   1.00
H306   H     0.87217   0.12549   0.99179   0.00000  Uiso   1.00
H307   H     0.46459   0.14768   0.99343   0.00000  Uiso   1.00
H308   H     0.40337   0.25989   0.99504   0.00000  Uiso   1.00
H309   H     0.37812   0.08876   0.92289   0.00000  Uiso   1.00
H310   H     0.60250   0.08522   0.07722   0.00000  Uiso   1.00
H311   H     0.35085   0.39871   0.97335   0.00000  Uiso   1.00
H312   H     0.29762   0.03785   0.82121   0.00000  Uiso   1.00
H313   H     0.77078   0.03039   0.14664   0.00000  Uiso   1.00
O314   O     0.36339   0.52208   0.89370   0.00000  Uiso   1.00
O315   O     0.29356   0.04864   0.69411   0.00000  Uiso   1.00
O316   O     0.91434   0.03886   0.12107   0.00000  Uiso   1.00
N317   N     0.43679   0.45603   0.85472   0.00000  Uiso   1.00
N318   N     0.38701   0.11865   0.71248   0.00000  Uiso   1.00
N319   N     0.82938   0.11167   0.01673   0.00000  Uiso   1.00
N320   N     0.38223   0.40486   0.93805   0.00000  Uiso   1.00
N321   N     0.33245   0.06748   0.79581   0.00000  Uiso   1.00
N322   N     0.77482   0.06049   0.10005   0.00000  Uiso   1.00
C323   C     0.23735   0.79362   0.60597   0.00000  Uiso   1.00
C324   C     0.20809   0.76567   0.67072   0.00000  Uiso   1.00
C325   C     0.25671   0.73777   0.73737   0.00000  Uiso   1.00
C326   C     0.21835   0.71507   0.78959   0.00000  Uiso   1.00
C327   C     0.18569   0.67093   0.89226   0.00000  Uiso   1.00
C328   C     0.19506   0.86603   0.56848   0.00000  Uiso   1.00
C329   C     0.23274   0.92252   0.54916   0.00000  Uiso   1.00
C330   C     0.18340   0.98431   0.51532   0.00000  Uiso   1.00
C331   C     0.13051   0.09598   0.45922   0.00000  Uiso   1.00
C332   C     0.20295   0.75554   0.56105   0.00000  Uiso   1.00
C333   C     0.24726   0.71914   0.53546   0.00000  Uiso   1.00
C334   C     0.20457   0.68791   0.49534   0.00000  Uiso   1.00
C335   C     0.16393   0.62802   0.42770   0.00000  Uiso   1.00
C336   C     0.08275   0.80291   0.58020   0.00000  Uiso   1.00
C337   C     0.12412   0.77072   0.65672   0.00000  Uiso   1.00
C338   C     0.08567   0.74805   0.70886   0.00000  Uiso   1.00
C339   C     0.13423   0.72012   0.77557   0.00000  Uiso   1.00
C340   C     0.11109   0.87108   0.55449   0.00000  Uiso   1.00
C341   C     0.06169   0.93280   0.52066   0.00000  Uiso   1.00
C342   C     0.09928   0.98937   0.50130   0.00000  Uiso   1.00
C343   C     0.11898   0.76058   0.54705   0.00000  Uiso   1.00
C344   C     0.07621   0.72941   0.50696   0.00000  Uiso   1.00
C345   C     0.12044   0.69296   0.48131   0.00000  Uiso   1.00
H346   H     0.30272   0.78970   0.61686   0.00000  Uiso   1.00
H347   H     0.32170   0.73388   0.74818   0.00000  Uiso   1.00
H348   H     0.29772   0.91860   0.56000   0.00000  Uiso   1.00
H349   H     0.31224   0.71524   0.54630   0.00000  Uiso   1.00
H350   H     0.30570   0.67425   0.88759   0.00000  Uiso   1.00
H351   H     0.25514   0.06373   0.49078   0.00000  Uiso   1.00
H352   H     0.28576   0.63492   0.46190   0.00000  Uiso   1.00
H353   H     0.01737   0.80684   0.56930   0.00000  Uiso   1.00
H354   H     0.02069   0.75196   0.69801   0.00000  Uiso   1.00
H355   H     0.99671   0.93668   0.50983   0.00000  Uiso   1.00
H356   H     0.01123   0.73333   0.49613   0.00000  Uiso   1.00
H357   H     0.06139   0.68892   0.84688   0.00000  Uiso   1.00
H358   H     0.01083   0.07841   0.45006   0.00000  Uiso   1.00
H359   H     0.04145   0.64959   0.42118   0.00000  Uiso   1.00
O360   O     0.19087   0.64519   0.95276   0.00000  Uiso   1.00
O361   O     0.12454   0.15619   0.43215   0.00000  Uiso   1.00
O362   O     0.16471   0.59359   0.39426   0.00000  Uiso   1.00
N363   N     0.24775   0.68522   0.86034   0.00000  Uiso   1.00
N364   N     0.20048   0.04937   0.48936   0.00000  Uiso   1.00
N365   N     0.22910   0.64848   0.46234   0.00000  Uiso   1.00
N366   N     0.11628   0.69312   0.83844   0.00000  Uiso   1.00
N367   N     0.06902   0.05727   0.46745   0.00000  Uiso   1.00
N368   N     0.09764   0.65637   0.44043   0.00000  Uiso   1.00
C369   C     0.82188   0.49311   0.25507   0.00000  Uiso   1.00
C370   C     0.75076   0.45543   0.24525   0.00000  Uiso   1.00
C371   C     0.71862   0.44210   0.18714   0.00000  Uiso   1.00
C372   C     0.65358   0.40693   0.18822   0.00000  Uiso   1.00
C373   C     0.54800   0.35160   0.16428   0.00000  Uiso   1.00
C374   C     0.88340   0.44583   0.31995   0.00000  Uiso   1.00
C375   C     0.96279   0.42443   0.32465   0.00000  Uiso   1.00
C376   C     0.00941   0.38118   0.38862   0.00000  Uiso   1.00
C377   C     0.10978   0.31097   0.48067   0.00000  Uiso   1.00
C378   C     0.79147   0.55150   0.27215   0.00000  Uiso   1.00
C379   C     0.79358   0.61896   0.23666   0.00000  Uiso   1.00
C380   C     0.76281   0.66469   0.26039   0.00000  Uiso   1.00
C381   C     0.72044   0.75856   0.27822   0.00000  Uiso   1.00
C382   C     0.76350   0.45435   0.36032   0.00000  Uiso   1.00
C383   C     0.71906   0.43438   0.30241   0.00000  Uiso   1.00
C384   C     0.65404   0.39922   0.30358   0.00000  Uiso   1.00
C385   C     0.62181   0.38585   0.24548   0.00000  Uiso   1.00
C386   C     0.85170   0.42477   0.37711   0.00000  Uiso   1.00
C387   C     0.89821   0.38155   0.44109   0.00000  Uiso   1.00
C388   C     0.97765   0.36009   0.44589   0.00000  Uiso   1.00
C389   C     0.75976   0.53045   0.32931   0.00000  Uiso   1.00
C390   C     0.72899   0.57608   0.35310   0.00000  Uiso   1.00
C391   C     0.73105   0.64360   0.31766   0.00000  Uiso   1.00
H392   H     0.84657   0.50950   0.21057   0.00000  Uiso   1.00
H393   H     0.74318   0.45840   0.14291   0.00000  Uiso   1.00
H394   H     0.98731   0.44073   0.28041   0.00000  Uiso   1.00
H395   H     0.81812   0.63524   0.19243   0.00000  Uiso   1.00
H396   H     0.61460   0.39244   0.09312   0.00000  Uiso   1.00
H397   H     0.12937   0.35521   0.38304   0.00000  Uiso   1.00
H398   H     0.77260   0.76536   0.19752   0.00000  Uiso   1.00
H399   H     0.73882   0.43796   0.40482   0.00000  Uiso   1.00
H400   H     0.62952   0.38294   0.34782   0.00000  Uiso   1.00
H401   H     0.87366   0.36527   0.48532   0.00000  Uiso   1.00
H402   H     0.70446   0.55977   0.39734   0.00000  Uiso   1.00
H403   H     0.52235   0.33119   0.25943   0.00000  Uiso   1.00
H404   H     0.03713   0.29396   0.54935   0.00000  Uiso   1.00
H405   H     0.68035   0.70411   0.36384   0.00000  Uiso   1.00
O406   O     0.49853   0.32689   0.13529   0.00000  Uiso   1.00
O407   O     0.17390   0.27806   0.51565   0.00000  Uiso   1.00
O408   O     0.70582   0.81616   0.27225   0.00000  Uiso   1.00
N409   N     0.60788   0.38559   0.14008   0.00000  Uiso   1.00
N410   N     0.08916   0.35077   0.41113   0.00000  Uiso   1.00
N411   N     0.75562   0.73422   0.23770   0.00000  Uiso   1.00
N412   N     0.55823   0.35263   0.22957   0.00000  Uiso   1.00
N413   N     0.03952   0.31781   0.50063   0.00000  Uiso   1.00
N414   N     0.70598   0.70127   0.32719   0.00000  Uiso   1.00
C415   C     0.02852   0.51390   0.84969   0.00000  Uiso   1.00
C416   C     0.98992   0.44998   0.86638   0.00000  Uiso   1.00
C417   C     0.98416   0.40763   0.83028   0.00000  Uiso   1.00
C418   C     0.94665   0.35169   0.85373   0.00000  Uiso   1.00
C419   C     0.89134   0.25445   0.87089   0.00000  Uiso   1.00
C420   C     0.96390   0.57020   0.84072   0.00000  Uiso   1.00
C421   C     0.93627   0.62892   0.78303   0.00000  Uiso   1.00
C422   C     0.87686   0.67419   0.78488   0.00000  Uiso   1.00
C423   C     0.78120   0.76361   0.76221   0.00000  Uiso   1.00
C424   C     0.09309   0.50506   0.91449   0.00000  Uiso   1.00
C425   C     0.17409   0.50902   0.91884   0.00000  Uiso   1.00
C426   C     0.22345   0.49946   0.98280   0.00000  Uiso   1.00
C427   C     0.32837   0.48773   0.07468   0.00000  Uiso   1.00
C428   C     0.97214   0.48988   0.95554   0.00000  Uiso   1.00
C429   C     0.95930   0.43694   0.92388   0.00000  Uiso   1.00
C430   C     0.92179   0.38105   0.94739   0.00000  Uiso   1.00
C431   C     0.91598   0.33862   0.91133   0.00000  Uiso   1.00
C432   C     0.93328   0.55715   0.89821   0.00000  Uiso   1.00
C433   C     0.87390   0.60235   0.90015   0.00000  Uiso   1.00
C434   C     0.84619   0.66112   0.84248   0.00000  Uiso   1.00
C435   C     0.06247   0.49201   0.97199   0.00000  Uiso   1.00
C436   C     0.11172   0.48244   0.03595   0.00000  Uiso   1.00
C437   C     0.19277   0.48639   0.04040   0.00000  Uiso   1.00
H438   H     0.05235   0.52406   0.80492   0.00000  Uiso   1.00
H439   H     0.00786   0.41775   0.78578   0.00000  Uiso   1.00
H440   H     0.95999   0.63901   0.73855   0.00000  Uiso   1.00
H441   H     0.19776   0.51912   0.87434   0.00000  Uiso   1.00
H442   H     0.94500   0.29414   0.78990   0.00000  Uiso   1.00
H443   H     0.84407   0.76069   0.69032   0.00000  Uiso   1.00
H444   H     0.34548   0.50789   0.97665   0.00000  Uiso   1.00
H445   H     0.94830   0.47972   0.00030   0.00000  Uiso   1.00
H446   H     0.89810   0.37097   0.99188   0.00000  Uiso   1.00
H447   H     0.85022   0.59223   0.94465   0.00000  Uiso   1.00
H448   H     0.08800   0.47234   0.08044   0.00000  Uiso   1.00
H449   H     0.85591   0.25617   0.95718   0.00000  Uiso   1.00
H450   H     0.75499   0.72273   0.85760   0.00000  Uiso   1.00
H451   H     0.25639   0.46992   0.14393   0.00000  Uiso   1.00
O452   O     0.86928   0.20443   0.86446   0.00000  Uiso   1.00
O453   O     0.73689   0.81653   0.73382   0.00000  Uiso   1.00
O454   O     0.39471   0.48486   0.10948   0.00000  Uiso   1.00
N455   N     0.93094   0.30012   0.83043   0.00000  Uiso   1.00
N456   N     0.83657   0.73632   0.73733   0.00000  Uiso   1.00
N457   N     0.30533   0.49998   0.00502   0.00000  Uiso   1.00
N458   N     0.88300   0.27969   0.92044   0.00000  Uiso   1.00
N459   N     0.78863   0.71589   0.82734   0.00000  Uiso   1.00
N460   N     0.25740   0.47955   0.09503   0.00000  Uiso   1.00
C461   C     0.74271   0.13000   0.65812   0.00000  Uiso   1.00
C462   C     0.69987   0.09949   0.71400   0.00000  Uiso   1.00
C463   C     0.72822   0.08966   0.78269   0.00000  Uiso   1.00
C464   C     0.68009   0.06099   0.82567   0.00000  Uiso   1.00
C465   C     0.62480   0.01634   0.91623   0.00000  Uiso   1.00
C466   C     0.75150   0.07805   0.62605   0.00000  Uiso   1.00
C467   C     0.82326   0.05020   0.62079   0.00000  Uiso   1.00
C468   C     0.81858   0.00349   0.58972   0.00000  Uiso   1.00
C469   C     0.84345   0.92559   0.54370   0.00000  Uiso   1.00
C470   C     0.68365   0.18955   0.60290   0.00000  Uiso   1.00
C471   C     0.69837   0.25546   0.57816   0.00000  Uiso   1.00
C472   C     0.63657   0.30263   0.52759   0.00000  Uiso   1.00
C473   C     0.55610   0.39786   0.44563   0.00000  Uiso   1.00
C474   C     0.60681   0.09658   0.61230   0.00000  Uiso   1.00
C475   C     0.62605   0.08133   0.68911   0.00000  Uiso   1.00
C476   C     0.57786   0.05268   0.73199   0.00000  Uiso   1.00
C477   C     0.60614   0.04280   0.80073   0.00000  Uiso   1.00
C478   C     0.67768   0.05989   0.60116   0.00000  Uiso   1.00
C479   C     0.67290   0.01322   0.57009   0.00000  Uiso   1.00
C480   C     0.74464   0.98530   0.56479   0.00000  Uiso   1.00
C481   C     0.60983   0.17140   0.57801   0.00000  Uiso   1.00
C482   C     0.54801   0.21848   0.52747   0.00000  Uiso   1.00
C483   C     0.56263   0.28444   0.50266   0.00000  Uiso   1.00
H484   H     0.80018   0.14413   0.67749   0.00000  Uiso   1.00
H485   H     0.78535   0.10371   0.80193   0.00000  Uiso   1.00
H486   H     0.88037   0.06426   0.64005   0.00000  Uiso   1.00
H487   H     0.75549   0.26949   0.59743   0.00000  Uiso   1.00
H488   H     0.73637   0.05086   0.92892   0.00000  Uiso   1.00
H489   H     0.93672   0.96771   0.58756   0.00000  Uiso   1.00
H490   H     0.67340   0.40047   0.49770   0.00000  Uiso   1.00
H491   H     0.54934   0.08244   0.59292   0.00000  Uiso   1.00
H492   H     0.52074   0.03863   0.71272   0.00000  Uiso   1.00
H493   H     0.61577   0.99918   0.55083   0.00000  Uiso   1.00
H494   H     0.49089   0.20441   0.50822   0.00000  Uiso   1.00
H495   H     0.52160   0.99804   0.85651   0.00000  Uiso   1.00
H496   H     0.72196   0.91488   0.51515   0.00000  Uiso   1.00
H497   H     0.45864   0.34764   0.42529   0.00000  Uiso   1.00
O498   O     0.61471   0.99672   0.97306   0.00000  Uiso   1.00
O499   O     0.87757   0.88764   0.52520   0.00000  Uiso   1.00
O500   O     0.53209   0.45541   0.40730   0.00000  Uiso   1.00
N501   N     0.68974   0.04445   0.89544   0.00000  Uiso   1.00
N502   N     0.87706   0.96670   0.57630   0.00000  Uiso   1.00
N503   N     0.63089   0.37129   0.49227   0.00000  Uiso   1.00
N504   N     0.57417   0.01603   0.85647   0.00000  Uiso   1.00
N505   N     0.76150   0.93828   0.53734   0.00000  Uiso   1.00
N506   N     0.51532   0.34287   0.45331   0.00000  Uiso   1.00
C507   C     0.51996   0.83186   0.32545   0.00000  Uiso   1.00
C508   C     0.44394   0.85975   0.33781   0.00000  Uiso   1.00
C509   C     0.40401   0.92526   0.30457   0.00000  Uiso   1.00
C510   C     0.33553   0.94086   0.32316   0.00000  Uiso   1.00
C511   C     0.22170   0.99151   0.33476   0.00000  Uiso   1.00
C512   C     0.58173   0.80330   0.39503   0.00000  Uiso   1.00
C513   C     0.65766   0.82135   0.40989   0.00000  Uiso   1.00
C514   C     0.70517   0.78942   0.47665   0.00000  Uiso   1.00
C515   C     0.80528   0.75240   0.57707   0.00000  Uiso   1.00
C516   C     0.49951   0.77167   0.30667   0.00000  Uiso   1.00
C517   C     0.50633   0.76312   0.24723   0.00000  Uiso   1.00
C518   C     0.48464   0.70455   0.23961   0.00000  Uiso   1.00
C519   C     0.45710   0.61843   0.20283   0.00000  Uiso   1.00
C520   C     0.46933   0.74306   0.41759   0.00000  Uiso   1.00
C521   C     0.41644   0.81152   0.38786   0.00000  Uiso   1.00
C522   C     0.34800   0.82702   0.40651   0.00000  Uiso   1.00
C523   C     0.30798   0.89254   0.37329   0.00000  Uiso   1.00
C524   C     0.55423   0.75507   0.44508   0.00000  Uiso   1.00
C525   C     0.60164   0.72311   0.51183   0.00000  Uiso   1.00
C526   C     0.67762   0.74110   0.52679   0.00000  Uiso   1.00
C527   C     0.47201   0.72345   0.35671   0.00000  Uiso   1.00
C528   C     0.45031   0.66488   0.34918   0.00000  Uiso   1.00
C529   C     0.45709   0.65624   0.28974   0.00000  Uiso   1.00
H530   H     0.54137   0.86940   0.28649   0.00000  Uiso   1.00
H531   H     0.42532   0.96257   0.26584   0.00000  Uiso   1.00
H532   H     0.67893   0.85867   0.37115   0.00000  Uiso   1.00
H533   H     0.52762   0.80045   0.20852   0.00000  Uiso   1.00
H534   H     0.28454   0.04460   0.26504   0.00000  Uiso   1.00
H535   H     0.81930   0.82550   0.48707   0.00000  Uiso   1.00
H536   H     0.50023   0.70273   0.14413   0.00000  Uiso   1.00
H537   H     0.44792   0.70551   0.45656   0.00000  Uiso   1.00
H538   H     0.32673   0.78969   0.44524   0.00000  Uiso   1.00
H539   H     0.58034   0.68579   0.55055   0.00000  Uiso   1.00
H540   H     0.42903   0.62757   0.38792   0.00000  Uiso   1.00
H541   H     0.20453   0.90429   0.41064   0.00000  Uiso   1.00
H542   H     0.73929   0.68518   0.63268   0.00000  Uiso   1.00
H543   H     0.42022   0.56242   0.28974   0.00000  Uiso   1.00
O544   O     0.16651   0.03278   0.32734   0.00000  Uiso   1.00
O545   O     0.86810   0.74532   0.61863   0.00000  Uiso   1.00
O546   O     0.44949   0.58425   0.16871   0.00000  Uiso   1.00
N547   N     0.28233   0.00002   0.30085   0.00000  Uiso   1.00
N548   N     0.78229   0.79518   0.50844   0.00000  Uiso   1.00
N549   N     0.48402   0.68040   0.18783   0.00000  Uiso   1.00
N550   N     0.23928   0.92452   0.37920   0.00000  Uiso   1.00
N551   N     0.73924   0.71968   0.58679   0.00000  Uiso   1.00
N552   N     0.44096   0.60490   0.26618   0.00000  Uiso   1.00
