data_job_06305
_audit_creation_date              2018-12-19
_audit_creation_method            'Materials Studio'
_symmetry_space_group_name_H-M    'P1'
_symmetry_Int_Tables_number       1
_symmetry_cell_setting            triclinic
loop_
_symmetry_equiv_pos_as_xyz
  x,y,z
_cell_length_a                    16.1473
_cell_length_b                    15.9216
_cell_length_c                    14.9092
_cell_angle_alpha                 82.8158
_cell_angle_beta                  82.9044
_cell_angle_gamma                 81.0436
loop_
_atom_site_label
_atom_site_type_symbol
_atom_site_fract_x
_atom_site_fract_y
_atom_site_fract_z
_atom_site_U_iso_or_equiv
_atom_site_adp_type
_atom_site_occupancy
C1     C     0.59805   0.12015   0.24204   0.00000  Uiso   1.00
C2     C     0.51934   0.07685   0.26811   0.00000  Uiso   1.00
C3     C     0.50880   0.01277   0.33897   0.00000  Uiso   1.00
C4     C     0.43211   0.98149   0.35173   0.00000  Uiso   1.00
C5     C     0.31962   0.90941   0.40073   0.00000  Uiso   1.00
C6     C     0.62548   0.10793   0.14236   0.00000  Uiso   1.00
C7     C     0.70418   0.07000   0.10748   0.00000  Uiso   1.00
C8     C     0.71684   0.06490   0.01439   0.00000  Uiso   1.00
C9     C     0.76914   0.04112   0.86814   0.00000  Uiso   1.00
C10    C     0.56886   0.21568   0.24483   0.00000  Uiso   1.00
C11    C     0.59997   0.26836   0.29609   0.00000  Uiso   1.00
C12    C     0.56497   0.35398   0.28925   0.00000  Uiso   1.00
C13    C     0.52937   0.49751   0.30210   0.00000  Uiso   1.00
C14    C     0.48062   0.17855   0.13871   0.00000  Uiso   1.00
C15    C     0.45556   0.10857   0.21199   0.00000  Uiso   1.00
C16    C     0.37887   0.07739   0.22465   0.00000  Uiso   1.00
C17    C     0.36821   0.01327   0.29552   0.00000  Uiso   1.00
C18    C     0.56170   0.13965   0.08624   0.00000  Uiso   1.00
C19    C     0.57425   0.13461   0.99317   0.00000  Uiso   1.00
C20    C     0.65294   0.09668   0.95817   0.00000  Uiso   1.00
C21    C     0.50508   0.24741   0.18871   0.00000  Uiso   1.00
C22    C     0.47003   0.33297   0.18178   0.00000  Uiso   1.00
C23    C     0.50107   0.38576   0.23303   0.00000  Uiso   1.00
H24    H     0.64772   0.09545   0.28572   0.00000  Uiso   1.00
H25    H     0.55818   0.98824   0.38238   0.00000  Uiso   1.00
H26    H     0.75353   0.04547   0.15093   0.00000  Uiso   1.00
H27    H     0.64933   0.24379   0.33951   0.00000  Uiso   1.00
H28    H     0.43079   0.88333   0.46476   0.00000  Uiso   1.00
H29    H     0.84270   0.00403   0.97674   0.00000  Uiso   1.00
H30    H     0.62298   0.42224   0.37440   0.00000  Uiso   1.00
H31    H     0.43096   0.20325   0.09502   0.00000  Uiso   1.00
H32    H     0.32952   0.10194   0.18121   0.00000  Uiso   1.00
H33    H     0.52487   0.15917   0.94976   0.00000  Uiso   1.00
H34    H     0.42067   0.35749   0.13835   0.00000  Uiso   1.00
H35    H     0.24520   0.97562   0.30149   0.00000  Uiso   1.00
H36    H     0.65712   0.09632   0.81347   0.00000  Uiso   1.00
H37    H     0.43740   0.51452   0.21113   0.00000  Uiso   1.00
O38    O     0.27519   0.86087   0.44325   0.00000  Uiso   1.00
O39    O     0.81561   0.01923   0.80298   0.00000  Uiso   1.00
O40    O     0.52734   0.56791   0.32470   0.00000  Uiso   1.00
N41    N     0.40103   0.91897   0.41452   0.00000  Uiso   1.00
N42    N     0.78614   0.03180   0.95825   0.00000  Uiso   1.00
N43    N     0.58073   0.42279   0.33001   0.00000  Uiso   1.00
N44    N     0.30116   0.96863   0.32667   0.00000  Uiso   1.00
N45    N     0.68627   0.08146   0.87039   0.00000  Uiso   1.00
N46    N     0.48087   0.47245   0.24215   0.00000  Uiso   1.00
C47    C     0.24880   0.59362   0.09993   0.00000  Uiso   1.00
C48    C     0.27665   0.51319   0.05189   0.00000  Uiso   1.00
C49    C     0.34384   0.50160   0.98485   0.00000  Uiso   1.00
C50    C     0.35907   0.42340   0.94939   0.00000  Uiso   1.00
C51    C     0.40992   0.30830   0.87011   0.00000  Uiso   1.00
C52    C     0.15636   0.62172   0.08514   0.00000  Uiso   1.00
C53    C     0.12241   0.70138   0.04607   0.00000  Uiso   1.00
C54    C     0.03638   0.71453   0.03861   0.00000  Uiso   1.00
C55    C     0.90048   0.76796   0.01102   0.00000  Uiso   1.00
C56    C     0.25005   0.56489   0.20129   0.00000  Uiso   1.00
C57    C     0.29485   0.59678   0.25989   0.00000  Uiso   1.00
C58    C     0.28768   0.56210   0.35023   0.00000  Uiso   1.00
C59    C     0.29723   0.52729   0.50299   0.00000  Uiso   1.00
C60    C     0.15638   0.47534   0.15617   0.00000  Uiso   1.00
C61    C     0.22645   0.44895   0.08244   0.00000  Uiso   1.00
C62    C     0.24158   0.37074   0.04707   0.00000  Uiso   1.00
C63    C     0.30878   0.35903   0.97999   0.00000  Uiso   1.00
C64    C     0.10616   0.55748   0.11568   0.00000  Uiso   1.00
C65    C     0.02016   0.57052   0.10829   0.00000  Uiso   1.00
C66    C     0.98609   0.65018   0.06921   0.00000  Uiso   1.00
C67    C     0.19985   0.50064   0.23184   0.00000  Uiso   1.00
C68    C     0.19260   0.46592   0.32211   0.00000  Uiso   1.00
C69    C     0.23739   0.49775   0.38084   0.00000  Uiso   1.00
H70    H     0.28788   0.64364   0.07614   0.00000  Uiso   1.00
H71    H     0.38267   0.55134   0.96122   0.00000  Uiso   1.00
H72    H     0.16128   0.75109   0.02244   0.00000  Uiso   1.00
H73    H     0.33369   0.64650   0.23623   0.00000  Uiso   1.00
H74    H     0.46559   0.42069   0.84725   0.00000  Uiso   1.00
H75    H     0.99878   0.84188   0.97637   0.00000  Uiso   1.00
H76    H     0.36235   0.62134   0.42718   0.00000  Uiso   1.00
H77    H     0.11729   0.42532   0.17995   0.00000  Uiso   1.00
H78    H     0.20272   0.32104   0.07072   0.00000  Uiso   1.00
H79    H     0.98133   0.52079   0.13194   0.00000  Uiso   1.00
H80    H     0.15375   0.41620   0.34573   0.00000  Uiso   1.00
H81    H     0.31954   0.23377   0.93613   0.00000  Uiso   1.00
H82    H     0.85273   0.65496   0.06524   0.00000  Uiso   1.00
H83    H     0.21630   0.43442   0.51605   0.00000  Uiso   1.00
O84    O     0.45183   0.26257   0.81794   0.00000  Uiso   1.00
O85    O     0.83939   0.81517   0.98735   0.00000  Uiso   1.00
O86    O     0.31638   0.52582   0.57880   0.00000  Uiso   1.00
N87    N     0.41951   0.39100   0.88317   0.00000  Uiso   1.00
N88    N     0.98307   0.78479   0.00387   0.00000  Uiso   1.00
N89    N     0.32296   0.57861   0.42535   0.00000  Uiso   1.00
N90    N     0.34092   0.29042   0.93100   0.00000  Uiso   1.00
N91    N     0.90448   0.68421   0.05170   0.00000  Uiso   1.00
N92    N     0.24437   0.47803   0.47317   0.00000  Uiso   1.00
C93    C     0.12320   0.24956   0.57971   0.00000  Uiso   1.00
C94    C     0.07997   0.27724   0.49330   0.00000  Uiso   1.00
C95    C     0.01616   0.34559   0.48123   0.00000  Uiso   1.00
C96    C     0.98490   0.36043   0.39714   0.00000  Uiso   1.00
C97    C     0.91296   0.41125   0.27356   0.00000  Uiso   1.00
C98    C     0.11215   0.15603   0.60658   0.00000  Uiso   1.00
C99    C     0.07541   0.12248   0.68974   0.00000  Uiso   1.00
C100   C     0.07125   0.03529   0.70100   0.00000  Uiso   1.00
C101   C     0.04933   0.89793   0.75330   0.00000  Uiso   1.00
C102   C     0.21718   0.25017   0.55162   0.00000  Uiso   1.00
C103   C     0.26877   0.29574   0.58860   0.00000  Uiso   1.00
C104   C     0.35305   0.28779   0.55360   0.00000  Uiso   1.00
C105   C     0.49421   0.29658   0.52057   0.00000  Uiso   1.00
C106   C     0.18115   0.15437   0.45183   0.00000  Uiso   1.00
C107   C     0.11144   0.22553   0.42385   0.00000  Uiso   1.00
C108   C     0.08028   0.24028   0.33975   0.00000  Uiso   1.00
C109   C     0.01644   0.30864   0.32755   0.00000  Uiso   1.00
C110   C     0.14362   0.10433   0.53712   0.00000  Uiso   1.00
C111   C     0.13953   0.01717   0.54826   0.00000  Uiso   1.00
C112   C     0.10279   0.98349   0.63142   0.00000  Uiso   1.00
C113   C     0.24866   0.19847   0.48216   0.00000  Uiso   1.00
C114   C     0.33288   0.19044   0.44711   0.00000  Uiso   1.00
C115   C     0.38459   0.23599   0.48402   0.00000  Uiso   1.00
H116   H     0.09869   0.28980   0.63379   0.00000  Uiso   1.00
H117   H     0.99181   0.38558   0.53501   0.00000  Uiso   1.00
H118   H     0.05107   0.16250   0.74349   0.00000  Uiso   1.00
H119   H     0.24439   0.33574   0.64235   0.00000  Uiso   1.00
H120   H     0.88718   0.46894   0.39486   0.00000  Uiso   1.00
H121   H     0.01214   0.99857   0.83447   0.00000  Uiso   1.00
H122   H     0.41981   0.36388   0.62120   0.00000  Uiso   1.00
H123   H     0.20566   0.11412   0.39775   0.00000  Uiso   1.00
H124   H     0.10465   0.20026   0.28601   0.00000  Uiso   1.00
H125   H     0.16390   0.97718   0.49450   0.00000  Uiso   1.00
H126   H     0.35722   0.15042   0.39336   0.00000  Uiso   1.00
H127   H     0.97875   0.31853   0.19278   0.00000  Uiso   1.00
H128   H     0.10372   0.84816   0.63238   0.00000  Uiso   1.00
H129   H     0.51138   0.21347   0.41911   0.00000  Uiso   1.00
O130   O     0.86457   0.45355   0.22458   0.00000  Uiso   1.00
O131   O     0.02853   0.83644   0.80133   0.00000  Uiso   1.00
O132   O     0.56337   0.31572   0.52153   0.00000  Uiso   1.00
N133   N     0.92261   0.42173   0.36263   0.00000  Uiso   1.00
N134   N     0.03942   0.98197   0.77363   0.00000  Uiso   1.00
N135   N     0.42056   0.32348   0.57426   0.00000  Uiso   1.00
N136   N     0.97188   0.34080   0.25389   0.00000  Uiso   1.00
N137   N     0.08870   0.90103   0.66489   0.00000  Uiso   1.00
N138   N     0.46984   0.24254   0.46552   0.00000  Uiso   1.00
C139   C     0.40195   0.87985   0.75796   0.00000  Uiso   1.00
C140   C     0.48066   0.92315   0.73189   0.00000  Uiso   1.00
C141   C     0.49120   0.98723   0.66104   0.00000  Uiso   1.00
C142   C     0.56789   0.01851   0.64827   0.00000  Uiso   1.00
C143   C     0.68038   0.09059   0.59927   0.00000  Uiso   1.00
C144   C     0.37452   0.89207   0.85764   0.00000  Uiso   1.00
C145   C     0.29582   0.93000   0.89252   0.00000  Uiso   1.00
C146   C     0.28316   0.93510   0.98561   0.00000  Uiso   1.00
C147   C     0.23086   0.95888   0.13186   0.00000  Uiso   1.00
C148   C     0.43114   0.78432   0.75517   0.00000  Uiso   1.00
C149   C     0.40003   0.73164   0.70391   0.00000  Uiso   1.00
C150   C     0.43503   0.64602   0.71075   0.00000  Uiso   1.00
C151   C     0.47063   0.50249   0.69790   0.00000  Uiso   1.00
C152   C     0.51938   0.82145   0.86129   0.00000  Uiso   1.00
C153   C     0.54444   0.89143   0.78801   0.00000  Uiso   1.00
C154   C     0.62113   0.92261   0.77535   0.00000  Uiso   1.00
C155   C     0.63179   0.98673   0.70448   0.00000  Uiso   1.00
C156   C     0.43830   0.86035   0.91376   0.00000  Uiso   1.00
C157   C     0.42575   0.86539   0.00683   0.00000  Uiso   1.00
C158   C     0.34706   0.90332   0.04183   0.00000  Uiso   1.00
C159   C     0.49492   0.75259   0.81129   0.00000  Uiso   1.00
C160   C     0.52997   0.66703   0.81822   0.00000  Uiso   1.00
C161   C     0.49893   0.61424   0.76697   0.00000  Uiso   1.00
H162   H     0.35228   0.90454   0.71428   0.00000  Uiso   1.00
H163   H     0.44182   0.01176   0.61762   0.00000  Uiso   1.00
H164   H     0.24647   0.95453   0.84907   0.00000  Uiso   1.00
H165   H     0.35067   0.75621   0.66049   0.00000  Uiso   1.00
H166   H     0.56921   0.11667   0.53524   0.00000  Uiso   1.00
H167   H     0.15730   0.99597   0.02326   0.00000  Uiso   1.00
H168   H     0.37702   0.57776   0.62560   0.00000  Uiso   1.00
H169   H     0.56904   0.79675   0.90498   0.00000  Uiso   1.00
H170   H     0.67048   0.89806   0.81879   0.00000  Uiso   1.00
H171   H     0.47513   0.84083   0.05024   0.00000  Uiso   1.00
H172   H     0.57933   0.64251   0.86165   0.00000  Uiso   1.00
H173   H     0.75479   0.02438   0.69851   0.00000  Uiso   1.00
H174   H     0.34288   0.90368   0.18653   0.00000  Uiso   1.00
H175   H     0.56260   0.48548   0.78887   0.00000  Uiso   1.00
O176   O     0.72481   0.13913   0.55675   0.00000  Uiso   1.00
O177   O     0.18439   0.98077   0.19702   0.00000  Uiso   1.00
O178   O     0.47266   0.43209   0.67529   0.00000  Uiso   1.00
N179   N     0.59897   0.08103   0.58548   0.00000  Uiso   1.00
N180   N     0.21386   0.96820   0.04175   0.00000  Uiso   1.00
N181   N     0.41927   0.57721   0.66999   0.00000  Uiso   1.00
N182   N     0.69883   0.03137   0.67333   0.00000  Uiso   1.00
N183   N     0.31373   0.91854   0.12961   0.00000  Uiso   1.00
N184   N     0.51913   0.52755   0.75785   0.00000  Uiso   1.00
C185   C     0.75120   0.40638   0.90007   0.00000  Uiso   1.00
C186   C     0.72335   0.48681   0.94811   0.00000  Uiso   1.00
C187   C     0.65616   0.49840   0.01515   0.00000  Uiso   1.00
C188   C     0.64093   0.57660   0.05061   0.00000  Uiso   1.00
C189   C     0.59008   0.69170   0.12989   0.00000  Uiso   1.00
C190   C     0.84364   0.37828   0.91486   0.00000  Uiso   1.00
C191   C     0.87758   0.29862   0.95393   0.00000  Uiso   1.00
C192   C     0.96362   0.28547   0.96139   0.00000  Uiso   1.00
C193   C     0.09952   0.23204   0.98898   0.00000  Uiso   1.00
C194   C     0.74995   0.43511   0.79871   0.00000  Uiso   1.00
C195   C     0.70515   0.40322   0.74011   0.00000  Uiso   1.00
C196   C     0.71232   0.43790   0.64977   0.00000  Uiso   1.00
C197   C     0.70277   0.47271   0.49701   0.00000  Uiso   1.00
C198   C     0.84362   0.52466   0.84383   0.00000  Uiso   1.00
C199   C     0.77355   0.55105   0.91756   0.00000  Uiso   1.00
C200   C     0.75842   0.62926   0.95293   0.00000  Uiso   1.00
C201   C     0.69122   0.64097   0.02001   0.00000  Uiso   1.00
C202   C     0.89384   0.44252   0.88432   0.00000  Uiso   1.00
C203   C     0.97984   0.42948   0.89171   0.00000  Uiso   1.00
C204   C     0.01391   0.34982   0.93079   0.00000  Uiso   1.00
C205   C     0.80015   0.49936   0.76816   0.00000  Uiso   1.00
C206   C     0.80740   0.53408   0.67789   0.00000  Uiso   1.00
C207   C     0.76261   0.50225   0.61916   0.00000  Uiso   1.00
H208   H     0.71212   0.35636   0.92386   0.00000  Uiso   1.00
H209   H     0.61733   0.44866   0.03878   0.00000  Uiso   1.00
H210   H     0.83872   0.24891   0.97756   0.00000  Uiso   1.00
H211   H     0.66631   0.35350   0.76377   0.00000  Uiso   1.00
H212   H     0.53440   0.57931   0.15275   0.00000  Uiso   1.00
H213   H     0.00122   0.15812   0.02363   0.00000  Uiso   1.00
H214   H     0.63765   0.37866   0.57282   0.00000  Uiso   1.00
H215   H     0.88271   0.57468   0.82005   0.00000  Uiso   1.00
H216   H     0.79728   0.67896   0.92928   0.00000  Uiso   1.00
H217   H     0.01867   0.47921   0.86806   0.00000  Uiso   1.00
H218   H     0.84625   0.58380   0.65427   0.00000  Uiso   1.00
H219   H     0.68046   0.76623   0.06387   0.00000  Uiso   1.00
H220   H     0.14727   0.34504   0.93476   0.00000  Uiso   1.00
H221   H     0.78370   0.56558   0.48395   0.00000  Uiso   1.00
O222   O     0.54817   0.73743   0.18206   0.00000  Uiso   1.00
O223   O     0.16061   0.18483   0.01265   0.00000  Uiso   1.00
O224   O     0.68362   0.47418   0.42120   0.00000  Uiso   1.00
N225   N     0.58049   0.60900   0.11683   0.00000  Uiso   1.00
N226   N     0.01693   0.21521   0.99613   0.00000  Uiso   1.00
N227   N     0.67704   0.42139   0.57465   0.00000  Uiso   1.00
N228   N     0.65908   0.70958   0.06900   0.00000  Uiso   1.00
N229   N     0.09552   0.31579   0.94830   0.00000  Uiso   1.00
N230   N     0.75563   0.52197   0.52683   0.00000  Uiso   1.00
C231   C     0.87680   0.75044   0.42029   0.00000  Uiso   1.00
C232   C     0.92003   0.72276   0.50669   0.00000  Uiso   1.00
C233   C     0.98384   0.65441   0.51877   0.00000  Uiso   1.00
C234   C     0.01510   0.63957   0.60286   0.00000  Uiso   1.00
C235   C     0.08704   0.58875   0.72644   0.00000  Uiso   1.00
C236   C     0.88785   0.84397   0.39342   0.00000  Uiso   1.00
C237   C     0.92459   0.87752   0.31025   0.00000  Uiso   1.00
C238   C     0.92874   0.96471   0.29900   0.00000  Uiso   1.00
C239   C     0.95067   0.10207   0.24670   0.00000  Uiso   1.00
C240   C     0.78282   0.74983   0.44838   0.00000  Uiso   1.00
C241   C     0.73123   0.70426   0.41140   0.00000  Uiso   1.00
C242   C     0.64695   0.71221   0.44640   0.00000  Uiso   1.00
C243   C     0.50579   0.70342   0.47943   0.00000  Uiso   1.00
C244   C     0.81885   0.84563   0.54817   0.00000  Uiso   1.00
C245   C     0.88856   0.77447   0.57615   0.00000  Uiso   1.00
C246   C     0.91972   0.75972   0.66025   0.00000  Uiso   1.00
C247   C     0.98356   0.69136   0.67245   0.00000  Uiso   1.00
C248   C     0.85638   0.89567   0.46288   0.00000  Uiso   1.00
C249   C     0.86047   0.98283   0.45174   0.00000  Uiso   1.00
C250   C     0.89721   0.01651   0.36858   0.00000  Uiso   1.00
C251   C     0.75134   0.80153   0.51784   0.00000  Uiso   1.00
C252   C     0.66712   0.80956   0.55289   0.00000  Uiso   1.00
C253   C     0.61541   0.76401   0.51598   0.00000  Uiso   1.00
H254   H     0.90131   0.71020   0.36621   0.00000  Uiso   1.00
H255   H     0.00819   0.61442   0.46499   0.00000  Uiso   1.00
H256   H     0.94893   0.83750   0.25651   0.00000  Uiso   1.00
H257   H     0.75561   0.66426   0.35765   0.00000  Uiso   1.00
H258   H     0.11282   0.53106   0.60514   0.00000  Uiso   1.00
H259   H     0.98786   0.00143   0.16553   0.00000  Uiso   1.00
H260   H     0.58019   0.63612   0.37880   0.00000  Uiso   1.00
H261   H     0.79434   0.88588   0.60225   0.00000  Uiso   1.00
H262   H     0.89535   0.79974   0.71399   0.00000  Uiso   1.00
H263   H     0.83610   0.02282   0.50550   0.00000  Uiso   1.00
H264   H     0.64278   0.84958   0.60664   0.00000  Uiso   1.00
H265   H     0.02125   0.68147   0.80722   0.00000  Uiso   1.00
H266   H     0.89628   0.15184   0.36762   0.00000  Uiso   1.00
H267   H     0.48862   0.78653   0.58089   0.00000  Uiso   1.00
O268   O     0.13543   0.54645   0.77542   0.00000  Uiso   1.00
O269   O     0.97147   0.16356   0.19867   0.00000  Uiso   1.00
O270   O     0.43663   0.68428   0.47847   0.00000  Uiso   1.00
N271   N     0.07739   0.57827   0.63737   0.00000  Uiso   1.00
N272   N     0.96057   0.01803   0.22637   0.00000  Uiso   1.00
N273   N     0.57944   0.67652   0.42574   0.00000  Uiso   1.00
N274   N     0.02812   0.65920   0.74611   0.00000  Uiso   1.00
N275   N     0.91130   0.09897   0.33511   0.00000  Uiso   1.00
N276   N     0.53016   0.75746   0.53448   0.00000  Uiso   1.00
