data_job_04931
_audit_creation_date              2018-12-19
_audit_creation_method            'Materials Studio'
_symmetry_space_group_name_H-M    'P1'
_symmetry_Int_Tables_number       1
_symmetry_cell_setting            triclinic
loop_
_symmetry_equiv_pos_as_xyz
  x,y,z
_cell_length_a                    9.0110
_cell_length_b                    24.4959
_cell_length_c                    16.7780
_cell_angle_alpha                 90.0000
_cell_angle_beta                  138.3132
_cell_angle_gamma                 90.0000
loop_
_atom_site_label
_atom_site_type_symbol
_atom_site_fract_x
_atom_site_fract_y
_atom_site_fract_z
_atom_site_U_iso_or_equiv
_atom_site_adp_type
_atom_site_occupancy
C1     C     0.56510   0.87667   0.11980   0.00000  Uiso   1.00
C2     C     0.75655   0.90346   0.24191   0.00000  Uiso   1.00
C3     C     0.91359   0.93876   0.27266   0.00000  Uiso   1.00
C4     C     0.07554   0.95891   0.38895   0.00000  Uiso   1.00
C5     C     0.37219   0.00273   0.56603   0.00000  Uiso   1.00
C6     C     0.59206   0.81535   0.14302   0.00000  Uiso   1.00
C7     C     0.61077   0.77656   0.09059   0.00000  Uiso   1.00
C8     C     0.63421   0.72254   0.12363   0.00000  Uiso   1.00
C9     C     0.67532   0.62956   0.14710   0.00000  Uiso   1.00
C10    C     0.35241   0.89270   0.07854   0.00000  Uiso   1.00
C11    C     0.16958   0.91894   0.97189   0.00000  Uiso   1.00
C12    C     0.99122   0.93004   0.95063   0.00000  Uiso   1.00
C13    C     0.66024   0.95716   0.87400   0.00000  Uiso   1.00
C14    C     0.57342   0.84970   0.27166   0.00000  Uiso   1.00
C15    C     0.76107   0.88881   0.32439   0.00000  Uiso   1.00
C16    C     0.92281   0.90892   0.44067   0.00000  Uiso   1.00
C17    C     0.08006   0.94424   0.47158   0.00000  Uiso   1.00
C18    C     0.59658   0.80070   0.22549   0.00000  Uiso   1.00
C19    C     0.61998   0.74673   0.25861   0.00000  Uiso   1.00
C20    C     0.63874   0.70787   0.20626   0.00000  Uiso   1.00
C21    C     0.35693   0.87806   0.16102   0.00000  Uiso   1.00
C22    C     0.17881   0.88911   0.13991   0.00000  Uiso   1.00
C23    C     0.99575   0.91537   0.03326   0.00000  Uiso   1.00
H24    H     0.56158   0.88806   0.05558   0.00000  Uiso   1.00
H25    H     0.91005   0.95008   0.20880   0.00000  Uiso   1.00
H26    H     0.60724   0.78791   0.02676   0.00000  Uiso   1.00
H27    H     0.16614   0.93027   0.90809   0.00000  Uiso   1.00
H28    H     0.29844   0.01235   0.41507   0.00000  Uiso   1.00
H29    H     0.65988   0.67041   0.03118   0.00000  Uiso   1.00
H30    H     0.72972   0.97061   0.78094   0.00000  Uiso   1.00
H31    H     0.57694   0.83830   0.33587   0.00000  Uiso   1.00
H32    H     0.92626   0.89758   0.50448   0.00000  Uiso   1.00
H33    H     0.62346   0.73541   0.32243   0.00000  Uiso   1.00
H34    H     0.18236   0.87777   0.20376   0.00000  Uiso   1.00
H35    H     0.31161   0.96974   0.65505   0.00000  Uiso   1.00
H36    H     0.67304   0.62780   0.27116   0.00000  Uiso   1.00
H37    H     0.74289   0.92800   0.02092   0.00000  Uiso   1.00
O38    O     0.53459   0.03093   0.64093   0.00000  Uiso   1.00
O39    O     0.69677   0.58231   0.13727   0.00000  Uiso   1.00
O40    O     0.47644   0.97617   0.80896   0.00000  Uiso   1.00
N41    N     0.25357   0.99420   0.44840   0.00000  Uiso   1.00
N42    N     0.65659   0.67450   0.08951   0.00000  Uiso   1.00
N43    N     0.78695   0.95515   0.85553   0.00000  Uiso   1.00
N44    N     0.26066   0.97127   0.57753   0.00000  Uiso   1.00
N45    N     0.66368   0.65157   0.21864   0.00000  Uiso   1.00
N46    N     0.79403   0.93222   0.98466   0.00000  Uiso   1.00
C47    C     0.43490   0.37667   0.38020   0.00000  Uiso   1.00
C48    C     0.24345   0.40346   0.25809   0.00000  Uiso   1.00
C49    C     0.08641   0.43876   0.22734   0.00000  Uiso   1.00
C50    C     0.92446   0.45891   0.11105   0.00000  Uiso   1.00
C51    C     0.62781   0.50273   0.93397   0.00000  Uiso   1.00
C52    C     0.40794   0.31535   0.35698   0.00000  Uiso   1.00
C53    C     0.38923   0.27656   0.40941   0.00000  Uiso   1.00
C54    C     0.36579   0.22254   0.37637   0.00000  Uiso   1.00
C55    C     0.32468   0.12956   0.35290   0.00000  Uiso   1.00
C56    C     0.64759   0.39270   0.42146   0.00000  Uiso   1.00
C57    C     0.83042   0.41894   0.52811   0.00000  Uiso   1.00
C58    C     0.00878   0.43004   0.54937   0.00000  Uiso   1.00
C59    C     0.33976   0.45716   0.62600   0.00000  Uiso   1.00
C60    C     0.42658   0.34970   0.22834   0.00000  Uiso   1.00
C61    C     0.23893   0.38881   0.17561   0.00000  Uiso   1.00
C62    C     0.07719   0.40892   0.05933   0.00000  Uiso   1.00
C63    C     0.91994   0.44424   0.02842   0.00000  Uiso   1.00
C64    C     0.40342   0.30070   0.27451   0.00000  Uiso   1.00
C65    C     0.38002   0.24673   0.24139   0.00000  Uiso   1.00
C66    C     0.36126   0.20787   0.29374   0.00000  Uiso   1.00
C67    C     0.64307   0.37806   0.33898   0.00000  Uiso   1.00
C68    C     0.82119   0.38911   0.36009   0.00000  Uiso   1.00
C69    C     0.00425   0.41537   0.46674   0.00000  Uiso   1.00
H70    H     0.43842   0.38806   0.44442   0.00000  Uiso   1.00
H71    H     0.08995   0.45008   0.29120   0.00000  Uiso   1.00
H72    H     0.39276   0.28791   0.47324   0.00000  Uiso   1.00
H73    H     0.83386   0.43027   0.59191   0.00000  Uiso   1.00
H74    H     0.70156   0.51235   0.08493   0.00000  Uiso   1.00
H75    H     0.34012   0.17041   0.46882   0.00000  Uiso   1.00
H76    H     0.27028   0.47061   0.71906   0.00000  Uiso   1.00
H77    H     0.42306   0.33830   0.16413   0.00000  Uiso   1.00
H78    H     0.07374   0.39758   0.99552   0.00000  Uiso   1.00
H79    H     0.37654   0.23541   0.17757   0.00000  Uiso   1.00
H80    H     0.81764   0.37777   0.29624   0.00000  Uiso   1.00
H81    H     0.68839   0.46974   0.84495   0.00000  Uiso   1.00
H82    H     0.32696   0.12780   0.22884   0.00000  Uiso   1.00
H83    H     0.25711   0.42800   0.47908   0.00000  Uiso   1.00
O84    O     0.46541   0.53093   0.85907   0.00000  Uiso   1.00
O85    O     0.30323   0.08231   0.36273   0.00000  Uiso   1.00
O86    O     0.52356   0.47617   0.69104   0.00000  Uiso   1.00
N87    N     0.74643   0.49420   0.05160   0.00000  Uiso   1.00
N88    N     0.34341   0.17450   0.41049   0.00000  Uiso   1.00
N89    N     0.21305   0.45515   0.64447   0.00000  Uiso   1.00
N90    N     0.73934   0.47127   0.92247   0.00000  Uiso   1.00
N91    N     0.33632   0.15157   0.28136   0.00000  Uiso   1.00
N92    N     0.20597   0.43222   0.51534   0.00000  Uiso   1.00
C93    C     0.43490   0.12333   0.88020   0.00000  Uiso   1.00
C94    C     0.24345   0.09654   0.75809   0.00000  Uiso   1.00
C95    C     0.08641   0.06124   0.72734   0.00000  Uiso   1.00
C96    C     0.92446   0.04109   0.61105   0.00000  Uiso   1.00
C97    C     0.62781   0.99727   0.43397   0.00000  Uiso   1.00
C98    C     0.40794   0.18465   0.85698   0.00000  Uiso   1.00
C99    C     0.38923   0.22344   0.90941   0.00000  Uiso   1.00
C100   C     0.36579   0.27746   0.87637   0.00000  Uiso   1.00
C101   C     0.32468   0.37044   0.85290   0.00000  Uiso   1.00
C102   C     0.64759   0.10730   0.92146   0.00000  Uiso   1.00
C103   C     0.83042   0.08106   0.02811   0.00000  Uiso   1.00
C104   C     0.00878   0.06996   0.04937   0.00000  Uiso   1.00
C105   C     0.33976   0.04284   0.12600   0.00000  Uiso   1.00
C106   C     0.42658   0.15030   0.72834   0.00000  Uiso   1.00
C107   C     0.23893   0.11119   0.67561   0.00000  Uiso   1.00
C108   C     0.07719   0.09108   0.55933   0.00000  Uiso   1.00
C109   C     0.91994   0.05576   0.52842   0.00000  Uiso   1.00
C110   C     0.40342   0.19930   0.77451   0.00000  Uiso   1.00
C111   C     0.38002   0.25327   0.74139   0.00000  Uiso   1.00
C112   C     0.36126   0.29213   0.79374   0.00000  Uiso   1.00
C113   C     0.64307   0.12194   0.83898   0.00000  Uiso   1.00
C114   C     0.82119   0.11089   0.86009   0.00000  Uiso   1.00
C115   C     0.00425   0.08463   0.96674   0.00000  Uiso   1.00
H116   H     0.43842   0.11194   0.94442   0.00000  Uiso   1.00
H117   H     0.08995   0.04992   0.79120   0.00000  Uiso   1.00
H118   H     0.39276   0.21209   0.97324   0.00000  Uiso   1.00
H119   H     0.83386   0.06973   0.09191   0.00000  Uiso   1.00
H120   H     0.70156   0.98765   0.58493   0.00000  Uiso   1.00
H121   H     0.34012   0.32959   0.96882   0.00000  Uiso   1.00
H122   H     0.27028   0.02939   0.21906   0.00000  Uiso   1.00
H123   H     0.42306   0.16170   0.66413   0.00000  Uiso   1.00
H124   H     0.07374   0.10242   0.49552   0.00000  Uiso   1.00
H125   H     0.37654   0.26459   0.67757   0.00000  Uiso   1.00
H126   H     0.81764   0.12223   0.79624   0.00000  Uiso   1.00
H127   H     0.68839   0.03026   0.34495   0.00000  Uiso   1.00
H128   H     0.32696   0.37220   0.72884   0.00000  Uiso   1.00
H129   H     0.25711   0.07200   0.97908   0.00000  Uiso   1.00
O130   O     0.46541   0.96907   0.35907   0.00000  Uiso   1.00
O131   O     0.30323   0.41769   0.86273   0.00000  Uiso   1.00
O132   O     0.52356   0.02383   0.19104   0.00000  Uiso   1.00
N133   N     0.74643   0.00580   0.55160   0.00000  Uiso   1.00
N134   N     0.34341   0.32550   0.91049   0.00000  Uiso   1.00
N135   N     0.21305   0.04485   0.14447   0.00000  Uiso   1.00
N136   N     0.73934   0.02873   0.42247   0.00000  Uiso   1.00
N137   N     0.33632   0.34843   0.78136   0.00000  Uiso   1.00
N138   N     0.20597   0.06778   0.01534   0.00000  Uiso   1.00
C139   C     0.56510   0.62333   0.61980   0.00000  Uiso   1.00
C140   C     0.75655   0.59654   0.74191   0.00000  Uiso   1.00
C141   C     0.91359   0.56124   0.77266   0.00000  Uiso   1.00
C142   C     0.07554   0.54109   0.88895   0.00000  Uiso   1.00
C143   C     0.37219   0.49727   0.06603   0.00000  Uiso   1.00
C144   C     0.59206   0.68465   0.64302   0.00000  Uiso   1.00
C145   C     0.61077   0.72344   0.59059   0.00000  Uiso   1.00
C146   C     0.63421   0.77746   0.62363   0.00000  Uiso   1.00
C147   C     0.67532   0.87044   0.64710   0.00000  Uiso   1.00
C148   C     0.35241   0.60730   0.57854   0.00000  Uiso   1.00
C149   C     0.16958   0.58106   0.47189   0.00000  Uiso   1.00
C150   C     0.99122   0.56996   0.45063   0.00000  Uiso   1.00
C151   C     0.66024   0.54284   0.37400   0.00000  Uiso   1.00
C152   C     0.57342   0.65030   0.77166   0.00000  Uiso   1.00
C153   C     0.76107   0.61119   0.82439   0.00000  Uiso   1.00
C154   C     0.92281   0.59108   0.94067   0.00000  Uiso   1.00
C155   C     0.08006   0.55576   0.97158   0.00000  Uiso   1.00
C156   C     0.59658   0.69930   0.72549   0.00000  Uiso   1.00
C157   C     0.61998   0.75327   0.75861   0.00000  Uiso   1.00
C158   C     0.63874   0.79213   0.70626   0.00000  Uiso   1.00
C159   C     0.35693   0.62194   0.66102   0.00000  Uiso   1.00
C160   C     0.17881   0.61089   0.63991   0.00000  Uiso   1.00
C161   C     0.99575   0.58463   0.53326   0.00000  Uiso   1.00
H162   H     0.56158   0.61194   0.55558   0.00000  Uiso   1.00
H163   H     0.91005   0.54992   0.70880   0.00000  Uiso   1.00
H164   H     0.60724   0.71209   0.52676   0.00000  Uiso   1.00
H165   H     0.16614   0.56973   0.40809   0.00000  Uiso   1.00
H166   H     0.29844   0.48765   0.91507   0.00000  Uiso   1.00
H167   H     0.65988   0.82959   0.53118   0.00000  Uiso   1.00
H168   H     0.72972   0.52939   0.28094   0.00000  Uiso   1.00
H169   H     0.57694   0.66170   0.83587   0.00000  Uiso   1.00
H170   H     0.92626   0.60242   0.00448   0.00000  Uiso   1.00
H171   H     0.62346   0.76459   0.82243   0.00000  Uiso   1.00
H172   H     0.18236   0.62223   0.70376   0.00000  Uiso   1.00
H173   H     0.31161   0.53026   0.15505   0.00000  Uiso   1.00
H174   H     0.67304   0.87220   0.77116   0.00000  Uiso   1.00
H175   H     0.74289   0.57200   0.52092   0.00000  Uiso   1.00
O176   O     0.53459   0.46907   0.14093   0.00000  Uiso   1.00
O177   O     0.69677   0.91769   0.63727   0.00000  Uiso   1.00
O178   O     0.47644   0.52383   0.30896   0.00000  Uiso   1.00
N179   N     0.25357   0.50580   0.94840   0.00000  Uiso   1.00
N180   N     0.65659   0.82550   0.58951   0.00000  Uiso   1.00
N181   N     0.78695   0.54485   0.35553   0.00000  Uiso   1.00
N182   N     0.26066   0.52873   0.07753   0.00000  Uiso   1.00
N183   N     0.66368   0.84843   0.71864   0.00000  Uiso   1.00
N184   N     0.79403   0.56778   0.48466   0.00000  Uiso   1.00
