data_job_04089
_audit_creation_date              2018-12-19
_audit_creation_method            'Materials Studio'
_symmetry_space_group_name_H-M    'P1'
_symmetry_Int_Tables_number       1
_symmetry_cell_setting            triclinic
loop_
_symmetry_equiv_pos_as_xyz
  x,y,z
_cell_length_a                    21.0450
_cell_length_b                    21.0450
_cell_length_c                    12.4471
_cell_angle_alpha                 90.0000
_cell_angle_beta                  90.0000
_cell_angle_gamma                 90.0000
loop_
_atom_site_label
_atom_site_type_symbol
_atom_site_fract_x
_atom_site_fract_y
_atom_site_fract_z
_atom_site_U_iso_or_equiv
_atom_site_adp_type
_atom_site_occupancy
C1     C     0.21823   0.84977   0.91250   0.00000  Uiso   1.00
C2     C     0.18794   0.84295   0.02319   0.00000  Uiso   1.00
C3     C     0.19157   0.78972   0.08872   0.00000  Uiso   1.00
C4     C     0.16060   0.79288   0.18706   0.00000  Uiso   1.00
C5     C     0.11861   0.77398   0.35411   0.00000  Uiso   1.00
C6     C     0.16426   0.86645   0.83576   0.00000  Uiso   1.00
C7     C     0.14801   0.83298   0.74369   0.00000  Uiso   1.00
C8     C     0.09711   0.85592   0.68425   0.00000  Uiso   1.00
C9     C     0.01840   0.87354   0.56027   0.00000  Uiso   1.00
C10    C     0.26037   0.90862   0.91836   0.00000  Uiso   1.00
C11    C     0.32491   0.91062   0.89573   0.00000  Uiso   1.00
C12    C     0.35492   0.96907   0.90581   0.00000  Uiso   1.00
C13    C     0.42542   0.05217   0.91009   0.00000  Uiso   1.00
C14    C     0.15676   0.95002   0.97061   0.00000  Uiso   1.00
C15    C     0.15455   0.89740   0.05475   0.00000  Uiso   1.00
C16    C     0.12356   0.90064   0.15302   0.00000  Uiso   1.00
C17    C     0.12715   0.84742   0.21869   0.00000  Uiso   1.00
C18    C     0.13088   0.92090   0.86732   0.00000  Uiso   1.00
C19    C     0.08000   0.94389   0.80799   0.00000  Uiso   1.00
C20    C     0.06366   0.91047   0.71587   0.00000  Uiso   1.00
C21    C     0.22698   0.96307   0.94993   0.00000  Uiso   1.00
C22    C     0.25690   0.02153   0.96004   0.00000  Uiso   1.00
C23    C     0.32147   0.02362   0.93743   0.00000  Uiso   1.00
H24    H     0.24422   0.80738   0.88791   0.00000  Uiso   1.00
H25    H     0.21741   0.74759   0.06426   0.00000  Uiso   1.00
H26    H     0.17386   0.79085   0.71928   0.00000  Uiso   1.00
H27    H     0.35073   0.86847   0.87130   0.00000  Uiso   1.00
H28    H     0.17294   0.70531   0.27367   0.00000  Uiso   1.00
H29    H     0.08112   0.79653   0.54625   0.00000  Uiso   1.00
H30    H     0.45409   0.96022   0.86681   0.00000  Uiso   1.00
H31    H     0.13077   0.99241   0.99518   0.00000  Uiso   1.00
H32    H     0.09773   0.94278   0.17743   0.00000  Uiso   1.00
H33    H     0.05417   0.98604   0.83244   0.00000  Uiso   1.00
H34    H     0.23105   0.06366   0.98446   0.00000  Uiso   1.00
H35    H     0.07580   0.86373   0.36552   0.00000  Uiso   1.00
H36    H     0.98398   0.95495   0.63809   0.00000  Uiso   1.00
H37    H     0.35695   0.11864   0.95866   0.00000  Uiso   1.00
O38    O     0.10466   0.74852   0.43753   0.00000  Uiso   1.00
O39    O     0.98421   0.86821   0.48317   0.00000  Uiso   1.00
O40    O     0.47353   0.08296   0.90374   0.00000  Uiso   1.00
N41    N     0.15462   0.74941   0.27029   0.00000  Uiso   1.00
N42    N     0.06877   0.83469   0.59020   0.00000  Uiso   1.00
N43    N     0.41746   0.98773   0.88987   0.00000  Uiso   1.00
N44    N     0.10235   0.83465   0.31971   0.00000  Uiso   1.00
N45    N     0.01650   0.91994   0.63962   0.00000  Uiso   1.00
N46    N     0.36519   0.07297   0.93929   0.00000  Uiso   1.00
C47    C     0.71823   0.34977   0.41250   0.00000  Uiso   1.00
C48    C     0.68794   0.34295   0.52319   0.00000  Uiso   1.00
C49    C     0.69157   0.28972   0.58872   0.00000  Uiso   1.00
C50    C     0.66060   0.29288   0.68706   0.00000  Uiso   1.00
C51    C     0.61861   0.27398   0.85411   0.00000  Uiso   1.00
C52    C     0.66426   0.36645   0.33576   0.00000  Uiso   1.00
C53    C     0.64801   0.33298   0.24369   0.00000  Uiso   1.00
C54    C     0.59711   0.35592   0.18425   0.00000  Uiso   1.00
C55    C     0.51840   0.37354   0.06027   0.00000  Uiso   1.00
C56    C     0.76037   0.40862   0.41836   0.00000  Uiso   1.00
C57    C     0.82491   0.41062   0.39573   0.00000  Uiso   1.00
C58    C     0.85492   0.46907   0.40581   0.00000  Uiso   1.00
C59    C     0.92542   0.55217   0.41009   0.00000  Uiso   1.00
C60    C     0.65676   0.45002   0.47061   0.00000  Uiso   1.00
C61    C     0.65455   0.39740   0.55475   0.00000  Uiso   1.00
C62    C     0.62356   0.40064   0.65302   0.00000  Uiso   1.00
C63    C     0.62715   0.34742   0.71869   0.00000  Uiso   1.00
C64    C     0.63088   0.42090   0.36732   0.00000  Uiso   1.00
C65    C     0.58000   0.44389   0.30799   0.00000  Uiso   1.00
C66    C     0.56366   0.41047   0.21587   0.00000  Uiso   1.00
C67    C     0.72698   0.46307   0.44993   0.00000  Uiso   1.00
C68    C     0.75690   0.52153   0.46004   0.00000  Uiso   1.00
C69    C     0.82147   0.52362   0.43743   0.00000  Uiso   1.00
H70    H     0.74422   0.30738   0.38791   0.00000  Uiso   1.00
H71    H     0.71741   0.24759   0.56426   0.00000  Uiso   1.00
H72    H     0.67386   0.29085   0.21928   0.00000  Uiso   1.00
H73    H     0.85073   0.36847   0.37130   0.00000  Uiso   1.00
H74    H     0.67294   0.20531   0.77367   0.00000  Uiso   1.00
H75    H     0.58112   0.29653   0.04625   0.00000  Uiso   1.00
H76    H     0.95409   0.46022   0.36681   0.00000  Uiso   1.00
H77    H     0.63077   0.49241   0.49518   0.00000  Uiso   1.00
H78    H     0.59773   0.44278   0.67743   0.00000  Uiso   1.00
H79    H     0.55417   0.48604   0.33244   0.00000  Uiso   1.00
H80    H     0.73105   0.56366   0.48446   0.00000  Uiso   1.00
H81    H     0.57580   0.36373   0.86552   0.00000  Uiso   1.00
H82    H     0.48398   0.45495   0.13809   0.00000  Uiso   1.00
H83    H     0.85695   0.61864   0.45866   0.00000  Uiso   1.00
O84    O     0.60466   0.24852   0.93753   0.00000  Uiso   1.00
O85    O     0.48421   0.36821   0.98317   0.00000  Uiso   1.00
O86    O     0.97353   0.58296   0.40374   0.00000  Uiso   1.00
N87    N     0.65462   0.24941   0.77029   0.00000  Uiso   1.00
N88    N     0.56877   0.33469   0.09020   0.00000  Uiso   1.00
N89    N     0.91746   0.48773   0.38987   0.00000  Uiso   1.00
N90    N     0.60235   0.33465   0.81971   0.00000  Uiso   1.00
N91    N     0.51650   0.41994   0.13962   0.00000  Uiso   1.00
N92    N     0.86519   0.57297   0.43929   0.00000  Uiso   1.00
C93    C     0.78177   0.15023   0.91250   0.00000  Uiso   1.00
C94    C     0.81206   0.15705   0.02319   0.00000  Uiso   1.00
C95    C     0.80843   0.21028   0.08872   0.00000  Uiso   1.00
C96    C     0.83940   0.20712   0.18706   0.00000  Uiso   1.00
C97    C     0.88139   0.22602   0.35411   0.00000  Uiso   1.00
C98    C     0.83574   0.13355   0.83576   0.00000  Uiso   1.00
C99    C     0.85199   0.16702   0.74369   0.00000  Uiso   1.00
C100   C     0.90289   0.14408   0.68425   0.00000  Uiso   1.00
C101   C     0.98160   0.12646   0.56027   0.00000  Uiso   1.00
C102   C     0.73963   0.09138   0.91836   0.00000  Uiso   1.00
C103   C     0.67509   0.08938   0.89573   0.00000  Uiso   1.00
C104   C     0.64508   0.03093   0.90581   0.00000  Uiso   1.00
C105   C     0.57458   0.94783   0.91009   0.00000  Uiso   1.00
C106   C     0.84324   0.04998   0.97061   0.00000  Uiso   1.00
C107   C     0.84545   0.10260   0.05475   0.00000  Uiso   1.00
C108   C     0.87644   0.09936   0.15302   0.00000  Uiso   1.00
C109   C     0.87285   0.15258   0.21869   0.00000  Uiso   1.00
C110   C     0.86912   0.07910   0.86732   0.00000  Uiso   1.00
C111   C     0.92000   0.05611   0.80799   0.00000  Uiso   1.00
C112   C     0.93634   0.08953   0.71587   0.00000  Uiso   1.00
C113   C     0.77302   0.03693   0.94993   0.00000  Uiso   1.00
C114   C     0.74310   0.97847   0.96004   0.00000  Uiso   1.00
C115   C     0.67853   0.97638   0.93743   0.00000  Uiso   1.00
H116   H     0.75578   0.19262   0.88791   0.00000  Uiso   1.00
H117   H     0.78259   0.25241   0.06426   0.00000  Uiso   1.00
H118   H     0.82614   0.20915   0.71928   0.00000  Uiso   1.00
H119   H     0.64927   0.13153   0.87130   0.00000  Uiso   1.00
H120   H     0.82706   0.29469   0.27367   0.00000  Uiso   1.00
H121   H     0.91888   0.20347   0.54625   0.00000  Uiso   1.00
H122   H     0.54591   0.03978   0.86681   0.00000  Uiso   1.00
H123   H     0.86923   0.00759   0.99518   0.00000  Uiso   1.00
H124   H     0.90227   0.05722   0.17743   0.00000  Uiso   1.00
H125   H     0.94583   0.01396   0.83244   0.00000  Uiso   1.00
H126   H     0.76895   0.93634   0.98446   0.00000  Uiso   1.00
H127   H     0.92420   0.13627   0.36552   0.00000  Uiso   1.00
H128   H     0.01602   0.04505   0.63809   0.00000  Uiso   1.00
H129   H     0.64305   0.88136   0.95866   0.00000  Uiso   1.00
O130   O     0.89534   0.25148   0.43753   0.00000  Uiso   1.00
O131   O     0.01579   0.13179   0.48317   0.00000  Uiso   1.00
O132   O     0.52647   0.91704   0.90374   0.00000  Uiso   1.00
N133   N     0.84538   0.25059   0.27029   0.00000  Uiso   1.00
N134   N     0.93123   0.16531   0.59020   0.00000  Uiso   1.00
N135   N     0.58254   0.01227   0.88987   0.00000  Uiso   1.00
N136   N     0.89765   0.16535   0.31971   0.00000  Uiso   1.00
N137   N     0.98350   0.08006   0.63962   0.00000  Uiso   1.00
N138   N     0.63481   0.92703   0.93929   0.00000  Uiso   1.00
C139   C     0.28177   0.65023   0.41250   0.00000  Uiso   1.00
C140   C     0.31206   0.65705   0.52319   0.00000  Uiso   1.00
C141   C     0.30843   0.71028   0.58872   0.00000  Uiso   1.00
C142   C     0.33940   0.70712   0.68706   0.00000  Uiso   1.00
C143   C     0.38139   0.72602   0.85411   0.00000  Uiso   1.00
C144   C     0.33574   0.63355   0.33576   0.00000  Uiso   1.00
C145   C     0.35199   0.66702   0.24369   0.00000  Uiso   1.00
C146   C     0.40289   0.64408   0.18425   0.00000  Uiso   1.00
C147   C     0.48160   0.62646   0.06027   0.00000  Uiso   1.00
C148   C     0.23963   0.59138   0.41836   0.00000  Uiso   1.00
C149   C     0.17509   0.58938   0.39573   0.00000  Uiso   1.00
C150   C     0.14508   0.53093   0.40581   0.00000  Uiso   1.00
C151   C     0.07458   0.44783   0.41009   0.00000  Uiso   1.00
C152   C     0.34324   0.54998   0.47061   0.00000  Uiso   1.00
C153   C     0.34545   0.60260   0.55475   0.00000  Uiso   1.00
C154   C     0.37644   0.59936   0.65302   0.00000  Uiso   1.00
C155   C     0.37285   0.65258   0.71869   0.00000  Uiso   1.00
C156   C     0.36912   0.57910   0.36732   0.00000  Uiso   1.00
C157   C     0.42000   0.55611   0.30799   0.00000  Uiso   1.00
C158   C     0.43634   0.58953   0.21587   0.00000  Uiso   1.00
C159   C     0.27302   0.53693   0.44993   0.00000  Uiso   1.00
C160   C     0.24310   0.47847   0.46004   0.00000  Uiso   1.00
C161   C     0.17853   0.47638   0.43743   0.00000  Uiso   1.00
H162   H     0.25578   0.69262   0.38791   0.00000  Uiso   1.00
H163   H     0.28259   0.75241   0.56426   0.00000  Uiso   1.00
H164   H     0.32614   0.70915   0.21928   0.00000  Uiso   1.00
H165   H     0.14927   0.63153   0.37130   0.00000  Uiso   1.00
H166   H     0.32706   0.79469   0.77367   0.00000  Uiso   1.00
H167   H     0.41888   0.70347   0.04625   0.00000  Uiso   1.00
H168   H     0.04591   0.53978   0.36681   0.00000  Uiso   1.00
H169   H     0.36923   0.50759   0.49518   0.00000  Uiso   1.00
H170   H     0.40227   0.55722   0.67743   0.00000  Uiso   1.00
H171   H     0.44583   0.51396   0.33244   0.00000  Uiso   1.00
H172   H     0.26895   0.43634   0.48446   0.00000  Uiso   1.00
H173   H     0.42420   0.63627   0.86552   0.00000  Uiso   1.00
H174   H     0.51602   0.54505   0.13809   0.00000  Uiso   1.00
H175   H     0.14305   0.38136   0.45866   0.00000  Uiso   1.00
O176   O     0.39534   0.75148   0.93753   0.00000  Uiso   1.00
O177   O     0.51579   0.63179   0.98317   0.00000  Uiso   1.00
O178   O     0.02647   0.41704   0.40374   0.00000  Uiso   1.00
N179   N     0.34538   0.75059   0.77029   0.00000  Uiso   1.00
N180   N     0.43123   0.66531   0.09020   0.00000  Uiso   1.00
N181   N     0.08254   0.51227   0.38987   0.00000  Uiso   1.00
N182   N     0.39765   0.66535   0.81971   0.00000  Uiso   1.00
N183   N     0.48350   0.58006   0.13962   0.00000  Uiso   1.00
N184   N     0.13481   0.42703   0.43929   0.00000  Uiso   1.00
C185   C     0.84977   0.78177   0.08750   0.00000  Uiso   1.00
C186   C     0.84295   0.81206   0.97681   0.00000  Uiso   1.00
C187   C     0.78972   0.80843   0.91128   0.00000  Uiso   1.00
C188   C     0.79288   0.83940   0.81294   0.00000  Uiso   1.00
C189   C     0.77398   0.88139   0.64589   0.00000  Uiso   1.00
C190   C     0.86645   0.83574   0.16424   0.00000  Uiso   1.00
C191   C     0.83298   0.85199   0.25631   0.00000  Uiso   1.00
C192   C     0.85592   0.90289   0.31575   0.00000  Uiso   1.00
C193   C     0.87354   0.98160   0.43973   0.00000  Uiso   1.00
C194   C     0.90862   0.73963   0.08164   0.00000  Uiso   1.00
C195   C     0.91062   0.67509   0.10427   0.00000  Uiso   1.00
C196   C     0.96907   0.64508   0.09419   0.00000  Uiso   1.00
C197   C     0.05217   0.57458   0.08991   0.00000  Uiso   1.00
C198   C     0.95002   0.84324   0.02939   0.00000  Uiso   1.00
C199   C     0.89740   0.84545   0.94525   0.00000  Uiso   1.00
C200   C     0.90064   0.87644   0.84698   0.00000  Uiso   1.00
C201   C     0.84742   0.87285   0.78131   0.00000  Uiso   1.00
C202   C     0.92090   0.86912   0.13268   0.00000  Uiso   1.00
C203   C     0.94389   0.92000   0.19201   0.00000  Uiso   1.00
C204   C     0.91047   0.93634   0.28413   0.00000  Uiso   1.00
C205   C     0.96307   0.77302   0.05007   0.00000  Uiso   1.00
C206   C     0.02153   0.74310   0.03996   0.00000  Uiso   1.00
C207   C     0.02362   0.67853   0.06257   0.00000  Uiso   1.00
H208   H     0.80738   0.75578   0.11209   0.00000  Uiso   1.00
H209   H     0.74759   0.78259   0.93574   0.00000  Uiso   1.00
H210   H     0.79085   0.82614   0.28072   0.00000  Uiso   1.00
H211   H     0.86847   0.64927   0.12870   0.00000  Uiso   1.00
H212   H     0.70531   0.82706   0.72633   0.00000  Uiso   1.00
H213   H     0.79653   0.91888   0.45375   0.00000  Uiso   1.00
H214   H     0.96022   0.54591   0.13319   0.00000  Uiso   1.00
H215   H     0.99241   0.86923   0.00482   0.00000  Uiso   1.00
H216   H     0.94278   0.90227   0.82257   0.00000  Uiso   1.00
H217   H     0.98604   0.94583   0.16756   0.00000  Uiso   1.00
H218   H     0.06366   0.76895   0.01554   0.00000  Uiso   1.00
H219   H     0.86373   0.92420   0.63448   0.00000  Uiso   1.00
H220   H     0.95495   0.01602   0.36191   0.00000  Uiso   1.00
H221   H     0.11864   0.64305   0.04134   0.00000  Uiso   1.00
O222   O     0.74852   0.89534   0.56247   0.00000  Uiso   1.00
O223   O     0.86821   0.01579   0.51683   0.00000  Uiso   1.00
O224   O     0.08296   0.52647   0.09626   0.00000  Uiso   1.00
N225   N     0.74941   0.84538   0.72971   0.00000  Uiso   1.00
N226   N     0.83469   0.93123   0.40980   0.00000  Uiso   1.00
N227   N     0.98773   0.58254   0.11013   0.00000  Uiso   1.00
N228   N     0.83465   0.89765   0.68029   0.00000  Uiso   1.00
N229   N     0.91994   0.98350   0.36038   0.00000  Uiso   1.00
N230   N     0.07297   0.63481   0.06071   0.00000  Uiso   1.00
C231   C     0.34977   0.28177   0.58750   0.00000  Uiso   1.00
C232   C     0.34295   0.31206   0.47681   0.00000  Uiso   1.00
C233   C     0.28972   0.30843   0.41128   0.00000  Uiso   1.00
C234   C     0.29288   0.33940   0.31294   0.00000  Uiso   1.00
C235   C     0.27398   0.38139   0.14589   0.00000  Uiso   1.00
C236   C     0.36645   0.33574   0.66424   0.00000  Uiso   1.00
C237   C     0.33298   0.35199   0.75631   0.00000  Uiso   1.00
C238   C     0.35592   0.40289   0.81575   0.00000  Uiso   1.00
C239   C     0.37354   0.48160   0.93973   0.00000  Uiso   1.00
C240   C     0.40862   0.23963   0.58164   0.00000  Uiso   1.00
C241   C     0.41062   0.17509   0.60427   0.00000  Uiso   1.00
C242   C     0.46907   0.14508   0.59419   0.00000  Uiso   1.00
C243   C     0.55217   0.07458   0.58991   0.00000  Uiso   1.00
C244   C     0.45002   0.34324   0.52939   0.00000  Uiso   1.00
C245   C     0.39740   0.34545   0.44525   0.00000  Uiso   1.00
C246   C     0.40064   0.37644   0.34698   0.00000  Uiso   1.00
C247   C     0.34742   0.37285   0.28131   0.00000  Uiso   1.00
C248   C     0.42090   0.36912   0.63268   0.00000  Uiso   1.00
C249   C     0.44389   0.42000   0.69201   0.00000  Uiso   1.00
C250   C     0.41047   0.43634   0.78413   0.00000  Uiso   1.00
C251   C     0.46307   0.27302   0.55007   0.00000  Uiso   1.00
C252   C     0.52153   0.24310   0.53996   0.00000  Uiso   1.00
C253   C     0.52362   0.17853   0.56257   0.00000  Uiso   1.00
H254   H     0.30738   0.25578   0.61209   0.00000  Uiso   1.00
H255   H     0.24759   0.28259   0.43574   0.00000  Uiso   1.00
H256   H     0.29085   0.32614   0.78072   0.00000  Uiso   1.00
H257   H     0.36847   0.14927   0.62870   0.00000  Uiso   1.00
H258   H     0.20531   0.32706   0.22633   0.00000  Uiso   1.00
H259   H     0.29653   0.41888   0.95375   0.00000  Uiso   1.00
H260   H     0.46022   0.04591   0.63319   0.00000  Uiso   1.00
H261   H     0.49241   0.36923   0.50482   0.00000  Uiso   1.00
H262   H     0.44278   0.40227   0.32257   0.00000  Uiso   1.00
H263   H     0.48604   0.44583   0.66756   0.00000  Uiso   1.00
H264   H     0.56366   0.26895   0.51554   0.00000  Uiso   1.00
H265   H     0.36373   0.42420   0.13448   0.00000  Uiso   1.00
H266   H     0.45495   0.51602   0.86191   0.00000  Uiso   1.00
H267   H     0.61864   0.14305   0.54134   0.00000  Uiso   1.00
O268   O     0.24852   0.39534   0.06247   0.00000  Uiso   1.00
O269   O     0.36821   0.51579   0.01683   0.00000  Uiso   1.00
O270   O     0.58296   0.02647   0.59626   0.00000  Uiso   1.00
N271   N     0.24941   0.34538   0.22971   0.00000  Uiso   1.00
N272   N     0.33469   0.43123   0.90980   0.00000  Uiso   1.00
N273   N     0.48773   0.08254   0.61013   0.00000  Uiso   1.00
N274   N     0.33465   0.39765   0.18029   0.00000  Uiso   1.00
N275   N     0.41994   0.48350   0.86038   0.00000  Uiso   1.00
N276   N     0.57297   0.13481   0.56071   0.00000  Uiso   1.00
C277   C     0.15023   0.21823   0.08750   0.00000  Uiso   1.00
C278   C     0.15705   0.18794   0.97681   0.00000  Uiso   1.00
C279   C     0.21028   0.19157   0.91128   0.00000  Uiso   1.00
C280   C     0.20712   0.16060   0.81294   0.00000  Uiso   1.00
C281   C     0.22602   0.11861   0.64589   0.00000  Uiso   1.00
C282   C     0.13355   0.16426   0.16424   0.00000  Uiso   1.00
C283   C     0.16702   0.14801   0.25631   0.00000  Uiso   1.00
C284   C     0.14408   0.09711   0.31575   0.00000  Uiso   1.00
C285   C     0.12646   0.01840   0.43973   0.00000  Uiso   1.00
C286   C     0.09138   0.26037   0.08164   0.00000  Uiso   1.00
C287   C     0.08938   0.32491   0.10427   0.00000  Uiso   1.00
C288   C     0.03093   0.35492   0.09419   0.00000  Uiso   1.00
C289   C     0.94783   0.42542   0.08991   0.00000  Uiso   1.00
C290   C     0.04998   0.15676   0.02939   0.00000  Uiso   1.00
C291   C     0.10260   0.15455   0.94525   0.00000  Uiso   1.00
C292   C     0.09936   0.12356   0.84698   0.00000  Uiso   1.00
C293   C     0.15258   0.12715   0.78131   0.00000  Uiso   1.00
C294   C     0.07910   0.13088   0.13268   0.00000  Uiso   1.00
C295   C     0.05611   0.08000   0.19201   0.00000  Uiso   1.00
C296   C     0.08953   0.06366   0.28413   0.00000  Uiso   1.00
C297   C     0.03693   0.22698   0.05007   0.00000  Uiso   1.00
C298   C     0.97847   0.25690   0.03996   0.00000  Uiso   1.00
C299   C     0.97638   0.32147   0.06257   0.00000  Uiso   1.00
H300   H     0.19262   0.24422   0.11209   0.00000  Uiso   1.00
H301   H     0.25241   0.21741   0.93574   0.00000  Uiso   1.00
H302   H     0.20915   0.17386   0.28072   0.00000  Uiso   1.00
H303   H     0.13153   0.35073   0.12870   0.00000  Uiso   1.00
H304   H     0.29469   0.17294   0.72633   0.00000  Uiso   1.00
H305   H     0.20347   0.08112   0.45375   0.00000  Uiso   1.00
H306   H     0.03978   0.45409   0.13319   0.00000  Uiso   1.00
H307   H     0.00759   0.13077   0.00482   0.00000  Uiso   1.00
H308   H     0.05722   0.09773   0.82257   0.00000  Uiso   1.00
H309   H     0.01396   0.05417   0.16756   0.00000  Uiso   1.00
H310   H     0.93634   0.23105   0.01554   0.00000  Uiso   1.00
H311   H     0.13627   0.07580   0.63448   0.00000  Uiso   1.00
H312   H     0.04505   0.98398   0.36191   0.00000  Uiso   1.00
H313   H     0.88136   0.35695   0.04134   0.00000  Uiso   1.00
O314   O     0.25148   0.10466   0.56247   0.00000  Uiso   1.00
O315   O     0.13179   0.98421   0.51683   0.00000  Uiso   1.00
O316   O     0.91704   0.47353   0.09626   0.00000  Uiso   1.00
N317   N     0.25059   0.15462   0.72971   0.00000  Uiso   1.00
N318   N     0.16531   0.06877   0.40980   0.00000  Uiso   1.00
N319   N     0.01227   0.41746   0.11013   0.00000  Uiso   1.00
N320   N     0.16535   0.10235   0.68029   0.00000  Uiso   1.00
N321   N     0.08006   0.01650   0.36038   0.00000  Uiso   1.00
N322   N     0.92703   0.36519   0.06071   0.00000  Uiso   1.00
C323   C     0.65023   0.71823   0.58750   0.00000  Uiso   1.00
C324   C     0.65705   0.68794   0.47681   0.00000  Uiso   1.00
C325   C     0.71028   0.69157   0.41128   0.00000  Uiso   1.00
C326   C     0.70712   0.66060   0.31294   0.00000  Uiso   1.00
C327   C     0.72602   0.61861   0.14589   0.00000  Uiso   1.00
C328   C     0.63355   0.66426   0.66424   0.00000  Uiso   1.00
C329   C     0.66702   0.64801   0.75631   0.00000  Uiso   1.00
C330   C     0.64408   0.59711   0.81575   0.00000  Uiso   1.00
C331   C     0.62646   0.51840   0.93973   0.00000  Uiso   1.00
C332   C     0.59138   0.76037   0.58164   0.00000  Uiso   1.00
C333   C     0.58938   0.82491   0.60427   0.00000  Uiso   1.00
C334   C     0.53093   0.85492   0.59419   0.00000  Uiso   1.00
C335   C     0.44783   0.92542   0.58991   0.00000  Uiso   1.00
C336   C     0.54998   0.65676   0.52939   0.00000  Uiso   1.00
C337   C     0.60260   0.65455   0.44525   0.00000  Uiso   1.00
C338   C     0.59936   0.62356   0.34698   0.00000  Uiso   1.00
C339   C     0.65258   0.62715   0.28131   0.00000  Uiso   1.00
C340   C     0.57910   0.63088   0.63268   0.00000  Uiso   1.00
C341   C     0.55611   0.58000   0.69201   0.00000  Uiso   1.00
C342   C     0.58953   0.56366   0.78413   0.00000  Uiso   1.00
C343   C     0.53693   0.72698   0.55007   0.00000  Uiso   1.00
C344   C     0.47847   0.75690   0.53996   0.00000  Uiso   1.00
C345   C     0.47638   0.82147   0.56257   0.00000  Uiso   1.00
H346   H     0.69262   0.74422   0.61209   0.00000  Uiso   1.00
H347   H     0.75241   0.71741   0.43574   0.00000  Uiso   1.00
H348   H     0.70915   0.67386   0.78072   0.00000  Uiso   1.00
H349   H     0.63153   0.85073   0.62870   0.00000  Uiso   1.00
H350   H     0.79469   0.67294   0.22633   0.00000  Uiso   1.00
H351   H     0.70347   0.58112   0.95375   0.00000  Uiso   1.00
H352   H     0.53978   0.95409   0.63319   0.00000  Uiso   1.00
H353   H     0.50759   0.63077   0.50482   0.00000  Uiso   1.00
H354   H     0.55722   0.59773   0.32257   0.00000  Uiso   1.00
H355   H     0.51396   0.55417   0.66756   0.00000  Uiso   1.00
H356   H     0.43634   0.73105   0.51554   0.00000  Uiso   1.00
H357   H     0.63627   0.57580   0.13448   0.00000  Uiso   1.00
H358   H     0.54505   0.48398   0.86191   0.00000  Uiso   1.00
H359   H     0.38136   0.85695   0.54134   0.00000  Uiso   1.00
O360   O     0.75148   0.60466   0.06247   0.00000  Uiso   1.00
O361   O     0.63179   0.48421   0.01683   0.00000  Uiso   1.00
O362   O     0.41704   0.97353   0.59626   0.00000  Uiso   1.00
N363   N     0.75059   0.65462   0.22971   0.00000  Uiso   1.00
N364   N     0.66531   0.56877   0.90980   0.00000  Uiso   1.00
N365   N     0.51227   0.91746   0.61013   0.00000  Uiso   1.00
N366   N     0.66535   0.60235   0.18029   0.00000  Uiso   1.00
N367   N     0.58006   0.51650   0.86038   0.00000  Uiso   1.00
N368   N     0.42703   0.86519   0.56071   0.00000  Uiso   1.00
