data_job_06138
_audit_creation_date              2018-12-19
_audit_creation_method            'Materials Studio'
_symmetry_space_group_name_H-M    'P1'
_symmetry_Int_Tables_number       1
_symmetry_cell_setting            triclinic
loop_
_symmetry_equiv_pos_as_xyz
  x,y,z
_cell_length_a                    8.3046
_cell_length_b                    22.1012
_cell_length_c                    23.2492
_cell_angle_alpha                 116.8837
_cell_angle_beta                  99.8238
_cell_angle_gamma                 92.4003
loop_
_atom_site_label
_atom_site_type_symbol
_atom_site_fract_x
_atom_site_fract_y
_atom_site_fract_z
_atom_site_U_iso_or_equiv
_atom_site_adp_type
_atom_site_occupancy
C1     C     0.10779   0.36600   0.22039   0.00000  Uiso   1.00
C2     C     0.15815   0.30538   0.16424   0.00000  Uiso   1.00
C3     C     0.05735   0.24449   0.12032   0.00000  Uiso   1.00
C4     C     0.12659   0.19531   0.07245   0.00000  Uiso   1.00
C5     C     0.17984   0.09943   0.98586   0.00000  Uiso   1.00
C6     C     0.23004   0.37932   0.28311   0.00000  Uiso   1.00
C7     C     0.18966   0.38061   0.33914   0.00000  Uiso   1.00
C8     C     0.31942   0.39368   0.39133   0.00000  Uiso   1.00
C9     C     0.48427   0.41265   0.48930   0.00000  Uiso   1.00
C10    C     0.14231   0.42765   0.20907   0.00000  Uiso   1.00
C11    C     0.02818   0.46959   0.20286   0.00000  Uiso   1.00
C12    C     0.08409   0.52336   0.19272   0.00000  Uiso   1.00
C13    C     0.11272   0.61737   0.17574   0.00000  Uiso   1.00
C14    C     0.41003   0.38694   0.21347   0.00000  Uiso   1.00
C15    C     0.32232   0.31676   0.16049   0.00000  Uiso   1.00
C16    C     0.39173   0.26766   0.11266   0.00000  Uiso   1.00
C17    C     0.29104   0.20670   0.06868   0.00000  Uiso   1.00
C18    C     0.39420   0.39070   0.27935   0.00000  Uiso   1.00
C19    C     0.52405   0.40378   0.33148   0.00000  Uiso   1.00
C20    C     0.48388   0.40508   0.38756   0.00000  Uiso   1.00
C21    C     0.30647   0.43903   0.20531   0.00000  Uiso   1.00
C22    C     0.36257   0.49275   0.19519   0.00000  Uiso   1.00
C23    C     0.24855   0.53476   0.18896   0.00000  Uiso   1.00
H24    H     0.97999   0.35715   0.22332   0.00000  Uiso   1.00
H25    H     0.93031   0.23570   0.12325   0.00000  Uiso   1.00
H26    H     0.06261   0.37181   0.34203   0.00000  Uiso   1.00
H27    H     0.90115   0.46077   0.20577   0.00000  Uiso   1.00
H28    H     0.94765   0.10606   0.01067   0.00000  Uiso   1.00
H29    H     0.22661   0.39308   0.47199   0.00000  Uiso   1.00
H30    H     0.88614   0.58067   0.18465   0.00000  Uiso   1.00
H31    H     0.53784   0.39580   0.21054   0.00000  Uiso   1.00
H32    H     0.51878   0.27647   0.10977   0.00000  Uiso   1.00
H33    H     0.65107   0.41258   0.32855   0.00000  Uiso   1.00
H34    H     0.48961   0.50154   0.19228   0.00000  Uiso   1.00
H35    H     0.42527   0.13915   0.99972   0.00000  Uiso   1.00
H36    H     0.70422   0.42617   0.46104   0.00000  Uiso   1.00
H37    H     0.36376   0.61376   0.17370   0.00000  Uiso   1.00
O38    O     0.16387   0.04340   0.93915   0.00000  Uiso   1.00
O39    O     0.52984   0.41997   0.54439   0.00000  Uiso   1.00
O40    O     0.08316   0.66608   0.16740   0.00000  Uiso   1.00
N41    N     0.06266   0.13023   0.02192   0.00000  Uiso   1.00
N42    N     0.32347   0.39856   0.45322   0.00000  Uiso   1.00
N43    N     0.00518   0.57396   0.18460   0.00000  Uiso   1.00
N44    N     0.31967   0.14804   0.01603   0.00000  Uiso   1.00
N45    N     0.58047   0.41637   0.44733   0.00000  Uiso   1.00
N46    N     0.26218   0.59176   0.17871   0.00000  Uiso   1.00
C47    C     0.26702   0.77247   0.15508   0.00000  Uiso   1.00
C48    C     0.32393   0.83529   0.14877   0.00000  Uiso   1.00
C49    C     0.22221   0.87802   0.13609   0.00000  Uiso   1.00
C50    C     0.29815   0.93279   0.13214   0.00000  Uiso   1.00
C51    C     0.36041   0.02854   0.12101   0.00000  Uiso   1.00
C52    C     0.33468   0.71273   0.10451   0.00000  Uiso   1.00
C53    C     0.24200   0.65240   0.05462   0.00000  Uiso   1.00
C54    C     0.32701   0.60399   0.01343   0.00000  Uiso   1.00
C55    C     0.40598   0.50944   0.93362   0.00000  Uiso   1.00
C56    C     0.35884   0.78399   0.22261   0.00000  Uiso   1.00
C57    C     0.28649   0.78356   0.27203   0.00000  Uiso   1.00
C58    C     0.39184   0.79513   0.33027   0.00000  Uiso   1.00
C59    C     0.50833   0.81123   0.43384   0.00000  Uiso   1.00
C60    C     0.58279   0.79376   0.17062   0.00000  Uiso   1.00
C61    C     0.49544   0.84685   0.15720   0.00000  Uiso   1.00
C62    C     0.57156   0.90156   0.15327   0.00000  Uiso   1.00
C63    C     0.46997   0.94437   0.14059   0.00000  Uiso   1.00
C64    C     0.50619   0.72428   0.11294   0.00000  Uiso   1.00
C65    C     0.59135   0.67595   0.07181   0.00000  Uiso   1.00
C66    C     0.49882   0.61557   0.02188   0.00000  Uiso   1.00
C67    C     0.53036   0.79555   0.23105   0.00000  Uiso   1.00
C68    C     0.63584   0.80711   0.28922   0.00000  Uiso   1.00
C69    C     0.56366   0.80671   0.33872   0.00000  Uiso   1.00
H70    H     0.13350   0.76347   0.14851   0.00000  Uiso   1.00
H71    H     0.08948   0.86905   0.12955   0.00000  Uiso   1.00
H72    H     0.10928   0.64347   0.04811   0.00000  Uiso   1.00
H73    H     0.15376   0.77462   0.26548   0.00000  Uiso   1.00
H74    H     0.11631   0.99119   0.11223   0.00000  Uiso   1.00
H75    H     0.15806   0.51552   0.94052   0.00000  Uiso   1.00
H76    H     0.25186   0.79207   0.39890   0.00000  Uiso   1.00
H77    H     0.71632   0.80275   0.17719   0.00000  Uiso   1.00
H78    H     0.70429   0.91050   0.15981   0.00000  Uiso   1.00
H79    H     0.72408   0.68491   0.07836   0.00000  Uiso   1.00
H80    H     0.76856   0.81605   0.29573   0.00000  Uiso   1.00
H81    H     0.61531   0.02483   0.13678   0.00000  Uiso   1.00
H82    H     0.65705   0.54916   0.96507   0.00000  Uiso   1.00
H83    H     0.75085   0.82570   0.42345   0.00000  Uiso   1.00
O84    O     0.34737   0.07816   0.11253   0.00000  Uiso   1.00
O85    O     0.40214   0.45410   0.88726   0.00000  Uiso   1.00
O86    O     0.52520   0.81692   0.48864   0.00000  Uiso   1.00
N87    N     0.23541   0.98433   0.12041   0.00000  Uiso   1.00
N88    N     0.27443   0.53961   0.95986   0.00000  Uiso   1.00
N89    N     0.36213   0.79814   0.38840   0.00000  Uiso   1.00
N90    N     0.50391   0.00243   0.13362   0.00000  Uiso   1.00
N91    N     0.54294   0.55771   0.97307   0.00000  Uiso   1.00
N92    N     0.63063   0.81624   0.40161   0.00000  Uiso   1.00
C93    C     0.89935   0.83941   0.62293   0.00000  Uiso   1.00
C94    C     0.00890   0.84678   0.68608   0.00000  Uiso   1.00
C95    C     0.95547   0.85366   0.74187   0.00000  Uiso   1.00
C96    C     0.07498   0.85974   0.79453   0.00000  Uiso   1.00
C97    C     0.21971   0.87132   0.89307   0.00000  Uiso   1.00
C98    C     0.96827   0.89725   0.61160   0.00000  Uiso   1.00
C99    C     0.88067   0.94656   0.60476   0.00000  Uiso   1.00
C100   C     0.96598   0.99513   0.59472   0.00000  Uiso   1.00
C101   C     0.04759   0.08504   0.57758   0.00000  Uiso   1.00
C102   C     0.93145   0.77323   0.56722   0.00000  Uiso   1.00
C103   C     0.81289   0.71828   0.52305   0.00000  Uiso   1.00
C104   C     0.86720   0.66244   0.47563   0.00000  Uiso   1.00
C105   C     0.89164   0.55980   0.38958   0.00000  Uiso   1.00
C106   C     0.20662   0.83797   0.61725   0.00000  Uiso   1.00
C107   C     0.17580   0.84599   0.68299   0.00000  Uiso   1.00
C108   C     0.29543   0.85206   0.73558   0.00000  Uiso   1.00
C109   C     0.24218   0.85895   0.79144   0.00000  Uiso   1.00
C110   C     0.13516   0.89646   0.60852   0.00000  Uiso   1.00
C111   C     0.22063   0.94496   0.59848   0.00000  Uiso   1.00
C112   C     0.13318   0.99434   0.59163   0.00000  Uiso   1.00
C113   C     0.09835   0.77245   0.56414   0.00000  Uiso   1.00
C114   C     0.15285   0.71668   0.51677   0.00000  Uiso   1.00
C115   C     0.03440   0.66165   0.47254   0.00000  Uiso   1.00
H116   H     0.76942   0.84003   0.62533   0.00000  Uiso   1.00
H117   H     0.82630   0.85427   0.74424   0.00000  Uiso   1.00
H118   H     0.75151   0.94715   0.60715   0.00000  Uiso   1.00
H119   H     0.68375   0.71891   0.52545   0.00000  Uiso   1.00
H120   H     0.96298   0.86974   0.87472   0.00000  Uiso   1.00
H121   H     0.80526   0.06558   0.58563   0.00000  Uiso   1.00
H122   H     0.66236   0.58427   0.41336   0.00000  Uiso   1.00
H123   H     0.33656   0.83736   0.61485   0.00000  Uiso   1.00
H124   H     0.42457   0.85145   0.73318   0.00000  Uiso   1.00
H125   H     0.34978   0.94434   0.59609   0.00000  Uiso   1.00
H126   H     0.28202   0.71609   0.51440   0.00000  Uiso   1.00
H127   H     0.44856   0.86745   0.86574   0.00000  Uiso   1.00
H128   H     0.29083   0.06329   0.57666   0.00000  Uiso   1.00
H129   H     0.14794   0.58198   0.40439   0.00000  Uiso   1.00
O130   O     0.25343   0.87794   0.94827   0.00000  Uiso   1.00
O131   O     0.04650   0.13486   0.56899   0.00000  Uiso   1.00
O132   O     0.85903   0.50340   0.34298   0.00000  Uiso   1.00
N133   N     0.06518   0.86725   0.85636   0.00000  Uiso   1.00
N134   N     0.91772   0.05036   0.58609   0.00000  Uiso   1.00
N135   N     0.78412   0.60038   0.42502   0.00000  Uiso   1.00
N136   N     0.32646   0.86602   0.85153   0.00000  Uiso   1.00
N137   N     0.17901   0.04912   0.58127   0.00000  Uiso   1.00
N138   N     0.04541   0.59915   0.42019   0.00000  Uiso   1.00
C139   C     0.89221   0.63400   0.77961   0.00000  Uiso   1.00
C140   C     0.84185   0.69462   0.83576   0.00000  Uiso   1.00
C141   C     0.94265   0.75551   0.87968   0.00000  Uiso   1.00
C142   C     0.87341   0.80469   0.92755   0.00000  Uiso   1.00
C143   C     0.82016   0.90057   0.01413   0.00000  Uiso   1.00
C144   C     0.76996   0.62068   0.71689   0.00000  Uiso   1.00
C145   C     0.81034   0.61939   0.66086   0.00000  Uiso   1.00
C146   C     0.68058   0.60632   0.60867   0.00000  Uiso   1.00
C147   C     0.51573   0.58735   0.51069   0.00000  Uiso   1.00
C148   C     0.85769   0.57235   0.79093   0.00000  Uiso   1.00
C149   C     0.97182   0.53041   0.79714   0.00000  Uiso   1.00
C150   C     0.91591   0.47664   0.80728   0.00000  Uiso   1.00
C151   C     0.88728   0.38263   0.82426   0.00000  Uiso   1.00
C152   C     0.58997   0.61306   0.78653   0.00000  Uiso   1.00
C153   C     0.67768   0.68324   0.83951   0.00000  Uiso   1.00
C154   C     0.60827   0.73234   0.88734   0.00000  Uiso   1.00
C155   C     0.70896   0.79330   0.93132   0.00000  Uiso   1.00
C156   C     0.60580   0.60930   0.72065   0.00000  Uiso   1.00
C157   C     0.47595   0.59622   0.66852   0.00000  Uiso   1.00
C158   C     0.51612   0.59492   0.61244   0.00000  Uiso   1.00
C159   C     0.69353   0.56097   0.79469   0.00000  Uiso   1.00
C160   C     0.63743   0.50725   0.80481   0.00000  Uiso   1.00
C161   C     0.75145   0.46524   0.81104   0.00000  Uiso   1.00
H162   H     0.02001   0.64285   0.77668   0.00000  Uiso   1.00
H163   H     0.06969   0.76430   0.87675   0.00000  Uiso   1.00
H164   H     0.93739   0.62819   0.65797   0.00000  Uiso   1.00
H165   H     0.09885   0.53923   0.79423   0.00000  Uiso   1.00
H166   H     0.05235   0.89394   0.98933   0.00000  Uiso   1.00
H167   H     0.77339   0.60692   0.52801   0.00000  Uiso   1.00
H168   H     0.11386   0.41933   0.81535   0.00000  Uiso   1.00
H169   H     0.46216   0.60420   0.78946   0.00000  Uiso   1.00
H170   H     0.48122   0.72353   0.89023   0.00000  Uiso   1.00
H171   H     0.34893   0.58742   0.67145   0.00000  Uiso   1.00
H172   H     0.51038   0.49846   0.80771   0.00000  Uiso   1.00
H173   H     0.57473   0.86085   0.00027   0.00000  Uiso   1.00
H174   H     0.29578   0.57383   0.53895   0.00000  Uiso   1.00
H175   H     0.63624   0.38624   0.82630   0.00000  Uiso   1.00
O176   O     0.83613   0.95660   0.06085   0.00000  Uiso   1.00
O177   O     0.47016   0.58003   0.45561   0.00000  Uiso   1.00
O178   O     0.91684   0.33392   0.83260   0.00000  Uiso   1.00
N179   N     0.93733   0.86977   0.97808   0.00000  Uiso   1.00
N180   N     0.67653   0.60144   0.54678   0.00000  Uiso   1.00
N181   N     0.99482   0.42604   0.81540   0.00000  Uiso   1.00
N182   N     0.68033   0.85196   0.98397   0.00000  Uiso   1.00
N183   N     0.41953   0.58363   0.55267   0.00000  Uiso   1.00
N184   N     0.73782   0.40824   0.82129   0.00000  Uiso   1.00
C185   C     0.73298   0.22752   0.84492   0.00000  Uiso   1.00
C186   C     0.67607   0.16471   0.85123   0.00000  Uiso   1.00
C187   C     0.77779   0.12198   0.86391   0.00000  Uiso   1.00
C188   C     0.70185   0.06721   0.86786   0.00000  Uiso   1.00
C189   C     0.63959   0.97146   0.87899   0.00000  Uiso   1.00
C190   C     0.66532   0.28727   0.89549   0.00000  Uiso   1.00
C191   C     0.75800   0.34760   0.94538   0.00000  Uiso   1.00
C192   C     0.67299   0.39601   0.98657   0.00000  Uiso   1.00
C193   C     0.59402   0.49056   0.06638   0.00000  Uiso   1.00
C194   C     0.64115   0.21601   0.77739   0.00000  Uiso   1.00
C195   C     0.71351   0.21644   0.72797   0.00000  Uiso   1.00
C196   C     0.60816   0.20487   0.66973   0.00000  Uiso   1.00
C197   C     0.49167   0.18877   0.56616   0.00000  Uiso   1.00
C198   C     0.41721   0.20624   0.82938   0.00000  Uiso   1.00
C199   C     0.50456   0.15315   0.84280   0.00000  Uiso   1.00
C200   C     0.42844   0.09844   0.84672   0.00000  Uiso   1.00
C201   C     0.53003   0.05563   0.85941   0.00000  Uiso   1.00
C202   C     0.49381   0.27572   0.88706   0.00000  Uiso   1.00
C203   C     0.40865   0.32405   0.92819   0.00000  Uiso   1.00
C204   C     0.50118   0.38443   0.97812   0.00000  Uiso   1.00
C205   C     0.46964   0.20445   0.76894   0.00000  Uiso   1.00
C206   C     0.36416   0.19289   0.71078   0.00000  Uiso   1.00
C207   C     0.43634   0.19329   0.66128   0.00000  Uiso   1.00
H208   H     0.86650   0.23653   0.85149   0.00000  Uiso   1.00
H209   H     0.91052   0.13095   0.87045   0.00000  Uiso   1.00
H210   H     0.89072   0.35653   0.95189   0.00000  Uiso   1.00
H211   H     0.84624   0.22538   0.73452   0.00000  Uiso   1.00
H212   H     0.88369   0.00881   0.88777   0.00000  Uiso   1.00
H213   H     0.84194   0.48447   0.05948   0.00000  Uiso   1.00
H214   H     0.74814   0.20793   0.60110   0.00000  Uiso   1.00
H215   H     0.28368   0.19725   0.82281   0.00000  Uiso   1.00
H216   H     0.29571   0.08950   0.84019   0.00000  Uiso   1.00
H217   H     0.27592   0.31509   0.92164   0.00000  Uiso   1.00
H218   H     0.23144   0.18395   0.70427   0.00000  Uiso   1.00
H219   H     0.38469   0.97517   0.86322   0.00000  Uiso   1.00
H220   H     0.34295   0.45084   0.03493   0.00000  Uiso   1.00
H221   H     0.24915   0.17430   0.57655   0.00000  Uiso   1.00
O222   O     0.65262   0.92184   0.88747   0.00000  Uiso   1.00
O223   O     0.59786   0.54590   0.11274   0.00000  Uiso   1.00
O224   O     0.47480   0.18308   0.51136   0.00000  Uiso   1.00
N225   N     0.76459   0.01567   0.87959   0.00000  Uiso   1.00
N226   N     0.72557   0.46039   0.04014   0.00000  Uiso   1.00
N227   N     0.63787   0.20186   0.61160   0.00000  Uiso   1.00
N228   N     0.49609   0.99757   0.86638   0.00000  Uiso   1.00
N229   N     0.45706   0.44229   0.02693   0.00000  Uiso   1.00
N230   N     0.36937   0.18376   0.59839   0.00000  Uiso   1.00
C231   C     0.10065   0.16059   0.37707   0.00000  Uiso   1.00
C232   C     0.99110   0.15322   0.31392   0.00000  Uiso   1.00
C233   C     0.04453   0.14634   0.25813   0.00000  Uiso   1.00
C234   C     0.92502   0.14026   0.20547   0.00000  Uiso   1.00
C235   C     0.78029   0.12867   0.10693   0.00000  Uiso   1.00
C236   C     0.03173   0.10275   0.38840   0.00000  Uiso   1.00
C237   C     0.11933   0.05344   0.39524   0.00000  Uiso   1.00
C238   C     0.03402   0.00487   0.40528   0.00000  Uiso   1.00
C239   C     0.95241   0.91496   0.42242   0.00000  Uiso   1.00
C240   C     0.06855   0.22677   0.43278   0.00000  Uiso   1.00
C241   C     0.18711   0.28172   0.47695   0.00000  Uiso   1.00
C242   C     0.13280   0.33756   0.52437   0.00000  Uiso   1.00
C243   C     0.10836   0.44020   0.61042   0.00000  Uiso   1.00
C244   C     0.79338   0.16203   0.38275   0.00000  Uiso   1.00
C245   C     0.82420   0.15401   0.31701   0.00000  Uiso   1.00
C246   C     0.70457   0.14794   0.26441   0.00000  Uiso   1.00
C247   C     0.75782   0.14105   0.20856   0.00000  Uiso   1.00
C248   C     0.86484   0.10353   0.39148   0.00000  Uiso   1.00
C249   C     0.77937   0.05504   0.40152   0.00000  Uiso   1.00
C250   C     0.86682   0.00566   0.40837   0.00000  Uiso   1.00
C251   C     0.90165   0.22755   0.43586   0.00000  Uiso   1.00
C252   C     0.84715   0.28332   0.48323   0.00000  Uiso   1.00
C253   C     0.96560   0.33835   0.52746   0.00000  Uiso   1.00
H254   H     0.23058   0.15997   0.37467   0.00000  Uiso   1.00
H255   H     0.17370   0.14573   0.25576   0.00000  Uiso   1.00
H256   H     0.24849   0.05285   0.39285   0.00000  Uiso   1.00
H257   H     0.31625   0.28109   0.47455   0.00000  Uiso   1.00
H258   H     0.03702   0.13026   0.12528   0.00000  Uiso   1.00
H259   H     0.19474   0.93442   0.41437   0.00000  Uiso   1.00
H260   H     0.33764   0.41573   0.58664   0.00000  Uiso   1.00
H261   H     0.66344   0.16264   0.38515   0.00000  Uiso   1.00
H262   H     0.57543   0.14855   0.26682   0.00000  Uiso   1.00
H263   H     0.65022   0.05566   0.40391   0.00000  Uiso   1.00
H264   H     0.71798   0.28391   0.48560   0.00000  Uiso   1.00
H265   H     0.55144   0.13255   0.13425   0.00000  Uiso   1.00
H266   H     0.70917   0.93671   0.42334   0.00000  Uiso   1.00
H267   H     0.85206   0.41802   0.59561   0.00000  Uiso   1.00
O268   O     0.74656   0.12206   0.05173   0.00000  Uiso   1.00
O269   O     0.95350   0.86514   0.43101   0.00000  Uiso   1.00
O270   O     0.14097   0.49660   0.65702   0.00000  Uiso   1.00
N271   N     0.93482   0.13274   0.14364   0.00000  Uiso   1.00
N272   N     0.08228   0.94964   0.41391   0.00000  Uiso   1.00
N273   N     0.21588   0.39962   0.57498   0.00000  Uiso   1.00
N274   N     0.67354   0.13398   0.14847   0.00000  Uiso   1.00
N275   N     0.82099   0.95087   0.41873   0.00000  Uiso   1.00
N276   N     0.95459   0.40085   0.57981   0.00000  Uiso   1.00
