data_job_06204
_audit_creation_date              2018-12-19
_audit_creation_method            'Materials Studio'
_symmetry_space_group_name_H-M    'P1'
_symmetry_Int_Tables_number       1
_symmetry_cell_setting            triclinic
loop_
_symmetry_equiv_pos_as_xyz
  x,y,z
_cell_length_a                    16.3934
_cell_length_b                    16.1210
_cell_length_c                    15.4580
_cell_angle_alpha                 90.9348
_cell_angle_beta                  91.0351
_cell_angle_gamma                 90.0943
loop_
_atom_site_label
_atom_site_type_symbol
_atom_site_fract_x
_atom_site_fract_y
_atom_site_fract_z
_atom_site_U_iso_or_equiv
_atom_site_adp_type
_atom_site_occupancy
C1     C     0.19560   0.60749   0.21841   0.00000  Uiso   1.00
C2     C     0.12946   0.54865   0.24881   0.00000  Uiso   1.00
C3     C     0.07438   0.56539   0.31391   0.00000  Uiso   1.00
C4     C     0.01862   0.50344   0.33210   0.00000  Uiso   1.00
C5     C     0.91605   0.42361   0.38623   0.00000  Uiso   1.00
C6     C     0.27591   0.56060   0.22774   0.00000  Uiso   1.00
C7     C     0.34396   0.58740   0.27513   0.00000  Uiso   1.00
C8     C     0.41147   0.53552   0.27558   0.00000  Uiso   1.00
C9     C     0.53628   0.47428   0.29696   0.00000  Uiso   1.00
C10    C     0.18068   0.61741   0.12147   0.00000  Uiso   1.00
C11    C     0.16869   0.69197   0.07950   0.00000  Uiso   1.00
C12    C     0.15605   0.68791   0.99047   0.00000  Uiso   1.00
C13    C     0.13301   0.71487   0.84685   0.00000  Uiso   1.00
C14    C     0.19452   0.46770   0.13493   0.00000  Uiso   1.00
C15    C     0.12888   0.47272   0.20347   0.00000  Uiso   1.00
C16    C     0.07318   0.41073   0.22156   0.00000  Uiso   1.00
C17    C     0.01802   0.42737   0.28668   0.00000  Uiso   1.00
C18    C     0.27532   0.48468   0.18241   0.00000  Uiso   1.00
C19    C     0.34276   0.43275   0.18278   0.00000  Uiso   1.00
C20    C     0.41089   0.45945   0.23016   0.00000  Uiso   1.00
C21    C     0.18009   0.54148   0.07613   0.00000  Uiso   1.00
C22    C     0.16748   0.53731   0.98715   0.00000  Uiso   1.00
C23    C     0.15546   0.61184   0.94505   0.00000  Uiso   1.00
H24    H     0.19606   0.66660   0.25370   0.00000  Uiso   1.00
H25    H     0.07486   0.62415   0.34899   0.00000  Uiso   1.00
H26    H     0.34439   0.64617   0.31020   0.00000  Uiso   1.00
H27    H     0.16914   0.75071   0.11460   0.00000  Uiso   1.00
H28    H     0.94025   0.54360   0.43466   0.00000  Uiso   1.00
H29    H     0.50858   0.59003   0.35285   0.00000  Uiso   1.00
H30    H     0.13904   0.81048   0.94039   0.00000  Uiso   1.00
H31    H     0.19406   0.40858   0.09964   0.00000  Uiso   1.00
H32    H     0.07275   0.35198   0.18647   0.00000  Uiso   1.00
H33    H     0.34228   0.37400   0.14768   0.00000  Uiso   1.00
H34    H     0.16704   0.47854   0.95209   0.00000  Uiso   1.00
H35    H     0.93853   0.32269   0.30275   0.00000  Uiso   1.00
H36    H     0.50688   0.36913   0.22094   0.00000  Uiso   1.00
H37    H     0.13733   0.58958   0.80849   0.00000  Uiso   1.00
O38    O     0.85964   0.40055   0.42863   0.00000  Uiso   1.00
O39    O     0.60528   0.46148   0.32128   0.00000  Uiso   1.00
O40    O     0.12045   0.75071   0.78015   0.00000  Uiso   1.00
N41    N     0.95648   0.49938   0.39169   0.00000  Uiso   1.00
N42    N     0.48784   0.54279   0.31521   0.00000  Uiso   1.00
N43    N     0.14237   0.74890   0.92959   0.00000  Uiso   1.00
N44    N     0.95556   0.38052   0.32071   0.00000  Uiso   1.00
N45    N     0.48692   0.42392   0.24423   0.00000  Uiso   1.00
N46    N     0.14145   0.63003   0.85862   0.00000  Uiso   1.00
C47    C     0.20895   0.19616   0.61769   0.00000  Uiso   1.00
C48    C     0.23892   0.12854   0.55594   0.00000  Uiso   1.00
C49    C     0.30095   0.07245   0.57340   0.00000  Uiso   1.00
C50    C     0.31928   0.01539   0.50840   0.00000  Uiso   1.00
C51    C     0.37226   0.91055   0.42461   0.00000  Uiso   1.00
C52    C     0.21699   0.27757   0.56967   0.00000  Uiso   1.00
C53    C     0.26057   0.34678   0.59870   0.00000  Uiso   1.00
C54    C     0.26043   0.41518   0.54527   0.00000  Uiso   1.00
C55    C     0.27931   0.54173   0.48283   0.00000  Uiso   1.00
C56    C     0.11768   0.18129   0.62705   0.00000  Uiso   1.00
C57    C     0.07775   0.16956   0.70432   0.00000  Uiso   1.00
C58    C     0.99399   0.15692   0.69920   0.00000  Uiso   1.00
C59    C     0.85868   0.13398   0.72585   0.00000  Uiso   1.00
C60    C     0.13119   0.19458   0.47119   0.00000  Uiso   1.00
C61    C     0.19668   0.12768   0.47636   0.00000  Uiso   1.00
C62    C     0.21492   0.07069   0.41132   0.00000  Uiso   1.00
C63    C     0.27697   0.01452   0.42869   0.00000  Uiso   1.00
C64    C     0.17475   0.27671   0.49010   0.00000  Uiso   1.00
C65    C     0.17454   0.34503   0.43662   0.00000  Uiso   1.00
C66    C     0.21812   0.41432   0.46555   0.00000  Uiso   1.00
C67    C     0.07544   0.18043   0.54748   0.00000  Uiso   1.00
C68    C     0.99173   0.16780   0.54223   0.00000  Uiso   1.00
C69    C     0.95168   0.15606   0.61948   0.00000  Uiso   1.00
H70    H     0.24183   0.19683   0.67963   0.00000  Uiso   1.00
H71    H     0.33363   0.07314   0.63499   0.00000  Uiso   1.00
H72    H     0.29324   0.34743   0.66028   0.00000  Uiso   1.00
H73    H     0.11046   0.17023   0.76589   0.00000  Uiso   1.00
H74    H     0.41678   0.93563   0.55039   0.00000  Uiso   1.00
H75    H     0.33161   0.51401   0.60374   0.00000  Uiso   1.00
H76    H     0.94617   0.14036   0.82642   0.00000  Uiso   1.00
H77    H     0.09831   0.19391   0.40923   0.00000  Uiso   1.00
H78    H     0.18222   0.07004   0.34975   0.00000  Uiso   1.00
H79    H     0.14184   0.34434   0.37504   0.00000  Uiso   1.00
H80    H     0.95906   0.16714   0.48065   0.00000  Uiso   1.00
H81    H     0.29391   0.93313   0.31888   0.00000  Uiso   1.00
H82    H     0.20873   0.51150   0.37223   0.00000  Uiso   1.00
H83    H     0.82329   0.13785   0.59491   0.00000  Uiso   1.00
O84    O     0.41315   0.85297   0.40037   0.00000  Uiso   1.00
O85    O     0.30140   0.61178   0.47037   0.00000  Uiso   1.00
O86    O     0.79572   0.12155   0.76253   0.00000  Uiso   1.00
N87    N     0.37634   0.95203   0.50407   0.00000  Uiso   1.00
N88    N     0.29672   0.49277   0.55394   0.00000  Uiso   1.00
N89    N     0.93636   0.14346   0.76214   0.00000  Uiso   1.00
N90    N     0.31022   0.95068   0.37950   0.00000  Uiso   1.00
N91    N     0.23060   0.49142   0.42937   0.00000  Uiso   1.00
N92    N     0.87024   0.14211   0.63756   0.00000  Uiso   1.00
C93    C     0.60348   0.21074   0.19896   0.00000  Uiso   1.00
C94    C     0.54530   0.24103   0.12821   0.00000  Uiso   1.00
C95    C     0.56131   0.30378   0.07048   0.00000  Uiso   1.00
C96    C     0.50015   0.32230   0.01060   0.00000  Uiso   1.00
C97    C     0.42112   0.37586   0.90108   0.00000  Uiso   1.00
C98    C     0.55755   0.21943   0.28352   0.00000  Uiso   1.00
C99    C     0.58386   0.26402   0.35638   0.00000  Uiso   1.00
C100   C     0.53301   0.26435   0.42724   0.00000  Uiso   1.00
C101   C     0.47302   0.28434   0.55887   0.00000  Uiso   1.00
C102   C     0.61365   0.11782   0.18263   0.00000  Uiso   1.00
C103   C     0.68715   0.07697   0.17067   0.00000  Uiso   1.00
C104   C     0.68354   0.99175   0.15661   0.00000  Uiso   1.00
C105   C     0.71066   0.85397   0.13158   0.00000  Uiso   1.00
C106   C     0.46640   0.13203   0.19528   0.00000  Uiso   1.00
C107   C     0.47084   0.19827   0.12622   0.00000  Uiso   1.00
C108   C     0.40964   0.21670   0.06641   0.00000  Uiso   1.00
C109   C     0.42556   0.27947   0.00859   0.00000  Uiso   1.00
C110   C     0.48309   0.17668   0.28153   0.00000  Uiso   1.00
C111   C     0.43219   0.17694   0.35230   0.00000  Uiso   1.00
C112   C     0.45842   0.22152   0.42524   0.00000  Uiso   1.00
C113   C     0.53919   0.07507   0.18063   0.00000  Uiso   1.00
C114   C     0.53547   0.98989   0.16659   0.00000  Uiso   1.00
C115   C     0.60894   0.94892   0.15461   0.00000  Uiso   1.00
H116   H     0.66145   0.24402   0.20052   0.00000  Uiso   1.00
H117   H     0.61894   0.33686   0.07205   0.00000  Uiso   1.00
H118   H     0.64149   0.29709   0.35791   0.00000  Uiso   1.00
H119   H     0.74476   0.11008   0.17222   0.00000  Uiso   1.00
H120   H     0.53896   0.42095   0.92876   0.00000  Uiso   1.00
H121   H     0.58652   0.33709   0.53151   0.00000  Uiso   1.00
H122   H     0.80428   0.94272   0.13996   0.00000  Uiso   1.00
H123   H     0.40842   0.09874   0.19372   0.00000  Uiso   1.00
H124   H     0.35202   0.18360   0.06488   0.00000  Uiso   1.00
H125   H     0.37457   0.14384   0.35073   0.00000  Uiso   1.00
H126   H     0.47784   0.95682   0.16505   0.00000  Uiso   1.00
H127   H     0.32232   0.29657   0.92294   0.00000  Uiso   1.00
H128   H     0.36988   0.21270   0.52569   0.00000  Uiso   1.00
H129   H     0.58763   0.81833   0.13414   0.00000  Uiso   1.00
O130   O     0.39809   0.41723   0.84123   0.00000  Uiso   1.00
O131   O     0.46050   0.30718   0.63202   0.00000  Uiso   1.00
O132   O     0.74619   0.78979   0.11831   0.00000  Uiso   1.00
N133   N     0.49572   0.38002   0.94506   0.00000  Uiso   1.00
N134   N     0.54018   0.30162   0.50859   0.00000  Uiso   1.00
N135   N     0.74377   0.93292   0.14255   0.00000  Uiso   1.00
N136   N     0.37915   0.31309   0.94193   0.00000  Uiso   1.00
N137   N     0.42361   0.23469   0.50546   0.00000  Uiso   1.00
N138   N     0.62719   0.86599   0.13941   0.00000  Uiso   1.00
C139   C     0.80440   0.39251   0.78160   0.00000  Uiso   1.00
C140   C     0.87054   0.45135   0.75119   0.00000  Uiso   1.00
C141   C     0.92562   0.43461   0.68609   0.00000  Uiso   1.00
C142   C     0.98138   0.49656   0.66790   0.00000  Uiso   1.00
C143   C     0.08395   0.57639   0.61377   0.00000  Uiso   1.00
C144   C     0.72409   0.43940   0.77226   0.00000  Uiso   1.00
C145   C     0.65604   0.41260   0.72487   0.00000  Uiso   1.00
C146   C     0.58853   0.46448   0.72442   0.00000  Uiso   1.00
C147   C     0.46372   0.52572   0.70304   0.00000  Uiso   1.00
C148   C     0.81932   0.38259   0.87853   0.00000  Uiso   1.00
C149   C     0.83131   0.30803   0.92050   0.00000  Uiso   1.00
C150   C     0.84395   0.31209   0.00953   0.00000  Uiso   1.00
C151   C     0.86699   0.28514   0.15315   0.00000  Uiso   1.00
C152   C     0.80548   0.53230   0.86507   0.00000  Uiso   1.00
C153   C     0.87112   0.52728   0.79653   0.00000  Uiso   1.00
C154   C     0.92682   0.58927   0.77844   0.00000  Uiso   1.00
C155   C     0.98198   0.57263   0.71332   0.00000  Uiso   1.00
C156   C     0.72468   0.51532   0.81759   0.00000  Uiso   1.00
C157   C     0.65724   0.56725   0.81722   0.00000  Uiso   1.00
C158   C     0.58911   0.54055   0.76984   0.00000  Uiso   1.00
C159   C     0.81991   0.45852   0.92387   0.00000  Uiso   1.00
C160   C     0.83252   0.46269   0.01285   0.00000  Uiso   1.00
C161   C     0.84454   0.38816   0.05495   0.00000  Uiso   1.00
H162   H     0.80394   0.33340   0.74630   0.00000  Uiso   1.00
H163   H     0.92514   0.37585   0.65101   0.00000  Uiso   1.00
H164   H     0.65561   0.35383   0.68980   0.00000  Uiso   1.00
H165   H     0.83086   0.24929   0.88540   0.00000  Uiso   1.00
H166   H     0.05975   0.45640   0.56534   0.00000  Uiso   1.00
H167   H     0.49142   0.40997   0.64715   0.00000  Uiso   1.00
H168   H     0.86096   0.18952   0.05961   0.00000  Uiso   1.00
H169   H     0.80594   0.59142   0.90036   0.00000  Uiso   1.00
H170   H     0.92725   0.64802   0.81353   0.00000  Uiso   1.00
H171   H     0.65772   0.62600   0.85232   0.00000  Uiso   1.00
H172   H     0.83296   0.52146   0.04791   0.00000  Uiso   1.00
H173   H     0.06147   0.67731   0.69725   0.00000  Uiso   1.00
H174   H     0.49312   0.63087   0.77906   0.00000  Uiso   1.00
H175   H     0.86267   0.41042   0.19151   0.00000  Uiso   1.00
O176   O     0.14036   0.59945   0.57137   0.00000  Uiso   1.00
O177   O     0.39472   0.53852   0.67872   0.00000  Uiso   1.00
O178   O     0.87955   0.24929   0.21985   0.00000  Uiso   1.00
N179   N     0.04352   0.50062   0.60831   0.00000  Uiso   1.00
N180   N     0.51216   0.45721   0.68479   0.00000  Uiso   1.00
N181   N     0.85763   0.25110   0.07041   0.00000  Uiso   1.00
N182   N     0.04444   0.61948   0.67929   0.00000  Uiso   1.00
N183   N     0.51308   0.57608   0.75577   0.00000  Uiso   1.00
N184   N     0.85855   0.36997   0.14138   0.00000  Uiso   1.00
C185   C     0.79105   0.80384   0.38231   0.00000  Uiso   1.00
C186   C     0.76108   0.87146   0.44406   0.00000  Uiso   1.00
C187   C     0.69905   0.92755   0.42660   0.00000  Uiso   1.00
C188   C     0.68072   0.98461   0.49160   0.00000  Uiso   1.00
C189   C     0.62774   0.08945   0.57539   0.00000  Uiso   1.00
C190   C     0.78301   0.72243   0.43033   0.00000  Uiso   1.00
C191   C     0.73943   0.65322   0.40130   0.00000  Uiso   1.00
C192   C     0.73957   0.58482   0.45473   0.00000  Uiso   1.00
C193   C     0.72069   0.45827   0.51717   0.00000  Uiso   1.00
C194   C     0.88232   0.81871   0.37295   0.00000  Uiso   1.00
C195   C     0.92225   0.83044   0.29568   0.00000  Uiso   1.00
C196   C     0.00601   0.84308   0.30080   0.00000  Uiso   1.00
C197   C     0.14132   0.86602   0.27415   0.00000  Uiso   1.00
C198   C     0.86881   0.80542   0.52881   0.00000  Uiso   1.00
C199   C     0.80332   0.87232   0.52364   0.00000  Uiso   1.00
C200   C     0.78508   0.92931   0.58868   0.00000  Uiso   1.00
C201   C     0.72303   0.98548   0.57131   0.00000  Uiso   1.00
C202   C     0.82525   0.72329   0.50990   0.00000  Uiso   1.00
C203   C     0.82546   0.65497   0.56338   0.00000  Uiso   1.00
C204   C     0.78188   0.58568   0.53445   0.00000  Uiso   1.00
C205   C     0.92456   0.81957   0.45252   0.00000  Uiso   1.00
C206   C     0.00827   0.83220   0.45777   0.00000  Uiso   1.00
C207   C     0.04832   0.84394   0.38052   0.00000  Uiso   1.00
H208   H     0.75817   0.80317   0.32037   0.00000  Uiso   1.00
H209   H     0.66637   0.92686   0.36501   0.00000  Uiso   1.00
H210   H     0.70676   0.65257   0.33972   0.00000  Uiso   1.00
H211   H     0.88954   0.82977   0.23411   0.00000  Uiso   1.00
H212   H     0.58322   0.06437   0.44961   0.00000  Uiso   1.00
H213   H     0.66839   0.48599   0.39626   0.00000  Uiso   1.00
H214   H     0.05383   0.85964   0.17358   0.00000  Uiso   1.00
H215   H     0.90169   0.80609   0.59077   0.00000  Uiso   1.00
H216   H     0.81778   0.92996   0.65025   0.00000  Uiso   1.00
H217   H     0.85816   0.65566   0.62496   0.00000  Uiso   1.00
H218   H     0.04094   0.83286   0.51935   0.00000  Uiso   1.00
H219   H     0.70609   0.06687   0.68112   0.00000  Uiso   1.00
H220   H     0.79127   0.48850   0.62777   0.00000  Uiso   1.00
H221   H     0.17671   0.86215   0.40509   0.00000  Uiso   1.00
O222   O     0.58685   0.14703   0.59963   0.00000  Uiso   1.00
O223   O     0.69860   0.38822   0.52963   0.00000  Uiso   1.00
O224   O     0.20428   0.87845   0.23747   0.00000  Uiso   1.00
N225   N     0.62366   0.04797   0.49593   0.00000  Uiso   1.00
N226   N     0.70328   0.50723   0.44606   0.00000  Uiso   1.00
N227   N     0.06364   0.85654   0.23786   0.00000  Uiso   1.00
N228   N     0.68978   0.04932   0.62050   0.00000  Uiso   1.00
N229   N     0.76940   0.50858   0.57063   0.00000  Uiso   1.00
N230   N     0.12976   0.85789   0.36244   0.00000  Uiso   1.00
C231   C     0.39652   0.78926   0.80104   0.00000  Uiso   1.00
C232   C     0.45470   0.75897   0.87179   0.00000  Uiso   1.00
C233   C     0.43869   0.69622   0.92952   0.00000  Uiso   1.00
C234   C     0.49985   0.67770   0.98940   0.00000  Uiso   1.00
C235   C     0.57888   0.62414   0.09892   0.00000  Uiso   1.00
C236   C     0.44245   0.78057   0.71648   0.00000  Uiso   1.00
C237   C     0.41614   0.73598   0.64362   0.00000  Uiso   1.00
C238   C     0.46699   0.73565   0.57276   0.00000  Uiso   1.00
C239   C     0.52698   0.71566   0.44113   0.00000  Uiso   1.00
C240   C     0.38635   0.88218   0.81737   0.00000  Uiso   1.00
C241   C     0.31285   0.92303   0.82933   0.00000  Uiso   1.00
C242   C     0.31646   0.00825   0.84339   0.00000  Uiso   1.00
C243   C     0.28934   0.14603   0.86842   0.00000  Uiso   1.00
C244   C     0.53361   0.86797   0.80472   0.00000  Uiso   1.00
C245   C     0.52916   0.80173   0.87378   0.00000  Uiso   1.00
C246   C     0.59036   0.78330   0.93359   0.00000  Uiso   1.00
C247   C     0.57444   0.72053   0.99141   0.00000  Uiso   1.00
C248   C     0.51691   0.82332   0.71847   0.00000  Uiso   1.00
C249   C     0.56781   0.82306   0.64770   0.00000  Uiso   1.00
C250   C     0.54158   0.77848   0.57476   0.00000  Uiso   1.00
C251   C     0.46081   0.92493   0.81937   0.00000  Uiso   1.00
C252   C     0.46453   0.01011   0.83341   0.00000  Uiso   1.00
C253   C     0.39106   0.05108   0.84539   0.00000  Uiso   1.00
H254   H     0.33855   0.75598   0.79948   0.00000  Uiso   1.00
H255   H     0.38106   0.66314   0.92795   0.00000  Uiso   1.00
H256   H     0.35851   0.70291   0.64209   0.00000  Uiso   1.00
H257   H     0.25524   0.88992   0.82778   0.00000  Uiso   1.00
H258   H     0.46104   0.57905   0.07124   0.00000  Uiso   1.00
H259   H     0.41348   0.66291   0.46849   0.00000  Uiso   1.00
H260   H     0.19572   0.05728   0.86004   0.00000  Uiso   1.00
H261   H     0.59158   0.90126   0.80628   0.00000  Uiso   1.00
H262   H     0.64798   0.81640   0.93512   0.00000  Uiso   1.00
H263   H     0.62543   0.85616   0.64927   0.00000  Uiso   1.00
H264   H     0.52216   0.04318   0.83495   0.00000  Uiso   1.00
H265   H     0.67768   0.70343   0.07706   0.00000  Uiso   1.00
H266   H     0.63012   0.78730   0.47431   0.00000  Uiso   1.00
H267   H     0.41237   0.18167   0.86586   0.00000  Uiso   1.00
O268   O     0.60191   0.58277   0.15877   0.00000  Uiso   1.00
O269   O     0.53950   0.69282   0.36798   0.00000  Uiso   1.00
O270   O     0.25381   0.21021   0.88169   0.00000  Uiso   1.00
N271   N     0.50428   0.61998   0.05494   0.00000  Uiso   1.00
N272   N     0.45982   0.69838   0.49141   0.00000  Uiso   1.00
N273   N     0.25623   0.06708   0.85745   0.00000  Uiso   1.00
N274   N     0.62085   0.68691   0.05807   0.00000  Uiso   1.00
N275   N     0.57639   0.76531   0.49454   0.00000  Uiso   1.00
N276   N     0.37281   0.13401   0.86059   0.00000  Uiso   1.00
