data_job_02188
_audit_creation_date              2018-12-19
_audit_creation_method            'Materials Studio'
_symmetry_space_group_name_H-M    'P1'
_symmetry_Int_Tables_number       1
_symmetry_cell_setting            triclinic
loop_
_symmetry_equiv_pos_as_xyz
  x,y,z
_cell_length_a                    15.6007
_cell_length_b                    18.1947
_cell_length_c                    11.8349
_cell_angle_alpha                 90.0000
_cell_angle_beta                  136.8184
_cell_angle_gamma                 90.0000
loop_
_atom_site_label
_atom_site_type_symbol
_atom_site_fract_x
_atom_site_fract_y
_atom_site_fract_z
_atom_site_U_iso_or_equiv
_atom_site_adp_type
_atom_site_occupancy
C1     C     0.50927   0.39948   0.14758   0.00000  Uiso   1.00
C2     C     0.49642   0.35096   0.23966   0.00000  Uiso   1.00
C3     C     0.43801   0.28287   0.18740   0.00000  Uiso   1.00
C4     C     0.43609   0.24715   0.28921   0.00000  Uiso   1.00
C5     C     0.40779   0.16708   0.40952   0.00000  Uiso   1.00
C6     C     0.45108   0.47327   0.12294   0.00000  Uiso   1.00
C7     C     0.35458   0.50801   0.97255   0.00000  Uiso   1.00
C8     C     0.31452   0.57525   0.97612   0.00000  Uiso   1.00
C9     C     0.21590   0.68508   0.91524   0.00000  Uiso   1.00
C10    C     0.64913   0.41372   0.26773   0.00000  Uiso   1.00
C11    C     0.71914   0.39841   0.23906   0.00000  Uiso   1.00
C12    C     0.84581   0.41553   0.36452   0.00000  Uiso   1.00
C13    C     0.05468   0.43289   0.52844   0.00000  Uiso   1.00
C14    C     0.60973   0.45713   0.42132   0.00000  Uiso   1.00
C15    C     0.55098   0.38228   0.38834   0.00000  Uiso   1.00
C16    C     0.54916   0.34666   0.49026   0.00000  Uiso   1.00
C17    C     0.49076   0.27852   0.43817   0.00000  Uiso   1.00
C18    C     0.50565   0.50458   0.27162   0.00000  Uiso   1.00
C19    C     0.46573   0.57179   0.27542   0.00000  Uiso   1.00
C20    C     0.36918   0.60662   0.12507   0.00000  Uiso   1.00
C21    C     0.70370   0.44503   0.41642   0.00000  Uiso   1.00
C22    C     0.83029   0.46219   0.54193   0.00000  Uiso   1.00
C23    C     0.90048   0.44690   0.51347   0.00000  Uiso   1.00
H24    H     0.46678   0.37510   0.03182   0.00000  Uiso   1.00
H25    H     0.39578   0.25866   0.07232   0.00000  Uiso   1.00
H26    H     0.31238   0.48376   0.85751   0.00000  Uiso   1.00
H27    H     0.67688   0.37417   0.12399   0.00000  Uiso   1.00
H28    H     0.34109   0.14338   0.18276   0.00000  Uiso   1.00
H29    H     0.16526   0.61804   0.72984   0.00000  Uiso   1.00
H30    H     0.93388   0.38695   0.29174   0.00000  Uiso   1.00
H31    H     0.65221   0.48152   0.53709   0.00000  Uiso   1.00
H32    H     0.59139   0.37091   0.60532   0.00000  Uiso   1.00
H33    H     0.50798   0.59601   0.39050   0.00000  Uiso   1.00
H34    H     0.87248   0.48642   0.65698   0.00000  Uiso   1.00
H35    H     0.49985   0.23448   0.61536   0.00000  Uiso   1.00
H36    H     0.32402   0.70915   0.16243   0.00000  Uiso   1.00
H37    H     0.09264   0.47805   0.72434   0.00000  Uiso   1.00
O38    O     0.37708   0.11426   0.43480   0.00000  Uiso   1.00
O39    O     0.14641   0.73700   0.84058   0.00000  Uiso   1.00
O40    O     0.15482   0.43381   0.57779   0.00000  Uiso   1.00
N41    N     0.38683   0.17999   0.27522   0.00000  Uiso   1.00
N42    N     0.22242   0.62377   0.85176   0.00000  Uiso   1.00
N43    N     0.94101   0.40773   0.37708   0.00000  Uiso   1.00
N44    N     0.47225   0.22902   0.50800   0.00000  Uiso   1.00
N45    N     0.30784   0.67279   0.08454   0.00000  Uiso   1.00
N46    N     0.02643   0.45676   0.60986   0.00000  Uiso   1.00
C47    C     0.00927   0.89948   0.14758   0.00000  Uiso   1.00
C48    C     0.99642   0.85096   0.23966   0.00000  Uiso   1.00
C49    C     0.93801   0.78287   0.18740   0.00000  Uiso   1.00
C50    C     0.93609   0.74715   0.28921   0.00000  Uiso   1.00
C51    C     0.90779   0.66708   0.40952   0.00000  Uiso   1.00
C52    C     0.95108   0.97327   0.12294   0.00000  Uiso   1.00
C53    C     0.85458   0.00801   0.97255   0.00000  Uiso   1.00
C54    C     0.81452   0.07525   0.97612   0.00000  Uiso   1.00
C55    C     0.71590   0.18508   0.91524   0.00000  Uiso   1.00
C56    C     0.14913   0.91372   0.26773   0.00000  Uiso   1.00
C57    C     0.21914   0.89841   0.23906   0.00000  Uiso   1.00
C58    C     0.34581   0.91553   0.36452   0.00000  Uiso   1.00
C59    C     0.55468   0.93289   0.52844   0.00000  Uiso   1.00
C60    C     0.10973   0.95713   0.42132   0.00000  Uiso   1.00
C61    C     0.05098   0.88228   0.38834   0.00000  Uiso   1.00
C62    C     0.04916   0.84666   0.49026   0.00000  Uiso   1.00
C63    C     0.99076   0.77852   0.43817   0.00000  Uiso   1.00
C64    C     0.00565   0.00458   0.27162   0.00000  Uiso   1.00
C65    C     0.96573   0.07179   0.27542   0.00000  Uiso   1.00
C66    C     0.86918   0.10662   0.12507   0.00000  Uiso   1.00
C67    C     0.20370   0.94503   0.41642   0.00000  Uiso   1.00
C68    C     0.33029   0.96219   0.54193   0.00000  Uiso   1.00
C69    C     0.40048   0.94690   0.51347   0.00000  Uiso   1.00
H70    H     0.96678   0.87510   0.03182   0.00000  Uiso   1.00
H71    H     0.89578   0.75866   0.07232   0.00000  Uiso   1.00
H72    H     0.81238   0.98376   0.85751   0.00000  Uiso   1.00
H73    H     0.17688   0.87417   0.12399   0.00000  Uiso   1.00
H74    H     0.84109   0.64338   0.18276   0.00000  Uiso   1.00
H75    H     0.66526   0.11804   0.72984   0.00000  Uiso   1.00
H76    H     0.43388   0.88695   0.29174   0.00000  Uiso   1.00
H77    H     0.15221   0.98152   0.53709   0.00000  Uiso   1.00
H78    H     0.09139   0.87091   0.60532   0.00000  Uiso   1.00
H79    H     0.00798   0.09601   0.39050   0.00000  Uiso   1.00
H80    H     0.37248   0.98642   0.65698   0.00000  Uiso   1.00
H81    H     0.99985   0.73448   0.61536   0.00000  Uiso   1.00
H82    H     0.82402   0.20915   0.16243   0.00000  Uiso   1.00
H83    H     0.59264   0.97805   0.72434   0.00000  Uiso   1.00
O84    O     0.87708   0.61426   0.43480   0.00000  Uiso   1.00
O85    O     0.64641   0.23700   0.84058   0.00000  Uiso   1.00
O86    O     0.65482   0.93381   0.57779   0.00000  Uiso   1.00
N87    N     0.88683   0.67999   0.27522   0.00000  Uiso   1.00
N88    N     0.72242   0.12377   0.85176   0.00000  Uiso   1.00
N89    N     0.44101   0.90773   0.37708   0.00000  Uiso   1.00
N90    N     0.97225   0.72902   0.50800   0.00000  Uiso   1.00
N91    N     0.80784   0.17279   0.08454   0.00000  Uiso   1.00
N92    N     0.52643   0.95676   0.60986   0.00000  Uiso   1.00
C93    C     0.50927   0.60052   0.64758   0.00000  Uiso   1.00
C94    C     0.49642   0.64904   0.73966   0.00000  Uiso   1.00
C95    C     0.43801   0.71713   0.68740   0.00000  Uiso   1.00
C96    C     0.43609   0.75285   0.78921   0.00000  Uiso   1.00
C97    C     0.40779   0.83292   0.90952   0.00000  Uiso   1.00
C98    C     0.45108   0.52673   0.62294   0.00000  Uiso   1.00
C99    C     0.35458   0.49199   0.47255   0.00000  Uiso   1.00
C100   C     0.31452   0.42475   0.47612   0.00000  Uiso   1.00
C101   C     0.21590   0.31492   0.41524   0.00000  Uiso   1.00
C102   C     0.64913   0.58628   0.76773   0.00000  Uiso   1.00
C103   C     0.71914   0.60159   0.73906   0.00000  Uiso   1.00
C104   C     0.84581   0.58447   0.86452   0.00000  Uiso   1.00
C105   C     0.05468   0.56711   0.02844   0.00000  Uiso   1.00
C106   C     0.60973   0.54287   0.92132   0.00000  Uiso   1.00
C107   C     0.55098   0.61772   0.88834   0.00000  Uiso   1.00
C108   C     0.54916   0.65334   0.99026   0.00000  Uiso   1.00
C109   C     0.49076   0.72148   0.93817   0.00000  Uiso   1.00
C110   C     0.50565   0.49542   0.77162   0.00000  Uiso   1.00
C111   C     0.46573   0.42821   0.77542   0.00000  Uiso   1.00
C112   C     0.36918   0.39338   0.62507   0.00000  Uiso   1.00
C113   C     0.70370   0.55497   0.91642   0.00000  Uiso   1.00
C114   C     0.83029   0.53781   0.04193   0.00000  Uiso   1.00
C115   C     0.90048   0.55310   0.01347   0.00000  Uiso   1.00
H116   H     0.46678   0.62490   0.53182   0.00000  Uiso   1.00
H117   H     0.39578   0.74134   0.57232   0.00000  Uiso   1.00
H118   H     0.31238   0.51624   0.35751   0.00000  Uiso   1.00
H119   H     0.67688   0.62583   0.62399   0.00000  Uiso   1.00
H120   H     0.34109   0.85662   0.68276   0.00000  Uiso   1.00
H121   H     0.16526   0.38196   0.22984   0.00000  Uiso   1.00
H122   H     0.93388   0.61305   0.79174   0.00000  Uiso   1.00
H123   H     0.65221   0.51848   0.03709   0.00000  Uiso   1.00
H124   H     0.59139   0.62909   0.10532   0.00000  Uiso   1.00
H125   H     0.50798   0.40399   0.89050   0.00000  Uiso   1.00
H126   H     0.87248   0.51358   0.15698   0.00000  Uiso   1.00
H127   H     0.49985   0.76552   0.11536   0.00000  Uiso   1.00
H128   H     0.32402   0.29085   0.66243   0.00000  Uiso   1.00
H129   H     0.09264   0.52195   0.22434   0.00000  Uiso   1.00
O130   O     0.37708   0.88574   0.93480   0.00000  Uiso   1.00
O131   O     0.14641   0.26300   0.34058   0.00000  Uiso   1.00
O132   O     0.15482   0.56619   0.07779   0.00000  Uiso   1.00
N133   N     0.38683   0.82001   0.77522   0.00000  Uiso   1.00
N134   N     0.22242   0.37623   0.35176   0.00000  Uiso   1.00
N135   N     0.94101   0.59227   0.87708   0.00000  Uiso   1.00
N136   N     0.47225   0.77098   0.00800   0.00000  Uiso   1.00
N137   N     0.30784   0.32721   0.58454   0.00000  Uiso   1.00
N138   N     0.02643   0.54324   0.10986   0.00000  Uiso   1.00
C139   C     0.00927   0.10052   0.64758   0.00000  Uiso   1.00
C140   C     0.99642   0.14904   0.73966   0.00000  Uiso   1.00
C141   C     0.93801   0.21713   0.68740   0.00000  Uiso   1.00
C142   C     0.93609   0.25285   0.78921   0.00000  Uiso   1.00
C143   C     0.90779   0.33292   0.90952   0.00000  Uiso   1.00
C144   C     0.95108   0.02673   0.62294   0.00000  Uiso   1.00
C145   C     0.85458   0.99199   0.47255   0.00000  Uiso   1.00
C146   C     0.81452   0.92475   0.47612   0.00000  Uiso   1.00
C147   C     0.71590   0.81492   0.41524   0.00000  Uiso   1.00
C148   C     0.14913   0.08628   0.76773   0.00000  Uiso   1.00
C149   C     0.21914   0.10159   0.73906   0.00000  Uiso   1.00
C150   C     0.34581   0.08447   0.86452   0.00000  Uiso   1.00
C151   C     0.55468   0.06711   0.02844   0.00000  Uiso   1.00
C152   C     0.10973   0.04287   0.92132   0.00000  Uiso   1.00
C153   C     0.05098   0.11772   0.88834   0.00000  Uiso   1.00
C154   C     0.04916   0.15334   0.99026   0.00000  Uiso   1.00
C155   C     0.99076   0.22148   0.93817   0.00000  Uiso   1.00
C156   C     0.00565   0.99542   0.77162   0.00000  Uiso   1.00
C157   C     0.96573   0.92821   0.77542   0.00000  Uiso   1.00
C158   C     0.86918   0.89338   0.62507   0.00000  Uiso   1.00
C159   C     0.20370   0.05497   0.91642   0.00000  Uiso   1.00
C160   C     0.33029   0.03781   0.04193   0.00000  Uiso   1.00
C161   C     0.40048   0.05310   0.01347   0.00000  Uiso   1.00
H162   H     0.96678   0.12490   0.53182   0.00000  Uiso   1.00
H163   H     0.89578   0.24134   0.57232   0.00000  Uiso   1.00
H164   H     0.81238   0.01624   0.35751   0.00000  Uiso   1.00
H165   H     0.17688   0.12583   0.62399   0.00000  Uiso   1.00
H166   H     0.84109   0.35662   0.68276   0.00000  Uiso   1.00
H167   H     0.66526   0.88196   0.22984   0.00000  Uiso   1.00
H168   H     0.43388   0.11305   0.79174   0.00000  Uiso   1.00
H169   H     0.15221   0.01848   0.03709   0.00000  Uiso   1.00
H170   H     0.09139   0.12909   0.10532   0.00000  Uiso   1.00
H171   H     0.00798   0.90399   0.89050   0.00000  Uiso   1.00
H172   H     0.37248   0.01358   0.15698   0.00000  Uiso   1.00
H173   H     0.99985   0.26552   0.11536   0.00000  Uiso   1.00
H174   H     0.82402   0.79085   0.66243   0.00000  Uiso   1.00
H175   H     0.59264   0.02195   0.22434   0.00000  Uiso   1.00
O176   O     0.87708   0.38574   0.93480   0.00000  Uiso   1.00
O177   O     0.64641   0.76300   0.34058   0.00000  Uiso   1.00
O178   O     0.65482   0.06619   0.07779   0.00000  Uiso   1.00
N179   N     0.88683   0.32001   0.77522   0.00000  Uiso   1.00
N180   N     0.72242   0.87623   0.35176   0.00000  Uiso   1.00
N181   N     0.44101   0.09227   0.87708   0.00000  Uiso   1.00
N182   N     0.97225   0.27098   0.00800   0.00000  Uiso   1.00
N183   N     0.80784   0.82721   0.58454   0.00000  Uiso   1.00
N184   N     0.52643   0.04324   0.10986   0.00000  Uiso   1.00
