data_job_03575
_audit_creation_date              2018-12-19
_audit_creation_method            'Materials Studio'
_symmetry_space_group_name_H-M    'P1'
_symmetry_Int_Tables_number       1
_symmetry_cell_setting            triclinic
loop_
_symmetry_equiv_pos_as_xyz
  x,y,z
_cell_length_a                    17.5308
_cell_length_b                    29.0200
_cell_length_c                    9.4328
_cell_angle_alpha                 90.0000
_cell_angle_beta                  90.0000
_cell_angle_gamma                 90.0000
loop_
_atom_site_label
_atom_site_type_symbol
_atom_site_fract_x
_atom_site_fract_y
_atom_site_fract_z
_atom_site_U_iso_or_equiv
_atom_site_adp_type
_atom_site_occupancy
C1     C     0.53596   0.35928   0.76956   0.00000  Uiso   1.00
C2     C     0.48135   0.39547   0.82819   0.00000  Uiso   1.00
C3     C     0.48662   0.41632   0.96022   0.00000  Uiso   1.00
C4     C     0.43103   0.44857   0.99410   0.00000  Uiso   1.00
C5     C     0.35513   0.50307   0.09960   0.00000  Uiso   1.00
C6     C     0.48688   0.31772   0.73128   0.00000  Uiso   1.00
C7     C     0.49681   0.27321   0.78181   0.00000  Uiso   1.00
C8     C     0.44589   0.24001   0.73408   0.00000  Uiso   1.00
C9     C     0.37861   0.17381   0.68905   0.00000  Uiso   1.00
C10    C     0.56559   0.37849   0.62952   0.00000  Uiso   1.00
C11    C     0.64170   0.38506   0.59447   0.00000  Uiso   1.00
C12    C     0.65704   0.40301   0.46105   0.00000  Uiso   1.00
C13    C     0.71198   0.43116   0.25802   0.00000  Uiso   1.00
C14    C     0.42787   0.37947   0.59492   0.00000  Uiso   1.00
C15    C     0.42263   0.40643   0.73334   0.00000  Uiso   1.00
C16    C     0.36703   0.43866   0.76701   0.00000  Uiso   1.00
C17    C     0.37222   0.45956   0.89907   0.00000  Uiso   1.00
C18    C     0.42817   0.32869   0.63643   0.00000  Uiso   1.00
C19    C     0.37722   0.29555   0.58860   0.00000  Uiso   1.00
C20    C     0.38707   0.25100   0.63905   0.00000  Uiso   1.00
C21    C     0.50688   0.38946   0.53466   0.00000  Uiso   1.00
C22    C     0.52211   0.40740   0.40126   0.00000  Uiso   1.00
C23    C     0.59823   0.41400   0.36602   0.00000  Uiso   1.00
H24    H     0.58167   0.35074   0.84340   0.00000  Uiso   1.00
H25    H     0.53206   0.40782   0.03361   0.00000  Uiso   1.00
H26    H     0.54225   0.26473   0.85521   0.00000  Uiso   1.00
H27    H     0.68712   0.37657   0.66790   0.00000  Uiso   1.00
H28    H     0.45115   0.47593   0.20267   0.00000  Uiso   1.00
H29    H     0.47266   0.17421   0.82647   0.00000  Uiso   1.00
H30    H     0.77814   0.41004   0.43150   0.00000  Uiso   1.00
H31    H     0.38216   0.38801   0.52107   0.00000  Uiso   1.00
H32    H     0.32160   0.44714   0.69358   0.00000  Uiso   1.00
H33    H     0.33180   0.30405   0.51519   0.00000  Uiso   1.00
H34    H     0.47666   0.41588   0.32788   0.00000  Uiso   1.00
H35    H     0.28033   0.50784   0.92670   0.00000  Uiso   1.00
H36    H     0.30185   0.20612   0.55050   0.00000  Uiso   1.00
H37    H     0.60732   0.44195   0.15553   0.00000  Uiso   1.00
O38    O     0.32948   0.53010   0.18401   0.00000  Uiso   1.00
O39    O     0.35772   0.13426   0.69043   0.00000  Uiso   1.00
O40    O     0.75850   0.44366   0.17224   0.00000  Uiso   1.00
N41    N     0.41926   0.47533   0.11404   0.00000  Uiso   1.00
N42    N     0.43937   0.19325   0.76233   0.00000  Uiso   1.00
N43    N     0.72497   0.41371   0.39305   0.00000  Uiso   1.00
N44    N     0.32735   0.49250   0.96554   0.00000  Uiso   1.00
N45    N     0.34746   0.21042   0.61383   0.00000  Uiso   1.00
N46    N     0.63305   0.43089   0.24455   0.00000  Uiso   1.00
C47    C     0.96404   0.64072   0.26956   0.00000  Uiso   1.00
C48    C     0.01865   0.60453   0.32819   0.00000  Uiso   1.00
C49    C     0.01338   0.58368   0.46022   0.00000  Uiso   1.00
C50    C     0.06897   0.55143   0.49410   0.00000  Uiso   1.00
C51    C     0.14487   0.49693   0.59960   0.00000  Uiso   1.00
C52    C     0.01312   0.68228   0.23128   0.00000  Uiso   1.00
C53    C     0.00319   0.72679   0.28181   0.00000  Uiso   1.00
C54    C     0.05411   0.75999   0.23408   0.00000  Uiso   1.00
C55    C     0.12139   0.82619   0.18905   0.00000  Uiso   1.00
C56    C     0.93441   0.62151   0.12952   0.00000  Uiso   1.00
C57    C     0.85830   0.61494   0.09447   0.00000  Uiso   1.00
C58    C     0.84296   0.59699   0.96105   0.00000  Uiso   1.00
C59    C     0.78802   0.56884   0.75802   0.00000  Uiso   1.00
C60    C     0.07213   0.62053   0.09492   0.00000  Uiso   1.00
C61    C     0.07737   0.59357   0.23334   0.00000  Uiso   1.00
C62    C     0.13297   0.56134   0.26701   0.00000  Uiso   1.00
C63    C     0.12778   0.54044   0.39907   0.00000  Uiso   1.00
C64    C     0.07183   0.67131   0.13643   0.00000  Uiso   1.00
C65    C     0.12278   0.70445   0.08860   0.00000  Uiso   1.00
C66    C     0.11293   0.74900   0.13905   0.00000  Uiso   1.00
C67    C     0.99312   0.61054   0.03466   0.00000  Uiso   1.00
C68    C     0.97789   0.59260   0.90126   0.00000  Uiso   1.00
C69    C     0.90177   0.58600   0.86602   0.00000  Uiso   1.00
H70    H     0.91833   0.64926   0.34340   0.00000  Uiso   1.00
H71    H     0.96794   0.59218   0.53361   0.00000  Uiso   1.00
H72    H     0.95775   0.73527   0.35521   0.00000  Uiso   1.00
H73    H     0.81288   0.62343   0.16790   0.00000  Uiso   1.00
H74    H     0.04885   0.52407   0.70267   0.00000  Uiso   1.00
H75    H     0.02734   0.82579   0.32647   0.00000  Uiso   1.00
H76    H     0.72186   0.58996   0.93150   0.00000  Uiso   1.00
H77    H     0.11784   0.61199   0.02107   0.00000  Uiso   1.00
H78    H     0.17840   0.55286   0.19358   0.00000  Uiso   1.00
H79    H     0.16820   0.69595   0.01519   0.00000  Uiso   1.00
H80    H     0.02334   0.58412   0.82788   0.00000  Uiso   1.00
H81    H     0.21967   0.49216   0.42670   0.00000  Uiso   1.00
H82    H     0.19815   0.79388   0.05050   0.00000  Uiso   1.00
H83    H     0.89268   0.55805   0.65553   0.00000  Uiso   1.00
O84    O     0.17052   0.46990   0.68401   0.00000  Uiso   1.00
O85    O     0.14228   0.86574   0.19043   0.00000  Uiso   1.00
O86    O     0.74150   0.55634   0.67224   0.00000  Uiso   1.00
N87    N     0.08074   0.52467   0.61404   0.00000  Uiso   1.00
N88    N     0.06063   0.80675   0.26233   0.00000  Uiso   1.00
N89    N     0.77503   0.58629   0.89305   0.00000  Uiso   1.00
N90    N     0.17265   0.50750   0.46554   0.00000  Uiso   1.00
N91    N     0.15254   0.78958   0.11383   0.00000  Uiso   1.00
N92    N     0.86695   0.56911   0.74455   0.00000  Uiso   1.00
C93    C     0.46404   0.85928   0.73044   0.00000  Uiso   1.00
C94    C     0.51865   0.89547   0.67181   0.00000  Uiso   1.00
C95    C     0.51338   0.91632   0.53978   0.00000  Uiso   1.00
C96    C     0.56897   0.94857   0.50590   0.00000  Uiso   1.00
C97    C     0.64487   0.00307   0.40040   0.00000  Uiso   1.00
C98    C     0.51312   0.81772   0.76872   0.00000  Uiso   1.00
C99    C     0.50319   0.77321   0.71819   0.00000  Uiso   1.00
C100   C     0.55411   0.74001   0.76592   0.00000  Uiso   1.00
C101   C     0.62139   0.67381   0.81095   0.00000  Uiso   1.00
C102   C     0.43441   0.87849   0.87048   0.00000  Uiso   1.00
C103   C     0.35830   0.88506   0.90553   0.00000  Uiso   1.00
C104   C     0.34296   0.90301   0.03895   0.00000  Uiso   1.00
C105   C     0.28802   0.93116   0.24198   0.00000  Uiso   1.00
C106   C     0.57213   0.87947   0.90508   0.00000  Uiso   1.00
C107   C     0.57737   0.90643   0.76666   0.00000  Uiso   1.00
C108   C     0.63297   0.93866   0.73299   0.00000  Uiso   1.00
C109   C     0.62778   0.95956   0.60093   0.00000  Uiso   1.00
C110   C     0.57183   0.82869   0.86357   0.00000  Uiso   1.00
C111   C     0.62278   0.79555   0.91140   0.00000  Uiso   1.00
C112   C     0.61293   0.75100   0.86095   0.00000  Uiso   1.00
C113   C     0.49312   0.88946   0.96534   0.00000  Uiso   1.00
C114   C     0.47789   0.90740   0.09874   0.00000  Uiso   1.00
C115   C     0.40177   0.91400   0.13398   0.00000  Uiso   1.00
H116   H     0.41833   0.85074   0.65660   0.00000  Uiso   1.00
H117   H     0.46794   0.90782   0.46639   0.00000  Uiso   1.00
H118   H     0.45775   0.76473   0.64479   0.00000  Uiso   1.00
H119   H     0.31288   0.87657   0.83210   0.00000  Uiso   1.00
H120   H     0.54885   0.97593   0.29733   0.00000  Uiso   1.00
H121   H     0.52734   0.67421   0.67353   0.00000  Uiso   1.00
H122   H     0.22186   0.91004   0.06850   0.00000  Uiso   1.00
H123   H     0.61784   0.88801   0.97893   0.00000  Uiso   1.00
H124   H     0.67840   0.94714   0.80642   0.00000  Uiso   1.00
H125   H     0.66820   0.80405   0.98481   0.00000  Uiso   1.00
H126   H     0.52334   0.91588   0.17212   0.00000  Uiso   1.00
H127   H     0.71967   0.00784   0.57330   0.00000  Uiso   1.00
H128   H     0.69815   0.70612   0.94950   0.00000  Uiso   1.00
H129   H     0.39268   0.94195   0.34447   0.00000  Uiso   1.00
O130   O     0.67052   0.03010   0.31599   0.00000  Uiso   1.00
O131   O     0.64228   0.63426   0.80957   0.00000  Uiso   1.00
O132   O     0.24150   0.94366   0.32776   0.00000  Uiso   1.00
N133   N     0.58074   0.97533   0.38596   0.00000  Uiso   1.00
N134   N     0.56063   0.69325   0.73767   0.00000  Uiso   1.00
N135   N     0.27503   0.91371   0.10695   0.00000  Uiso   1.00
N136   N     0.67265   0.99250   0.53446   0.00000  Uiso   1.00
N137   N     0.65254   0.71042   0.88617   0.00000  Uiso   1.00
N138   N     0.36695   0.93089   0.25545   0.00000  Uiso   1.00
C139   C     0.03596   0.14072   0.23044   0.00000  Uiso   1.00
C140   C     0.98135   0.10453   0.17181   0.00000  Uiso   1.00
C141   C     0.98662   0.08368   0.03978   0.00000  Uiso   1.00
C142   C     0.93103   0.05143   0.00590   0.00000  Uiso   1.00
C143   C     0.85513   0.99693   0.90040   0.00000  Uiso   1.00
C144   C     0.98688   0.18228   0.26872   0.00000  Uiso   1.00
C145   C     0.99681   0.22679   0.21819   0.00000  Uiso   1.00
C146   C     0.94589   0.25999   0.26592   0.00000  Uiso   1.00
C147   C     0.87861   0.32619   0.31095   0.00000  Uiso   1.00
C148   C     0.06559   0.12151   0.37048   0.00000  Uiso   1.00
C149   C     0.14170   0.11494   0.40553   0.00000  Uiso   1.00
C150   C     0.15704   0.09699   0.53895   0.00000  Uiso   1.00
C151   C     0.21198   0.06884   0.74198   0.00000  Uiso   1.00
C152   C     0.92787   0.12053   0.40508   0.00000  Uiso   1.00
C153   C     0.92263   0.09357   0.26666   0.00000  Uiso   1.00
C154   C     0.86703   0.06134   0.23299   0.00000  Uiso   1.00
C155   C     0.87222   0.04044   0.10093   0.00000  Uiso   1.00
C156   C     0.92817   0.17131   0.36357   0.00000  Uiso   1.00
C157   C     0.87722   0.20445   0.41140   0.00000  Uiso   1.00
C158   C     0.88707   0.24900   0.36095   0.00000  Uiso   1.00
C159   C     0.00688   0.11054   0.46534   0.00000  Uiso   1.00
C160   C     0.02211   0.09260   0.59874   0.00000  Uiso   1.00
C161   C     0.09823   0.08600   0.63398   0.00000  Uiso   1.00
H162   H     0.08167   0.14926   0.15660   0.00000  Uiso   1.00
H163   H     0.03206   0.09218   0.96639   0.00000  Uiso   1.00
H164   H     0.04225   0.23527   0.14479   0.00000  Uiso   1.00
H165   H     0.18712   0.12343   0.33210   0.00000  Uiso   1.00
H166   H     0.95115   0.02407   0.79733   0.00000  Uiso   1.00
H167   H     0.97266   0.32579   0.17353   0.00000  Uiso   1.00
H168   H     0.27814   0.08996   0.56850   0.00000  Uiso   1.00
H169   H     0.88216   0.11199   0.47893   0.00000  Uiso   1.00
H170   H     0.82160   0.05286   0.30642   0.00000  Uiso   1.00
H171   H     0.83180   0.19595   0.48481   0.00000  Uiso   1.00
H172   H     0.97666   0.08412   0.67212   0.00000  Uiso   1.00
H173   H     0.78033   0.99216   0.07330   0.00000  Uiso   1.00
H174   H     0.80185   0.29388   0.44950   0.00000  Uiso   1.00
H175   H     0.10732   0.05805   0.84447   0.00000  Uiso   1.00
O176   O     0.82948   0.96990   0.81599   0.00000  Uiso   1.00
O177   O     0.85772   0.36574   0.30957   0.00000  Uiso   1.00
O178   O     0.25850   0.05634   0.82776   0.00000  Uiso   1.00
N179   N     0.91926   0.02467   0.88596   0.00000  Uiso   1.00
N180   N     0.93937   0.30675   0.23767   0.00000  Uiso   1.00
N181   N     0.22497   0.08629   0.60695   0.00000  Uiso   1.00
N182   N     0.82735   0.00750   0.03446   0.00000  Uiso   1.00
N183   N     0.84746   0.28958   0.38617   0.00000  Uiso   1.00
N184   N     0.13305   0.06911   0.75545   0.00000  Uiso   1.00
C185   C     0.46404   0.64072   0.23044   0.00000  Uiso   1.00
C186   C     0.51865   0.60453   0.17181   0.00000  Uiso   1.00
C187   C     0.51338   0.58368   0.03978   0.00000  Uiso   1.00
C188   C     0.56897   0.55143   0.00590   0.00000  Uiso   1.00
C189   C     0.64487   0.49693   0.90040   0.00000  Uiso   1.00
C190   C     0.51312   0.68228   0.26872   0.00000  Uiso   1.00
C191   C     0.50319   0.72679   0.21819   0.00000  Uiso   1.00
C192   C     0.55411   0.75999   0.26592   0.00000  Uiso   1.00
C193   C     0.62139   0.82619   0.31095   0.00000  Uiso   1.00
C194   C     0.43441   0.62151   0.37048   0.00000  Uiso   1.00
C195   C     0.35830   0.61494   0.40553   0.00000  Uiso   1.00
C196   C     0.34296   0.59699   0.53895   0.00000  Uiso   1.00
C197   C     0.28802   0.56884   0.74198   0.00000  Uiso   1.00
C198   C     0.57213   0.62053   0.40508   0.00000  Uiso   1.00
C199   C     0.57737   0.59357   0.26666   0.00000  Uiso   1.00
C200   C     0.63297   0.56134   0.23299   0.00000  Uiso   1.00
C201   C     0.62778   0.54044   0.10093   0.00000  Uiso   1.00
C202   C     0.57183   0.67131   0.36357   0.00000  Uiso   1.00
C203   C     0.62278   0.70445   0.41140   0.00000  Uiso   1.00
C204   C     0.61293   0.74900   0.36095   0.00000  Uiso   1.00
C205   C     0.49312   0.61054   0.46534   0.00000  Uiso   1.00
C206   C     0.47789   0.59260   0.59874   0.00000  Uiso   1.00
C207   C     0.40177   0.58600   0.63398   0.00000  Uiso   1.00
H208   H     0.41833   0.64926   0.15660   0.00000  Uiso   1.00
H209   H     0.46794   0.59218   0.96639   0.00000  Uiso   1.00
H210   H     0.45775   0.73527   0.14479   0.00000  Uiso   1.00
H211   H     0.31288   0.62343   0.33210   0.00000  Uiso   1.00
H212   H     0.54885   0.52407   0.79733   0.00000  Uiso   1.00
H213   H     0.52734   0.82579   0.17353   0.00000  Uiso   1.00
H214   H     0.22186   0.58996   0.56850   0.00000  Uiso   1.00
H215   H     0.61784   0.61199   0.47893   0.00000  Uiso   1.00
H216   H     0.67840   0.55286   0.30642   0.00000  Uiso   1.00
H217   H     0.66820   0.69595   0.48481   0.00000  Uiso   1.00
H218   H     0.52334   0.58412   0.67212   0.00000  Uiso   1.00
H219   H     0.71967   0.49216   0.07330   0.00000  Uiso   1.00
H220   H     0.69815   0.79388   0.44950   0.00000  Uiso   1.00
H221   H     0.39268   0.55805   0.84447   0.00000  Uiso   1.00
O222   O     0.67052   0.46990   0.81599   0.00000  Uiso   1.00
O223   O     0.64228   0.86574   0.30957   0.00000  Uiso   1.00
O224   O     0.24150   0.55634   0.82776   0.00000  Uiso   1.00
N225   N     0.58074   0.52467   0.88596   0.00000  Uiso   1.00
N226   N     0.56063   0.80675   0.23767   0.00000  Uiso   1.00
N227   N     0.27503   0.58629   0.60695   0.00000  Uiso   1.00
N228   N     0.67265   0.50750   0.03446   0.00000  Uiso   1.00
N229   N     0.65254   0.78958   0.38617   0.00000  Uiso   1.00
N230   N     0.36695   0.56911   0.75545   0.00000  Uiso   1.00
C231   C     0.03596   0.35928   0.73044   0.00000  Uiso   1.00
C232   C     0.98135   0.39547   0.67181   0.00000  Uiso   1.00
C233   C     0.98662   0.41632   0.53978   0.00000  Uiso   1.00
C234   C     0.93103   0.44857   0.50590   0.00000  Uiso   1.00
C235   C     0.85513   0.50307   0.40040   0.00000  Uiso   1.00
C236   C     0.98688   0.31772   0.76872   0.00000  Uiso   1.00
C237   C     0.99681   0.27321   0.71819   0.00000  Uiso   1.00
C238   C     0.94589   0.24001   0.76592   0.00000  Uiso   1.00
C239   C     0.87861   0.17381   0.81095   0.00000  Uiso   1.00
C240   C     0.06559   0.37849   0.87048   0.00000  Uiso   1.00
C241   C     0.14170   0.38506   0.90553   0.00000  Uiso   1.00
C242   C     0.15704   0.40301   0.03895   0.00000  Uiso   1.00
C243   C     0.21198   0.43116   0.24198   0.00000  Uiso   1.00
C244   C     0.92787   0.37947   0.90508   0.00000  Uiso   1.00
C245   C     0.92263   0.40643   0.76666   0.00000  Uiso   1.00
C246   C     0.86703   0.43866   0.73299   0.00000  Uiso   1.00
C247   C     0.87222   0.45956   0.60093   0.00000  Uiso   1.00
C248   C     0.92817   0.32869   0.86357   0.00000  Uiso   1.00
C249   C     0.87722   0.29555   0.91140   0.00000  Uiso   1.00
C250   C     0.88707   0.25100   0.86095   0.00000  Uiso   1.00
C251   C     0.00688   0.38946   0.96534   0.00000  Uiso   1.00
C252   C     0.02211   0.40740   0.09874   0.00000  Uiso   1.00
C253   C     0.09823   0.41400   0.13398   0.00000  Uiso   1.00
H254   H     0.08167   0.35074   0.65660   0.00000  Uiso   1.00
H255   H     0.03206   0.40782   0.46639   0.00000  Uiso   1.00
H256   H     0.04225   0.26473   0.64479   0.00000  Uiso   1.00
H257   H     0.18712   0.37657   0.83210   0.00000  Uiso   1.00
H258   H     0.95115   0.47593   0.29733   0.00000  Uiso   1.00
H259   H     0.97266   0.17421   0.67353   0.00000  Uiso   1.00
H260   H     0.27814   0.41004   0.06850   0.00000  Uiso   1.00
H261   H     0.88216   0.38801   0.97893   0.00000  Uiso   1.00
H262   H     0.82160   0.44714   0.80642   0.00000  Uiso   1.00
H263   H     0.83180   0.30405   0.98481   0.00000  Uiso   1.00
H264   H     0.97666   0.41588   0.17212   0.00000  Uiso   1.00
H265   H     0.78033   0.50784   0.57330   0.00000  Uiso   1.00
H266   H     0.80185   0.20612   0.94950   0.00000  Uiso   1.00
H267   H     0.10732   0.44195   0.34447   0.00000  Uiso   1.00
O268   O     0.82948   0.53010   0.31599   0.00000  Uiso   1.00
O269   O     0.85772   0.13426   0.80957   0.00000  Uiso   1.00
O270   O     0.25850   0.44366   0.32776   0.00000  Uiso   1.00
N271   N     0.91926   0.47533   0.38596   0.00000  Uiso   1.00
N272   N     0.93937   0.19325   0.73767   0.00000  Uiso   1.00
N273   N     0.22497   0.41371   0.10695   0.00000  Uiso   1.00
N274   N     0.82735   0.49250   0.53446   0.00000  Uiso   1.00
N275   N     0.84746   0.21042   0.88617   0.00000  Uiso   1.00
N276   N     0.13305   0.43089   0.25545   0.00000  Uiso   1.00
C277   C     0.53596   0.14072   0.26956   0.00000  Uiso   1.00
C278   C     0.48135   0.10453   0.32819   0.00000  Uiso   1.00
C279   C     0.48662   0.08368   0.46022   0.00000  Uiso   1.00
C280   C     0.43103   0.05143   0.49410   0.00000  Uiso   1.00
C281   C     0.35513   0.99693   0.59960   0.00000  Uiso   1.00
C282   C     0.48688   0.18228   0.23128   0.00000  Uiso   1.00
C283   C     0.49681   0.22679   0.28181   0.00000  Uiso   1.00
C284   C     0.44589   0.25999   0.23408   0.00000  Uiso   1.00
C285   C     0.37861   0.32619   0.18905   0.00000  Uiso   1.00
C286   C     0.56559   0.12151   0.12952   0.00000  Uiso   1.00
C287   C     0.64170   0.11494   0.09447   0.00000  Uiso   1.00
C288   C     0.65704   0.09699   0.96105   0.00000  Uiso   1.00
C289   C     0.71198   0.06884   0.75802   0.00000  Uiso   1.00
C290   C     0.42787   0.12053   0.09492   0.00000  Uiso   1.00
C291   C     0.42263   0.09357   0.23334   0.00000  Uiso   1.00
C292   C     0.36703   0.06134   0.26701   0.00000  Uiso   1.00
C293   C     0.37222   0.04044   0.39907   0.00000  Uiso   1.00
C294   C     0.42817   0.17131   0.13643   0.00000  Uiso   1.00
C295   C     0.37722   0.20445   0.08860   0.00000  Uiso   1.00
C296   C     0.38707   0.24900   0.13905   0.00000  Uiso   1.00
C297   C     0.50688   0.11054   0.03466   0.00000  Uiso   1.00
C298   C     0.52211   0.09260   0.90126   0.00000  Uiso   1.00
C299   C     0.59823   0.08600   0.86602   0.00000  Uiso   1.00
H300   H     0.58167   0.14926   0.34340   0.00000  Uiso   1.00
H301   H     0.53206   0.09218   0.53361   0.00000  Uiso   1.00
H302   H     0.54225   0.23527   0.35521   0.00000  Uiso   1.00
H303   H     0.68712   0.12343   0.16790   0.00000  Uiso   1.00
H304   H     0.45115   0.02407   0.70267   0.00000  Uiso   1.00
H305   H     0.47266   0.32579   0.32647   0.00000  Uiso   1.00
H306   H     0.77814   0.08996   0.93150   0.00000  Uiso   1.00
H307   H     0.38216   0.11199   0.02107   0.00000  Uiso   1.00
H308   H     0.32160   0.05286   0.19358   0.00000  Uiso   1.00
H309   H     0.33180   0.19595   0.01519   0.00000  Uiso   1.00
H310   H     0.47666   0.08412   0.82788   0.00000  Uiso   1.00
H311   H     0.28033   0.99216   0.42670   0.00000  Uiso   1.00
H312   H     0.30185   0.29388   0.05050   0.00000  Uiso   1.00
H313   H     0.60732   0.05805   0.65553   0.00000  Uiso   1.00
O314   O     0.32948   0.96990   0.68401   0.00000  Uiso   1.00
O315   O     0.35772   0.36574   0.19043   0.00000  Uiso   1.00
O316   O     0.75850   0.05634   0.67224   0.00000  Uiso   1.00
N317   N     0.41926   0.02467   0.61404   0.00000  Uiso   1.00
N318   N     0.43937   0.30675   0.26233   0.00000  Uiso   1.00
N319   N     0.72497   0.08629   0.89305   0.00000  Uiso   1.00
N320   N     0.32735   0.00750   0.46554   0.00000  Uiso   1.00
N321   N     0.34746   0.28958   0.11383   0.00000  Uiso   1.00
N322   N     0.63305   0.06911   0.74455   0.00000  Uiso   1.00
C323   C     0.96404   0.85928   0.76956   0.00000  Uiso   1.00
C324   C     0.01865   0.89547   0.82819   0.00000  Uiso   1.00
C325   C     0.01338   0.91632   0.96022   0.00000  Uiso   1.00
C326   C     0.06897   0.94857   0.99410   0.00000  Uiso   1.00
C327   C     0.14487   0.00307   0.09960   0.00000  Uiso   1.00
C328   C     0.01312   0.81772   0.73128   0.00000  Uiso   1.00
C329   C     0.00319   0.77321   0.78181   0.00000  Uiso   1.00
C330   C     0.05411   0.74001   0.73408   0.00000  Uiso   1.00
C331   C     0.12139   0.67381   0.68905   0.00000  Uiso   1.00
C332   C     0.93441   0.87849   0.62952   0.00000  Uiso   1.00
C333   C     0.85830   0.88506   0.59447   0.00000  Uiso   1.00
C334   C     0.84296   0.90301   0.46105   0.00000  Uiso   1.00
C335   C     0.78802   0.93116   0.25802   0.00000  Uiso   1.00
C336   C     0.07213   0.87947   0.59492   0.00000  Uiso   1.00
C337   C     0.07737   0.90643   0.73334   0.00000  Uiso   1.00
C338   C     0.13297   0.93866   0.76701   0.00000  Uiso   1.00
C339   C     0.12778   0.95956   0.89907   0.00000  Uiso   1.00
C340   C     0.07183   0.82869   0.63643   0.00000  Uiso   1.00
C341   C     0.12278   0.79555   0.58860   0.00000  Uiso   1.00
C342   C     0.11293   0.75100   0.63905   0.00000  Uiso   1.00
C343   C     0.99312   0.88946   0.53466   0.00000  Uiso   1.00
C344   C     0.97789   0.90740   0.40126   0.00000  Uiso   1.00
C345   C     0.90177   0.91400   0.36602   0.00000  Uiso   1.00
H346   H     0.91833   0.85074   0.84340   0.00000  Uiso   1.00
H347   H     0.96794   0.90782   0.03361   0.00000  Uiso   1.00
H348   H     0.95775   0.76473   0.85521   0.00000  Uiso   1.00
H349   H     0.81288   0.87657   0.66790   0.00000  Uiso   1.00
H350   H     0.04885   0.97593   0.20267   0.00000  Uiso   1.00
H351   H     0.02734   0.67421   0.82647   0.00000  Uiso   1.00
H352   H     0.72186   0.91004   0.43150   0.00000  Uiso   1.00
H353   H     0.11784   0.88801   0.52107   0.00000  Uiso   1.00
H354   H     0.17840   0.94714   0.69358   0.00000  Uiso   1.00
H355   H     0.16820   0.80405   0.51519   0.00000  Uiso   1.00
H356   H     0.02334   0.91588   0.32788   0.00000  Uiso   1.00
H357   H     0.21967   0.00784   0.92670   0.00000  Uiso   1.00
H358   H     0.19815   0.70612   0.55050   0.00000  Uiso   1.00
H359   H     0.89268   0.94195   0.15553   0.00000  Uiso   1.00
O360   O     0.17052   0.03010   0.18401   0.00000  Uiso   1.00
O361   O     0.14228   0.63426   0.69043   0.00000  Uiso   1.00
O362   O     0.74150   0.94366   0.17224   0.00000  Uiso   1.00
N363   N     0.08074   0.97533   0.11404   0.00000  Uiso   1.00
N364   N     0.06063   0.69325   0.76233   0.00000  Uiso   1.00
N365   N     0.77503   0.91371   0.39305   0.00000  Uiso   1.00
N366   N     0.17265   0.99250   0.96554   0.00000  Uiso   1.00
N367   N     0.15254   0.71042   0.61383   0.00000  Uiso   1.00
N368   N     0.86695   0.93089   0.24455   0.00000  Uiso   1.00
