data_job_01932
_audit_creation_date              2018-12-19
_audit_creation_method            'Materials Studio'
_symmetry_space_group_name_H-M    'P1'
_symmetry_Int_Tables_number       1
_symmetry_cell_setting            triclinic
loop_
_symmetry_equiv_pos_as_xyz
  x,y,z
_cell_length_a                    26.3300
_cell_length_b                    26.3300
_cell_length_c                    6.9973
_cell_angle_alpha                 90.0000
_cell_angle_beta                  90.0000
_cell_angle_gamma                 120.0000
loop_
_atom_site_label
_atom_site_type_symbol
_atom_site_fract_x
_atom_site_fract_y
_atom_site_fract_z
_atom_site_U_iso_or_equiv
_atom_site_adp_type
_atom_site_occupancy
C1     C     0.10373   0.37642   0.72011   0.00000  Uiso   1.00
C2     C     0.09197   0.42688   0.75281   0.00000  Uiso   1.00
C3     C     0.09313   0.46499   0.61359   0.00000  Uiso   1.00
C4     C     0.08117   0.50829   0.67237   0.00000  Uiso   1.00
C5     C     0.06486   0.58592   0.69408   0.00000  Uiso   1.00
C6     C     0.15361   0.38719   0.85513   0.00000  Uiso   1.00
C7     C     0.20658   0.39190   0.80194   0.00000  Uiso   1.00
C8     C     0.24651   0.40178   0.94688   0.00000  Uiso   1.00
C9     C     0.32588   0.41773   0.12747   0.00000  Uiso   1.00
C10    C     0.04966   0.32146   0.79359   0.00000  Uiso   1.00
C11    C     0.01523   0.27089   0.68868   0.00000  Uiso   1.00
C12    C     0.96765   0.22543   0.78182   0.00000  Uiso   1.00
C13    C     0.88562   0.13932   0.86685   0.00000  Uiso   1.00
C14    C     0.08044   0.38557   0.07208   0.00000  Uiso   1.00
C15    C     0.07932   0.43186   0.94399   0.00000  Uiso   1.00
C16    C     0.06736   0.47512   0.00300   0.00000  Uiso   1.00
C17    C     0.06849   0.51328   0.86389   0.00000  Uiso   1.00
C18    C     0.14096   0.39216   0.04631   0.00000  Uiso   1.00
C19    C     0.18082   0.40203   0.19136   0.00000  Uiso   1.00
C20    C     0.23384   0.40676   0.13840   0.00000  Uiso   1.00
C21    C     0.03701   0.32643   0.98477   0.00000  Uiso   1.00
C22    C     0.98947   0.28103   0.07809   0.00000  Uiso   1.00
C23    C     0.95497   0.23041   0.97334   0.00000  Uiso   1.00
H24    H     0.11358   0.37254   0.57127   0.00000  Uiso   1.00
H25    H     0.10292   0.46113   0.46565   0.00000  Uiso   1.00
H26    H     0.21636   0.38805   0.65399   0.00000  Uiso   1.00
H27    H     0.02504   0.26706   0.54074   0.00000  Uiso   1.00
H28    H     0.08555   0.56154   0.43288   0.00000  Uiso   1.00
H29    H     0.32472   0.40743   0.83000   0.00000  Uiso   1.00
H30    H     0.92129   0.15231   0.59119   0.00000  Uiso   1.00
H31    H     0.07059   0.38944   0.22093   0.00000  Uiso   1.00
H32    H     0.05757   0.47895   0.15096   0.00000  Uiso   1.00
H33    H     0.17101   0.40587   0.33929   0.00000  Uiso   1.00
H34    H     0.97969   0.28489   0.22604   0.00000  Uiso   1.00
H35    H     0.04874   0.57602   0.98909   0.00000  Uiso   1.00
H36    H     0.28792   0.42190   0.38621   0.00000  Uiso   1.00
H37    H     0.88448   0.16678   0.14741   0.00000  Uiso   1.00
O38    O     0.05937   0.62737   0.65325   0.00000  Uiso   1.00
O39    O     0.37316   0.42516   0.17425   0.00000  Uiso   1.00
O40    O     0.84386   0.09046   0.86094   0.00000  Uiso   1.00
N41    N     0.07866   0.55266   0.57338   0.00000  Uiso   1.00
N42    N     0.30228   0.40858   0.94466   0.00000  Uiso   1.00
N43    N     0.92511   0.17006   0.72141   0.00000  Uiso   1.00
N44    N     0.05885   0.56044   0.87267   0.00000  Uiso   1.00
N45    N     0.28247   0.41637   0.24395   0.00000  Uiso   1.00
N46    N     0.90530   0.17785   0.02070   0.00000  Uiso   1.00
C47    C     0.62358   0.72732   0.72011   0.00000  Uiso   1.00
C48    C     0.57312   0.66509   0.75281   0.00000  Uiso   1.00
C49    C     0.53501   0.62814   0.61359   0.00000  Uiso   1.00
C50    C     0.49171   0.57287   0.67237   0.00000  Uiso   1.00
C51    C     0.41408   0.47894   0.69408   0.00000  Uiso   1.00
C52    C     0.61281   0.76642   0.85513   0.00000  Uiso   1.00
C53    C     0.60810   0.81468   0.80194   0.00000  Uiso   1.00
C54    C     0.59822   0.84472   0.94688   0.00000  Uiso   1.00
C55    C     0.58227   0.90814   0.12747   0.00000  Uiso   1.00
C56    C     0.67854   0.72820   0.79359   0.00000  Uiso   1.00
C57    C     0.72911   0.74434   0.68868   0.00000  Uiso   1.00
C58    C     0.77457   0.74222   0.78182   0.00000  Uiso   1.00
C59    C     0.86068   0.74629   0.86685   0.00000  Uiso   1.00
C60    C     0.61443   0.69487   0.07208   0.00000  Uiso   1.00
C61    C     0.56814   0.64747   0.94399   0.00000  Uiso   1.00
C62    C     0.52488   0.59224   0.00300   0.00000  Uiso   1.00
C63    C     0.48672   0.55522   0.86389   0.00000  Uiso   1.00
C64    C     0.60784   0.74880   0.04631   0.00000  Uiso   1.00
C65    C     0.59797   0.77878   0.19136   0.00000  Uiso   1.00
C66    C     0.59324   0.82707   0.13840   0.00000  Uiso   1.00
C67    C     0.67357   0.71058   0.98477   0.00000  Uiso   1.00
C68    C     0.71897   0.70844   0.07809   0.00000  Uiso   1.00
C69    C     0.76959   0.72456   0.97334   0.00000  Uiso   1.00
H70    H     0.62746   0.74104   0.57127   0.00000  Uiso   1.00
H71    H     0.53887   0.64180   0.46565   0.00000  Uiso   1.00
H72    H     0.61195   0.82831   0.65399   0.00000  Uiso   1.00
H73    H     0.73294   0.75797   0.54074   0.00000  Uiso   1.00
H74    H     0.43846   0.52400   0.43288   0.00000  Uiso   1.00
H75    H     0.59257   0.91729   0.83000   0.00000  Uiso   1.00
H76    H     0.84769   0.76898   0.59119   0.00000  Uiso   1.00
H77    H     0.61056   0.68115   0.22093   0.00000  Uiso   1.00
H78    H     0.52105   0.57862   0.15096   0.00000  Uiso   1.00
H79    H     0.59413   0.76514   0.33929   0.00000  Uiso   1.00
H80    H     0.71511   0.69480   0.22604   0.00000  Uiso   1.00
H81    H     0.42398   0.47272   0.98909   0.00000  Uiso   1.00
H82    H     0.57810   0.86602   0.38621   0.00000  Uiso   1.00
H83    H     0.83322   0.71770   0.14741   0.00000  Uiso   1.00
O84    O     0.37263   0.43200   0.65325   0.00000  Uiso   1.00
O85    O     0.57484   0.94799   0.17425   0.00000  Uiso   1.00
O86    O     0.90954   0.75340   0.86094   0.00000  Uiso   1.00
N87    N     0.44734   0.52600   0.57338   0.00000  Uiso   1.00
N88    N     0.59142   0.89370   0.94466   0.00000  Uiso   1.00
N89    N     0.82994   0.75505   0.72141   0.00000  Uiso   1.00
N90    N     0.43956   0.49841   0.87267   0.00000  Uiso   1.00
N91    N     0.58363   0.86611   0.24395   0.00000  Uiso   1.00
N92    N     0.82215   0.72746   0.02070   0.00000  Uiso   1.00
C93    C     0.27268   0.89627   0.72011   0.00000  Uiso   1.00
C94    C     0.33491   0.90803   0.75281   0.00000  Uiso   1.00
C95    C     0.37186   0.90687   0.61359   0.00000  Uiso   1.00
C96    C     0.42713   0.91883   0.67237   0.00000  Uiso   1.00
C97    C     0.52106   0.93514   0.69408   0.00000  Uiso   1.00
C98    C     0.23358   0.84639   0.85513   0.00000  Uiso   1.00
C99    C     0.18532   0.79342   0.80194   0.00000  Uiso   1.00
C100   C     0.15528   0.75349   0.94688   0.00000  Uiso   1.00
C101   C     0.09186   0.67412   0.12747   0.00000  Uiso   1.00
C102   C     0.27180   0.95034   0.79359   0.00000  Uiso   1.00
C103   C     0.25566   0.98477   0.68868   0.00000  Uiso   1.00
C104   C     0.25778   0.03235   0.78182   0.00000  Uiso   1.00
C105   C     0.25371   0.11438   0.86685   0.00000  Uiso   1.00
C106   C     0.30513   0.91956   0.07208   0.00000  Uiso   1.00
C107   C     0.35253   0.92068   0.94399   0.00000  Uiso   1.00
C108   C     0.40776   0.93264   0.00300   0.00000  Uiso   1.00
C109   C     0.44478   0.93151   0.86389   0.00000  Uiso   1.00
C110   C     0.25120   0.85904   0.04631   0.00000  Uiso   1.00
C111   C     0.22122   0.81918   0.19136   0.00000  Uiso   1.00
C112   C     0.17293   0.76616   0.13840   0.00000  Uiso   1.00
C113   C     0.28942   0.96299   0.98477   0.00000  Uiso   1.00
C114   C     0.29156   0.01053   0.07809   0.00000  Uiso   1.00
C115   C     0.27544   0.04503   0.97334   0.00000  Uiso   1.00
H116   H     0.25896   0.88642   0.57127   0.00000  Uiso   1.00
H117   H     0.35820   0.89708   0.46565   0.00000  Uiso   1.00
H118   H     0.17169   0.78364   0.65399   0.00000  Uiso   1.00
H119   H     0.24203   0.97496   0.54074   0.00000  Uiso   1.00
H120   H     0.47600   0.91445   0.43288   0.00000  Uiso   1.00
H121   H     0.08271   0.67528   0.83000   0.00000  Uiso   1.00
H122   H     0.23102   0.07871   0.59119   0.00000  Uiso   1.00
H123   H     0.31885   0.92941   0.22093   0.00000  Uiso   1.00
H124   H     0.42138   0.94243   0.15096   0.00000  Uiso   1.00
H125   H     0.23486   0.82899   0.33929   0.00000  Uiso   1.00
H126   H     0.30520   0.02031   0.22604   0.00000  Uiso   1.00
H127   H     0.52728   0.95126   0.98909   0.00000  Uiso   1.00
H128   H     0.13398   0.71208   0.38621   0.00000  Uiso   1.00
H129   H     0.28230   0.11552   0.14741   0.00000  Uiso   1.00
O130   O     0.56800   0.94063   0.65325   0.00000  Uiso   1.00
O131   O     0.05201   0.62684   0.17425   0.00000  Uiso   1.00
O132   O     0.24660   0.15614   0.86094   0.00000  Uiso   1.00
N133   N     0.47400   0.92134   0.57338   0.00000  Uiso   1.00
N134   N     0.10630   0.69772   0.94466   0.00000  Uiso   1.00
N135   N     0.24495   0.07489   0.72141   0.00000  Uiso   1.00
N136   N     0.50159   0.94115   0.87267   0.00000  Uiso   1.00
N137   N     0.13389   0.71753   0.24395   0.00000  Uiso   1.00
N138   N     0.27254   0.09470   0.02070   0.00000  Uiso   1.00
C139   C     0.89627   0.62358   0.22011   0.00000  Uiso   1.00
C140   C     0.90803   0.57312   0.25281   0.00000  Uiso   1.00
C141   C     0.90687   0.53501   0.11359   0.00000  Uiso   1.00
C142   C     0.91883   0.49171   0.17237   0.00000  Uiso   1.00
C143   C     0.93514   0.41408   0.19408   0.00000  Uiso   1.00
C144   C     0.84639   0.61281   0.35513   0.00000  Uiso   1.00
C145   C     0.79342   0.60810   0.30194   0.00000  Uiso   1.00
C146   C     0.75349   0.59822   0.44688   0.00000  Uiso   1.00
C147   C     0.67412   0.58227   0.62747   0.00000  Uiso   1.00
C148   C     0.95034   0.67854   0.29359   0.00000  Uiso   1.00
C149   C     0.98477   0.72911   0.18868   0.00000  Uiso   1.00
C150   C     0.03235   0.77457   0.28182   0.00000  Uiso   1.00
C151   C     0.11438   0.86068   0.36685   0.00000  Uiso   1.00
C152   C     0.91956   0.61443   0.57208   0.00000  Uiso   1.00
C153   C     0.92068   0.56814   0.44399   0.00000  Uiso   1.00
C154   C     0.93264   0.52488   0.50300   0.00000  Uiso   1.00
C155   C     0.93151   0.48672   0.36389   0.00000  Uiso   1.00
C156   C     0.85904   0.60784   0.54631   0.00000  Uiso   1.00
C157   C     0.81918   0.59797   0.69136   0.00000  Uiso   1.00
C158   C     0.76616   0.59324   0.63840   0.00000  Uiso   1.00
C159   C     0.96299   0.67357   0.48477   0.00000  Uiso   1.00
C160   C     0.01053   0.71897   0.57809   0.00000  Uiso   1.00
C161   C     0.04503   0.76959   0.47334   0.00000  Uiso   1.00
H162   H     0.88642   0.62746   0.07127   0.00000  Uiso   1.00
H163   H     0.89708   0.53887   0.96565   0.00000  Uiso   1.00
H164   H     0.78364   0.61195   0.15399   0.00000  Uiso   1.00
H165   H     0.97496   0.73294   0.04074   0.00000  Uiso   1.00
H166   H     0.91445   0.43846   0.93288   0.00000  Uiso   1.00
H167   H     0.67528   0.59257   0.33000   0.00000  Uiso   1.00
H168   H     0.07871   0.84769   0.09119   0.00000  Uiso   1.00
H169   H     0.92941   0.61056   0.72093   0.00000  Uiso   1.00
H170   H     0.94243   0.52105   0.65096   0.00000  Uiso   1.00
H171   H     0.82899   0.59413   0.83929   0.00000  Uiso   1.00
H172   H     0.02031   0.71511   0.72604   0.00000  Uiso   1.00
H173   H     0.95126   0.42398   0.48909   0.00000  Uiso   1.00
H174   H     0.71208   0.57810   0.88621   0.00000  Uiso   1.00
H175   H     0.11552   0.83322   0.64741   0.00000  Uiso   1.00
O176   O     0.94063   0.37263   0.15325   0.00000  Uiso   1.00
O177   O     0.62684   0.57484   0.67425   0.00000  Uiso   1.00
O178   O     0.15614   0.90954   0.36094   0.00000  Uiso   1.00
N179   N     0.92134   0.44734   0.07338   0.00000  Uiso   1.00
N180   N     0.69772   0.59142   0.44466   0.00000  Uiso   1.00
N181   N     0.07489   0.82994   0.22141   0.00000  Uiso   1.00
N182   N     0.94115   0.43956   0.37267   0.00000  Uiso   1.00
N183   N     0.71753   0.58363   0.74395   0.00000  Uiso   1.00
N184   N     0.09470   0.82215   0.52070   0.00000  Uiso   1.00
C185   C     0.37642   0.27268   0.22011   0.00000  Uiso   1.00
C186   C     0.42688   0.33491   0.25281   0.00000  Uiso   1.00
C187   C     0.46499   0.37186   0.11359   0.00000  Uiso   1.00
C188   C     0.50829   0.42713   0.17237   0.00000  Uiso   1.00
C189   C     0.58592   0.52106   0.19408   0.00000  Uiso   1.00
C190   C     0.38719   0.23358   0.35513   0.00000  Uiso   1.00
C191   C     0.39190   0.18532   0.30194   0.00000  Uiso   1.00
C192   C     0.40178   0.15528   0.44688   0.00000  Uiso   1.00
C193   C     0.41773   0.09186   0.62747   0.00000  Uiso   1.00
C194   C     0.32146   0.27180   0.29359   0.00000  Uiso   1.00
C195   C     0.27089   0.25566   0.18868   0.00000  Uiso   1.00
C196   C     0.22543   0.25778   0.28182   0.00000  Uiso   1.00
C197   C     0.13932   0.25371   0.36685   0.00000  Uiso   1.00
C198   C     0.38557   0.30513   0.57208   0.00000  Uiso   1.00
C199   C     0.43186   0.35253   0.44399   0.00000  Uiso   1.00
C200   C     0.47512   0.40776   0.50300   0.00000  Uiso   1.00
C201   C     0.51328   0.44478   0.36389   0.00000  Uiso   1.00
C202   C     0.39216   0.25120   0.54631   0.00000  Uiso   1.00
C203   C     0.40203   0.22122   0.69136   0.00000  Uiso   1.00
C204   C     0.40676   0.17293   0.63840   0.00000  Uiso   1.00
C205   C     0.32643   0.28942   0.48477   0.00000  Uiso   1.00
C206   C     0.28103   0.29156   0.57809   0.00000  Uiso   1.00
C207   C     0.23041   0.27544   0.47334   0.00000  Uiso   1.00
H208   H     0.37254   0.25896   0.07127   0.00000  Uiso   1.00
H209   H     0.46113   0.35820   0.96565   0.00000  Uiso   1.00
H210   H     0.38805   0.17169   0.15399   0.00000  Uiso   1.00
H211   H     0.26706   0.24203   0.04074   0.00000  Uiso   1.00
H212   H     0.56154   0.47600   0.93288   0.00000  Uiso   1.00
H213   H     0.40743   0.08271   0.33000   0.00000  Uiso   1.00
H214   H     0.15231   0.23102   0.09119   0.00000  Uiso   1.00
H215   H     0.38944   0.31885   0.72093   0.00000  Uiso   1.00
H216   H     0.47895   0.42138   0.65096   0.00000  Uiso   1.00
H217   H     0.40587   0.23486   0.83929   0.00000  Uiso   1.00
H218   H     0.28489   0.30520   0.72604   0.00000  Uiso   1.00
H219   H     0.57602   0.52728   0.48909   0.00000  Uiso   1.00
H220   H     0.42190   0.13398   0.88621   0.00000  Uiso   1.00
H221   H     0.16678   0.28230   0.64741   0.00000  Uiso   1.00
O222   O     0.62737   0.56800   0.15325   0.00000  Uiso   1.00
O223   O     0.42516   0.05201   0.67425   0.00000  Uiso   1.00
O224   O     0.09046   0.24660   0.36094   0.00000  Uiso   1.00
N225   N     0.55266   0.47400   0.07338   0.00000  Uiso   1.00
N226   N     0.40858   0.10630   0.44466   0.00000  Uiso   1.00
N227   N     0.17006   0.24495   0.22141   0.00000  Uiso   1.00
N228   N     0.56044   0.50159   0.37267   0.00000  Uiso   1.00
N229   N     0.41637   0.13389   0.74395   0.00000  Uiso   1.00
N230   N     0.17785   0.27254   0.52070   0.00000  Uiso   1.00
C231   C     0.72732   0.10373   0.22011   0.00000  Uiso   1.00
C232   C     0.66509   0.09197   0.25281   0.00000  Uiso   1.00
C233   C     0.62814   0.09313   0.11359   0.00000  Uiso   1.00
C234   C     0.57287   0.08117   0.17237   0.00000  Uiso   1.00
C235   C     0.47894   0.06486   0.19408   0.00000  Uiso   1.00
C236   C     0.76642   0.15361   0.35513   0.00000  Uiso   1.00
C237   C     0.81468   0.20658   0.30194   0.00000  Uiso   1.00
C238   C     0.84472   0.24651   0.44688   0.00000  Uiso   1.00
C239   C     0.90814   0.32588   0.62747   0.00000  Uiso   1.00
C240   C     0.72820   0.04966   0.29359   0.00000  Uiso   1.00
C241   C     0.74434   0.01523   0.18868   0.00000  Uiso   1.00
C242   C     0.74222   0.96765   0.28182   0.00000  Uiso   1.00
C243   C     0.74629   0.88562   0.36685   0.00000  Uiso   1.00
C244   C     0.69487   0.08044   0.57208   0.00000  Uiso   1.00
C245   C     0.64747   0.07932   0.44399   0.00000  Uiso   1.00
C246   C     0.59224   0.06736   0.50300   0.00000  Uiso   1.00
C247   C     0.55522   0.06849   0.36389   0.00000  Uiso   1.00
C248   C     0.74880   0.14096   0.54631   0.00000  Uiso   1.00
C249   C     0.77878   0.18082   0.69136   0.00000  Uiso   1.00
C250   C     0.82707   0.23384   0.63840   0.00000  Uiso   1.00
C251   C     0.71058   0.03701   0.48477   0.00000  Uiso   1.00
C252   C     0.70844   0.98947   0.57809   0.00000  Uiso   1.00
C253   C     0.72456   0.95497   0.47334   0.00000  Uiso   1.00
H254   H     0.74104   0.11358   0.07127   0.00000  Uiso   1.00
H255   H     0.64180   0.10292   0.96565   0.00000  Uiso   1.00
H256   H     0.82831   0.21636   0.15399   0.00000  Uiso   1.00
H257   H     0.75797   0.02504   0.04074   0.00000  Uiso   1.00
H258   H     0.52400   0.08555   0.93288   0.00000  Uiso   1.00
H259   H     0.91729   0.32472   0.33000   0.00000  Uiso   1.00
H260   H     0.76898   0.92129   0.09119   0.00000  Uiso   1.00
H261   H     0.68115   0.07059   0.72093   0.00000  Uiso   1.00
H262   H     0.57862   0.05757   0.65096   0.00000  Uiso   1.00
H263   H     0.76514   0.17101   0.83929   0.00000  Uiso   1.00
H264   H     0.69480   0.97969   0.72604   0.00000  Uiso   1.00
H265   H     0.47272   0.04874   0.48909   0.00000  Uiso   1.00
H266   H     0.86602   0.28792   0.88621   0.00000  Uiso   1.00
H267   H     0.71770   0.88448   0.64741   0.00000  Uiso   1.00
O268   O     0.43200   0.05937   0.15325   0.00000  Uiso   1.00
O269   O     0.94799   0.37316   0.67425   0.00000  Uiso   1.00
O270   O     0.75340   0.84386   0.36094   0.00000  Uiso   1.00
N271   N     0.52600   0.07866   0.07338   0.00000  Uiso   1.00
N272   N     0.89370   0.30228   0.44466   0.00000  Uiso   1.00
N273   N     0.75505   0.92511   0.22141   0.00000  Uiso   1.00
N274   N     0.49841   0.05885   0.37267   0.00000  Uiso   1.00
N275   N     0.86611   0.28247   0.74395   0.00000  Uiso   1.00
N276   N     0.72746   0.90530   0.52070   0.00000  Uiso   1.00
