data_job_02382
_audit_creation_date              2018-12-19
_audit_creation_method            'Materials Studio'
_symmetry_space_group_name_H-M    'P1'
_symmetry_Int_Tables_number       1
_symmetry_cell_setting            triclinic
loop_
_symmetry_equiv_pos_as_xyz
  x,y,z
_cell_length_a                    27.8415
_cell_length_b                    10.0815
_cell_length_c                    19.3885
_cell_angle_alpha                 90.0000
_cell_angle_beta                  90.0000
_cell_angle_gamma                 90.0000
loop_
_atom_site_label
_atom_site_type_symbol
_atom_site_fract_x
_atom_site_fract_y
_atom_site_fract_z
_atom_site_U_iso_or_equiv
_atom_site_adp_type
_atom_site_occupancy
C1     C     0.15430   0.01401   0.81806   0.00000  Uiso   1.00
C2     C     0.12634   0.12180   0.78020   0.00000  Uiso   1.00
C3     C     0.13220   0.25748   0.78888   0.00000  Uiso   1.00
C4     C     0.10315   0.33977   0.74942   0.00000  Uiso   1.00
C5     C     0.06484   0.51499   0.69773   0.00000  Uiso   1.00
C6     C     0.11681   0.92676   0.85311   0.00000  Uiso   1.00
C7     C     0.11465   0.89844   0.92310   0.00000  Uiso   1.00
C8     C     0.07758   0.81653   0.94502   0.00000  Uiso   1.00
C9     C     0.02450   0.68887   0.00652   0.00000  Uiso   1.00
C10    C     0.17725   0.92830   0.76227   0.00000  Uiso   1.00
C11    C     0.22593   0.90124   0.75587   0.00000  Uiso   1.00
C12    C     0.23975   0.82060   0.70131   0.00000  Uiso   1.00
C13    C     0.28052   0.69534   0.62176   0.00000  Uiso   1.00
C14    C     0.09230   0.91889   0.73255   0.00000  Uiso   1.00
C15    C     0.09266   0.07013   0.73376   0.00000  Uiso   1.00
C16    C     0.06360   0.15224   0.69428   0.00000  Uiso   1.00
C17    C     0.06941   0.28802   0.70289   0.00000  Uiso   1.00
C18    C     0.08313   0.87509   0.80668   0.00000  Uiso   1.00
C19    C     0.04606   0.79320   0.82850   0.00000  Uiso   1.00
C20    C     0.04384   0.76477   0.89850   0.00000  Uiso   1.00
C21    C     0.14358   0.87663   0.71582   0.00000  Uiso   1.00
C22    C     0.15733   0.79601   0.66127   0.00000  Uiso   1.00
C23    C     0.20601   0.76884   0.65479   0.00000  Uiso   1.00
H24    H     0.18052   0.05423   0.85422   0.00000  Uiso   1.00
H25    H     0.15826   0.29742   0.82483   0.00000  Uiso   1.00
H26    H     0.14072   0.93842   0.95902   0.00000  Uiso   1.00
H27    H     0.25198   0.94124   0.79182   0.00000  Uiso   1.00
H28    H     0.11872   0.54426   0.77178   0.00000  Uiso   1.00
H29    H     0.08175   0.78726   0.05474   0.00000  Uiso   1.00
H30    H     0.31635   0.79318   0.70216   0.00000  Uiso   1.00
H31    H     0.06607   0.87866   0.69640   0.00000  Uiso   1.00
H32    H     0.03754   0.11223   0.65834   0.00000  Uiso   1.00
H33    H     0.02000   0.75323   0.79254   0.00000  Uiso   1.00
H34    H     0.13126   0.75605   0.62534   0.00000  Uiso   1.00
H35    H     0.02074   0.39395   0.63666   0.00000  Uiso   1.00
H36    H     0.98377   0.63694   0.91962   0.00000  Uiso   1.00
H37    H     0.21837   0.64288   0.56704   0.00000  Uiso   1.00
O38    O     0.05301   0.62591   0.68205   0.00000  Uiso   1.00
O39    O     0.00452   0.63274   0.05328   0.00000  Uiso   1.00
O40    O     0.31231   0.64053   0.59071   0.00000  Uiso   1.00
N41    N     0.09958   0.47683   0.74519   0.00000  Uiso   1.00
N42    N     0.06502   0.76909   0.00974   0.00000  Uiso   1.00
N43    N     0.28435   0.77461   0.68012   0.00000  Uiso   1.00
N44    N     0.04686   0.39595   0.67248   0.00000  Uiso   1.00
N45    N     0.01229   0.68821   0.93703   0.00000  Uiso   1.00
N46    N     0.23162   0.69373   0.60741   0.00000  Uiso   1.00
C47    C     0.34570   0.48599   0.31806   0.00000  Uiso   1.00
C48    C     0.37366   0.37820   0.28020   0.00000  Uiso   1.00
C49    C     0.36780   0.24252   0.28888   0.00000  Uiso   1.00
C50    C     0.39685   0.16023   0.24942   0.00000  Uiso   1.00
C51    C     0.43516   0.98501   0.19773   0.00000  Uiso   1.00
C52    C     0.38319   0.57324   0.35311   0.00000  Uiso   1.00
C53    C     0.38535   0.60156   0.42310   0.00000  Uiso   1.00
C54    C     0.42242   0.68347   0.44502   0.00000  Uiso   1.00
C55    C     0.47550   0.81113   0.50652   0.00000  Uiso   1.00
C56    C     0.32275   0.57170   0.26227   0.00000  Uiso   1.00
C57    C     0.27407   0.59876   0.25587   0.00000  Uiso   1.00
C58    C     0.26025   0.67940   0.20131   0.00000  Uiso   1.00
C59    C     0.21948   0.80466   0.12176   0.00000  Uiso   1.00
C60    C     0.40770   0.58111   0.23255   0.00000  Uiso   1.00
C61    C     0.40734   0.42987   0.23376   0.00000  Uiso   1.00
C62    C     0.43640   0.34776   0.19428   0.00000  Uiso   1.00
C63    C     0.43059   0.21198   0.20289   0.00000  Uiso   1.00
C64    C     0.41687   0.62491   0.30668   0.00000  Uiso   1.00
C65    C     0.45394   0.70680   0.32850   0.00000  Uiso   1.00
C66    C     0.45616   0.73523   0.39850   0.00000  Uiso   1.00
C67    C     0.35642   0.62337   0.21582   0.00000  Uiso   1.00
C68    C     0.34267   0.70399   0.16127   0.00000  Uiso   1.00
C69    C     0.29399   0.73116   0.15479   0.00000  Uiso   1.00
H70    H     0.31948   0.44577   0.35422   0.00000  Uiso   1.00
H71    H     0.34174   0.20258   0.32483   0.00000  Uiso   1.00
H72    H     0.35928   0.56158   0.45902   0.00000  Uiso   1.00
H73    H     0.24802   0.55876   0.29182   0.00000  Uiso   1.00
H74    H     0.38128   0.95574   0.27178   0.00000  Uiso   1.00
H75    H     0.41825   0.71274   0.55474   0.00000  Uiso   1.00
H76    H     0.18365   0.70682   0.20216   0.00000  Uiso   1.00
H77    H     0.43393   0.62134   0.19640   0.00000  Uiso   1.00
H78    H     0.46246   0.38777   0.15834   0.00000  Uiso   1.00
H79    H     0.48000   0.74677   0.29254   0.00000  Uiso   1.00
H80    H     0.36874   0.74395   0.12534   0.00000  Uiso   1.00
H81    H     0.47926   0.10605   0.13666   0.00000  Uiso   1.00
H82    H     0.51623   0.86306   0.41962   0.00000  Uiso   1.00
H83    H     0.28163   0.85712   0.06704   0.00000  Uiso   1.00
O84    O     0.44699   0.87409   0.18205   0.00000  Uiso   1.00
O85    O     0.49548   0.86726   0.55328   0.00000  Uiso   1.00
O86    O     0.18769   0.85947   0.09071   0.00000  Uiso   1.00
N87    N     0.40042   0.02317   0.24519   0.00000  Uiso   1.00
N88    N     0.43498   0.73091   0.50974   0.00000  Uiso   1.00
N89    N     0.21565   0.72539   0.18012   0.00000  Uiso   1.00
N90    N     0.45314   0.10405   0.17248   0.00000  Uiso   1.00
N91    N     0.48771   0.81179   0.43703   0.00000  Uiso   1.00
N92    N     0.26838   0.80627   0.10741   0.00000  Uiso   1.00
C93    C     0.84570   0.01401   0.68194   0.00000  Uiso   1.00
C94    C     0.87366   0.12180   0.71980   0.00000  Uiso   1.00
C95    C     0.86780   0.25748   0.71112   0.00000  Uiso   1.00
C96    C     0.89685   0.33977   0.75058   0.00000  Uiso   1.00
C97    C     0.93516   0.51499   0.80227   0.00000  Uiso   1.00
C98    C     0.88319   0.92676   0.64689   0.00000  Uiso   1.00
C99    C     0.88535   0.89844   0.57690   0.00000  Uiso   1.00
C100   C     0.92242   0.81653   0.55498   0.00000  Uiso   1.00
C101   C     0.97550   0.68887   0.49348   0.00000  Uiso   1.00
C102   C     0.82275   0.92830   0.73773   0.00000  Uiso   1.00
C103   C     0.77407   0.90124   0.74413   0.00000  Uiso   1.00
C104   C     0.76025   0.82060   0.79869   0.00000  Uiso   1.00
C105   C     0.71948   0.69534   0.87824   0.00000  Uiso   1.00
C106   C     0.90770   0.91889   0.76745   0.00000  Uiso   1.00
C107   C     0.90734   0.07013   0.76624   0.00000  Uiso   1.00
C108   C     0.93640   0.15224   0.80572   0.00000  Uiso   1.00
C109   C     0.93059   0.28802   0.79711   0.00000  Uiso   1.00
C110   C     0.91687   0.87509   0.69332   0.00000  Uiso   1.00
C111   C     0.95394   0.79320   0.67150   0.00000  Uiso   1.00
C112   C     0.95616   0.76477   0.60150   0.00000  Uiso   1.00
C113   C     0.85642   0.87663   0.78418   0.00000  Uiso   1.00
C114   C     0.84267   0.79601   0.83873   0.00000  Uiso   1.00
C115   C     0.79399   0.76884   0.84521   0.00000  Uiso   1.00
H116   H     0.81948   0.05423   0.64578   0.00000  Uiso   1.00
H117   H     0.84174   0.29742   0.67517   0.00000  Uiso   1.00
H118   H     0.85928   0.93842   0.54098   0.00000  Uiso   1.00
H119   H     0.74802   0.94124   0.70818   0.00000  Uiso   1.00
H120   H     0.88128   0.54426   0.72822   0.00000  Uiso   1.00
H121   H     0.91825   0.78726   0.44526   0.00000  Uiso   1.00
H122   H     0.68365   0.79318   0.79784   0.00000  Uiso   1.00
H123   H     0.93393   0.87866   0.80360   0.00000  Uiso   1.00
H124   H     0.96246   0.11223   0.84166   0.00000  Uiso   1.00
H125   H     0.98000   0.75323   0.70746   0.00000  Uiso   1.00
H126   H     0.86874   0.75605   0.87466   0.00000  Uiso   1.00
H127   H     0.97926   0.39395   0.86334   0.00000  Uiso   1.00
H128   H     0.01623   0.63694   0.58038   0.00000  Uiso   1.00
H129   H     0.78163   0.64288   0.93296   0.00000  Uiso   1.00
O130   O     0.94699   0.62591   0.81795   0.00000  Uiso   1.00
O131   O     0.99548   0.63274   0.44672   0.00000  Uiso   1.00
O132   O     0.68769   0.64053   0.90929   0.00000  Uiso   1.00
N133   N     0.90042   0.47683   0.75481   0.00000  Uiso   1.00
N134   N     0.93498   0.76909   0.49026   0.00000  Uiso   1.00
N135   N     0.71565   0.77461   0.81988   0.00000  Uiso   1.00
N136   N     0.95314   0.39595   0.82752   0.00000  Uiso   1.00
N137   N     0.98771   0.68821   0.56297   0.00000  Uiso   1.00
N138   N     0.76838   0.69373   0.89259   0.00000  Uiso   1.00
C139   C     0.65430   0.48599   0.18194   0.00000  Uiso   1.00
C140   C     0.62634   0.37820   0.21980   0.00000  Uiso   1.00
C141   C     0.63220   0.24252   0.21112   0.00000  Uiso   1.00
C142   C     0.60315   0.16023   0.25058   0.00000  Uiso   1.00
C143   C     0.56484   0.98501   0.30227   0.00000  Uiso   1.00
C144   C     0.61681   0.57324   0.14689   0.00000  Uiso   1.00
C145   C     0.61465   0.60156   0.07690   0.00000  Uiso   1.00
C146   C     0.57758   0.68347   0.05498   0.00000  Uiso   1.00
C147   C     0.52450   0.81113   0.99348   0.00000  Uiso   1.00
C148   C     0.67725   0.57170   0.23773   0.00000  Uiso   1.00
C149   C     0.72593   0.59876   0.24413   0.00000  Uiso   1.00
C150   C     0.73975   0.67940   0.29869   0.00000  Uiso   1.00
C151   C     0.78052   0.80466   0.37824   0.00000  Uiso   1.00
C152   C     0.59230   0.58111   0.26745   0.00000  Uiso   1.00
C153   C     0.59266   0.42987   0.26624   0.00000  Uiso   1.00
C154   C     0.56360   0.34776   0.30572   0.00000  Uiso   1.00
C155   C     0.56941   0.21198   0.29711   0.00000  Uiso   1.00
C156   C     0.58313   0.62491   0.19332   0.00000  Uiso   1.00
C157   C     0.54606   0.70680   0.17150   0.00000  Uiso   1.00
C158   C     0.54384   0.73523   0.10150   0.00000  Uiso   1.00
C159   C     0.64358   0.62337   0.28418   0.00000  Uiso   1.00
C160   C     0.65733   0.70399   0.33873   0.00000  Uiso   1.00
C161   C     0.70601   0.73116   0.34521   0.00000  Uiso   1.00
H162   H     0.68052   0.44577   0.14578   0.00000  Uiso   1.00
H163   H     0.65826   0.20258   0.17517   0.00000  Uiso   1.00
H164   H     0.64072   0.56158   0.04098   0.00000  Uiso   1.00
H165   H     0.75198   0.55876   0.20818   0.00000  Uiso   1.00
H166   H     0.61872   0.95574   0.22822   0.00000  Uiso   1.00
H167   H     0.58175   0.71274   0.94526   0.00000  Uiso   1.00
H168   H     0.81635   0.70682   0.29784   0.00000  Uiso   1.00
H169   H     0.56607   0.62134   0.30360   0.00000  Uiso   1.00
H170   H     0.53754   0.38777   0.34166   0.00000  Uiso   1.00
H171   H     0.52000   0.74677   0.20746   0.00000  Uiso   1.00
H172   H     0.63126   0.74395   0.37466   0.00000  Uiso   1.00
H173   H     0.52074   0.10605   0.36334   0.00000  Uiso   1.00
H174   H     0.48377   0.86306   0.08038   0.00000  Uiso   1.00
H175   H     0.71837   0.85712   0.43296   0.00000  Uiso   1.00
O176   O     0.55301   0.87409   0.31795   0.00000  Uiso   1.00
O177   O     0.50452   0.86726   0.94672   0.00000  Uiso   1.00
O178   O     0.81231   0.85947   0.40929   0.00000  Uiso   1.00
N179   N     0.59958   0.02317   0.25481   0.00000  Uiso   1.00
N180   N     0.56502   0.73091   0.99026   0.00000  Uiso   1.00
N181   N     0.78435   0.72539   0.31988   0.00000  Uiso   1.00
N182   N     0.54686   0.10405   0.32752   0.00000  Uiso   1.00
N183   N     0.51229   0.81179   0.06297   0.00000  Uiso   1.00
N184   N     0.73162   0.80627   0.39259   0.00000  Uiso   1.00
C185   C     0.84570   0.98599   0.18194   0.00000  Uiso   1.00
C186   C     0.87366   0.87820   0.21980   0.00000  Uiso   1.00
C187   C     0.86780   0.74252   0.21112   0.00000  Uiso   1.00
C188   C     0.89685   0.66023   0.25058   0.00000  Uiso   1.00
C189   C     0.93516   0.48501   0.30227   0.00000  Uiso   1.00
C190   C     0.88319   0.07324   0.14689   0.00000  Uiso   1.00
C191   C     0.88535   0.10156   0.07690   0.00000  Uiso   1.00
C192   C     0.92242   0.18347   0.05498   0.00000  Uiso   1.00
C193   C     0.97550   0.31113   0.99348   0.00000  Uiso   1.00
C194   C     0.82275   0.07170   0.23773   0.00000  Uiso   1.00
C195   C     0.77407   0.09876   0.24413   0.00000  Uiso   1.00
C196   C     0.76025   0.17940   0.29869   0.00000  Uiso   1.00
C197   C     0.71948   0.30466   0.37824   0.00000  Uiso   1.00
C198   C     0.90770   0.08111   0.26745   0.00000  Uiso   1.00
C199   C     0.90734   0.92987   0.26624   0.00000  Uiso   1.00
C200   C     0.93640   0.84776   0.30572   0.00000  Uiso   1.00
C201   C     0.93059   0.71198   0.29711   0.00000  Uiso   1.00
C202   C     0.91687   0.12491   0.19332   0.00000  Uiso   1.00
C203   C     0.95394   0.20680   0.17150   0.00000  Uiso   1.00
C204   C     0.95616   0.23523   0.10150   0.00000  Uiso   1.00
C205   C     0.85642   0.12337   0.28418   0.00000  Uiso   1.00
C206   C     0.84267   0.20399   0.33873   0.00000  Uiso   1.00
C207   C     0.79399   0.23116   0.34521   0.00000  Uiso   1.00
H208   H     0.81948   0.94577   0.14578   0.00000  Uiso   1.00
H209   H     0.84174   0.70258   0.17517   0.00000  Uiso   1.00
H210   H     0.85928   0.06158   0.04098   0.00000  Uiso   1.00
H211   H     0.74802   0.05876   0.20818   0.00000  Uiso   1.00
H212   H     0.88128   0.45574   0.22822   0.00000  Uiso   1.00
H213   H     0.91825   0.21274   0.94526   0.00000  Uiso   1.00
H214   H     0.68365   0.20682   0.29784   0.00000  Uiso   1.00
H215   H     0.93393   0.12134   0.30360   0.00000  Uiso   1.00
H216   H     0.96246   0.88777   0.34166   0.00000  Uiso   1.00
H217   H     0.98000   0.24677   0.20746   0.00000  Uiso   1.00
H218   H     0.86874   0.24395   0.37466   0.00000  Uiso   1.00
H219   H     0.97926   0.60605   0.36334   0.00000  Uiso   1.00
H220   H     0.01623   0.36306   0.08038   0.00000  Uiso   1.00
H221   H     0.78163   0.35712   0.43296   0.00000  Uiso   1.00
O222   O     0.94699   0.37409   0.31795   0.00000  Uiso   1.00
O223   O     0.99548   0.36726   0.94672   0.00000  Uiso   1.00
O224   O     0.68769   0.35947   0.40929   0.00000  Uiso   1.00
N225   N     0.90042   0.52317   0.25481   0.00000  Uiso   1.00
N226   N     0.93498   0.23091   0.99026   0.00000  Uiso   1.00
N227   N     0.71565   0.22539   0.31988   0.00000  Uiso   1.00
N228   N     0.95314   0.60405   0.32752   0.00000  Uiso   1.00
N229   N     0.98771   0.31179   0.06297   0.00000  Uiso   1.00
N230   N     0.76838   0.30627   0.39259   0.00000  Uiso   1.00
C231   C     0.65430   0.51401   0.68194   0.00000  Uiso   1.00
C232   C     0.62634   0.62180   0.71980   0.00000  Uiso   1.00
C233   C     0.63220   0.75748   0.71112   0.00000  Uiso   1.00
C234   C     0.60315   0.83977   0.75058   0.00000  Uiso   1.00
C235   C     0.56484   0.01499   0.80227   0.00000  Uiso   1.00
C236   C     0.61681   0.42676   0.64689   0.00000  Uiso   1.00
C237   C     0.61465   0.39844   0.57690   0.00000  Uiso   1.00
C238   C     0.57758   0.31653   0.55498   0.00000  Uiso   1.00
C239   C     0.52450   0.18887   0.49348   0.00000  Uiso   1.00
C240   C     0.67725   0.42830   0.73773   0.00000  Uiso   1.00
C241   C     0.72593   0.40124   0.74413   0.00000  Uiso   1.00
C242   C     0.73975   0.32060   0.79869   0.00000  Uiso   1.00
C243   C     0.78052   0.19534   0.87824   0.00000  Uiso   1.00
C244   C     0.59230   0.41889   0.76745   0.00000  Uiso   1.00
C245   C     0.59266   0.57013   0.76624   0.00000  Uiso   1.00
C246   C     0.56360   0.65224   0.80572   0.00000  Uiso   1.00
C247   C     0.56941   0.78802   0.79711   0.00000  Uiso   1.00
C248   C     0.58313   0.37509   0.69332   0.00000  Uiso   1.00
C249   C     0.54606   0.29320   0.67150   0.00000  Uiso   1.00
C250   C     0.54384   0.26477   0.60150   0.00000  Uiso   1.00
C251   C     0.64358   0.37663   0.78418   0.00000  Uiso   1.00
C252   C     0.65733   0.29601   0.83873   0.00000  Uiso   1.00
C253   C     0.70601   0.26884   0.84521   0.00000  Uiso   1.00
H254   H     0.68052   0.55423   0.64578   0.00000  Uiso   1.00
H255   H     0.65826   0.79742   0.67517   0.00000  Uiso   1.00
H256   H     0.64072   0.43842   0.54098   0.00000  Uiso   1.00
H257   H     0.75198   0.44124   0.70818   0.00000  Uiso   1.00
H258   H     0.61872   0.04426   0.72822   0.00000  Uiso   1.00
H259   H     0.58175   0.28726   0.44526   0.00000  Uiso   1.00
H260   H     0.81635   0.29318   0.79784   0.00000  Uiso   1.00
H261   H     0.56607   0.37866   0.80360   0.00000  Uiso   1.00
H262   H     0.53754   0.61223   0.84166   0.00000  Uiso   1.00
H263   H     0.52000   0.25323   0.70746   0.00000  Uiso   1.00
H264   H     0.63126   0.25605   0.87466   0.00000  Uiso   1.00
H265   H     0.52074   0.89395   0.86334   0.00000  Uiso   1.00
H266   H     0.48377   0.13694   0.58038   0.00000  Uiso   1.00
H267   H     0.71837   0.14288   0.93296   0.00000  Uiso   1.00
O268   O     0.55301   0.12591   0.81795   0.00000  Uiso   1.00
O269   O     0.50452   0.13274   0.44672   0.00000  Uiso   1.00
O270   O     0.81231   0.14053   0.90929   0.00000  Uiso   1.00
N271   N     0.59958   0.97683   0.75481   0.00000  Uiso   1.00
N272   N     0.56502   0.26909   0.49026   0.00000  Uiso   1.00
N273   N     0.78435   0.27461   0.81988   0.00000  Uiso   1.00
N274   N     0.54686   0.89595   0.82752   0.00000  Uiso   1.00
N275   N     0.51229   0.18821   0.56297   0.00000  Uiso   1.00
N276   N     0.73162   0.19373   0.89259   0.00000  Uiso   1.00
C277   C     0.15430   0.98599   0.31806   0.00000  Uiso   1.00
C278   C     0.12634   0.87820   0.28020   0.00000  Uiso   1.00
C279   C     0.13220   0.74252   0.28888   0.00000  Uiso   1.00
C280   C     0.10315   0.66023   0.24942   0.00000  Uiso   1.00
C281   C     0.06484   0.48501   0.19773   0.00000  Uiso   1.00
C282   C     0.11681   0.07324   0.35311   0.00000  Uiso   1.00
C283   C     0.11465   0.10156   0.42310   0.00000  Uiso   1.00
C284   C     0.07758   0.18347   0.44502   0.00000  Uiso   1.00
C285   C     0.02450   0.31113   0.50652   0.00000  Uiso   1.00
C286   C     0.17725   0.07170   0.26227   0.00000  Uiso   1.00
C287   C     0.22593   0.09876   0.25587   0.00000  Uiso   1.00
C288   C     0.23975   0.17940   0.20131   0.00000  Uiso   1.00
C289   C     0.28052   0.30466   0.12176   0.00000  Uiso   1.00
C290   C     0.09230   0.08111   0.23255   0.00000  Uiso   1.00
C291   C     0.09266   0.92987   0.23376   0.00000  Uiso   1.00
C292   C     0.06360   0.84776   0.19428   0.00000  Uiso   1.00
C293   C     0.06941   0.71198   0.20289   0.00000  Uiso   1.00
C294   C     0.08313   0.12491   0.30668   0.00000  Uiso   1.00
C295   C     0.04606   0.20680   0.32850   0.00000  Uiso   1.00
C296   C     0.04384   0.23523   0.39850   0.00000  Uiso   1.00
C297   C     0.14358   0.12337   0.21582   0.00000  Uiso   1.00
C298   C     0.15733   0.20399   0.16127   0.00000  Uiso   1.00
C299   C     0.20601   0.23116   0.15479   0.00000  Uiso   1.00
H300   H     0.18052   0.94577   0.35422   0.00000  Uiso   1.00
H301   H     0.15826   0.70258   0.32483   0.00000  Uiso   1.00
H302   H     0.14072   0.06158   0.45902   0.00000  Uiso   1.00
H303   H     0.25198   0.05876   0.29182   0.00000  Uiso   1.00
H304   H     0.11872   0.45574   0.27178   0.00000  Uiso   1.00
H305   H     0.08175   0.21274   0.55474   0.00000  Uiso   1.00
H306   H     0.31635   0.20682   0.20216   0.00000  Uiso   1.00
H307   H     0.06607   0.12134   0.19640   0.00000  Uiso   1.00
H308   H     0.03754   0.88777   0.15834   0.00000  Uiso   1.00
H309   H     0.02000   0.24677   0.29254   0.00000  Uiso   1.00
H310   H     0.13126   0.24395   0.12534   0.00000  Uiso   1.00
H311   H     0.02074   0.60605   0.13666   0.00000  Uiso   1.00
H312   H     0.98377   0.36306   0.41962   0.00000  Uiso   1.00
H313   H     0.21837   0.35712   0.06704   0.00000  Uiso   1.00
O314   O     0.05301   0.37409   0.18205   0.00000  Uiso   1.00
O315   O     0.00452   0.36726   0.55328   0.00000  Uiso   1.00
O316   O     0.31231   0.35947   0.09071   0.00000  Uiso   1.00
N317   N     0.09958   0.52317   0.24519   0.00000  Uiso   1.00
N318   N     0.06502   0.23091   0.50974   0.00000  Uiso   1.00
N319   N     0.28435   0.22539   0.18012   0.00000  Uiso   1.00
N320   N     0.04686   0.60405   0.17248   0.00000  Uiso   1.00
N321   N     0.01229   0.31179   0.43703   0.00000  Uiso   1.00
N322   N     0.23162   0.30627   0.10741   0.00000  Uiso   1.00
C323   C     0.34570   0.51401   0.81806   0.00000  Uiso   1.00
C324   C     0.37366   0.62180   0.78020   0.00000  Uiso   1.00
C325   C     0.36780   0.75748   0.78888   0.00000  Uiso   1.00
C326   C     0.39685   0.83977   0.74942   0.00000  Uiso   1.00
C327   C     0.43516   0.01499   0.69773   0.00000  Uiso   1.00
C328   C     0.38319   0.42676   0.85311   0.00000  Uiso   1.00
C329   C     0.38535   0.39844   0.92310   0.00000  Uiso   1.00
C330   C     0.42242   0.31653   0.94502   0.00000  Uiso   1.00
C331   C     0.47550   0.18887   0.00652   0.00000  Uiso   1.00
C332   C     0.32275   0.42830   0.76227   0.00000  Uiso   1.00
C333   C     0.27407   0.40124   0.75587   0.00000  Uiso   1.00
C334   C     0.26025   0.32060   0.70131   0.00000  Uiso   1.00
C335   C     0.21948   0.19534   0.62176   0.00000  Uiso   1.00
C336   C     0.40770   0.41889   0.73255   0.00000  Uiso   1.00
C337   C     0.40734   0.57013   0.73376   0.00000  Uiso   1.00
C338   C     0.43640   0.65224   0.69428   0.00000  Uiso   1.00
C339   C     0.43059   0.78802   0.70289   0.00000  Uiso   1.00
C340   C     0.41687   0.37509   0.80668   0.00000  Uiso   1.00
C341   C     0.45394   0.29320   0.82850   0.00000  Uiso   1.00
C342   C     0.45616   0.26477   0.89850   0.00000  Uiso   1.00
C343   C     0.35642   0.37663   0.71582   0.00000  Uiso   1.00
C344   C     0.34267   0.29601   0.66127   0.00000  Uiso   1.00
C345   C     0.29399   0.26884   0.65479   0.00000  Uiso   1.00
H346   H     0.31948   0.55423   0.85422   0.00000  Uiso   1.00
H347   H     0.34174   0.79742   0.82483   0.00000  Uiso   1.00
H348   H     0.35928   0.43842   0.95902   0.00000  Uiso   1.00
H349   H     0.24802   0.44124   0.79182   0.00000  Uiso   1.00
H350   H     0.38128   0.04426   0.77178   0.00000  Uiso   1.00
H351   H     0.41825   0.28726   0.05474   0.00000  Uiso   1.00
H352   H     0.18365   0.29318   0.70216   0.00000  Uiso   1.00
H353   H     0.43393   0.37866   0.69640   0.00000  Uiso   1.00
H354   H     0.46246   0.61223   0.65834   0.00000  Uiso   1.00
H355   H     0.48000   0.25323   0.79254   0.00000  Uiso   1.00
H356   H     0.36874   0.25605   0.62534   0.00000  Uiso   1.00
H357   H     0.47926   0.89395   0.63666   0.00000  Uiso   1.00
H358   H     0.51623   0.13694   0.91962   0.00000  Uiso   1.00
H359   H     0.28163   0.14288   0.56704   0.00000  Uiso   1.00
O360   O     0.44699   0.12591   0.68205   0.00000  Uiso   1.00
O361   O     0.49548   0.13274   0.05328   0.00000  Uiso   1.00
O362   O     0.18769   0.14053   0.59071   0.00000  Uiso   1.00
N363   N     0.40042   0.97683   0.74519   0.00000  Uiso   1.00
N364   N     0.43498   0.26909   0.00974   0.00000  Uiso   1.00
N365   N     0.21565   0.27461   0.68012   0.00000  Uiso   1.00
N366   N     0.45314   0.89595   0.67248   0.00000  Uiso   1.00
N367   N     0.48771   0.18821   0.93703   0.00000  Uiso   1.00
N368   N     0.26838   0.19373   0.60741   0.00000  Uiso   1.00
