data_job_03099
_audit_creation_date              2018-12-19
_audit_creation_method            'Materials Studio'
_symmetry_space_group_name_H-M    'P1'
_symmetry_Int_Tables_number       1
_symmetry_cell_setting            triclinic
loop_
_symmetry_equiv_pos_as_xyz
  x,y,z
_cell_length_a                    18.7922
_cell_length_b                    15.6523
_cell_length_c                    17.3400
_cell_angle_alpha                 90.0000
_cell_angle_beta                  90.0000
_cell_angle_gamma                 90.0000
loop_
_atom_site_label
_atom_site_type_symbol
_atom_site_fract_x
_atom_site_fract_y
_atom_site_fract_z
_atom_site_U_iso_or_equiv
_atom_site_adp_type
_atom_site_occupancy
C1     C     0.64985   0.82917   0.99361   0.00000  Uiso   1.00
C2     C     0.71850   0.86943   0.96396   0.00000  Uiso   1.00
C3     C     0.72329   0.94361   0.92043   0.00000  Uiso   1.00
C4     C     0.79101   0.96995   0.89898   0.00000  Uiso   1.00
C5     C     0.88836   0.03952   0.84973   0.00000  Uiso   1.00
C6     C     0.65838   0.82189   0.08081   0.00000  Uiso   1.00
C7     C     0.61263   0.85610   0.13554   0.00000  Uiso   1.00
C8     C     0.62974   0.84241   0.21245   0.00000  Uiso   1.00
C9     C     0.63375   0.83812   0.34462   0.00000  Uiso   1.00
C10    C     0.64924   0.73785   0.96297   0.00000  Uiso   1.00
C11    C     0.59578   0.70138   0.91863   0.00000  Uiso   1.00
C12    C     0.60518   0.61693   0.89634   0.00000  Uiso   1.00
C13    C     0.59498   0.48216   0.84555   0.00000  Uiso   1.00
C14    C     0.76157   0.74404   0.03289   0.00000  Uiso   1.00
C15    C     0.77918   0.82319   0.98530   0.00000  Uiso   1.00
C16    C     0.84690   0.84942   0.96390   0.00000  Uiso   1.00
C17    C     0.85180   0.92363   0.92035   0.00000  Uiso   1.00
C18    C     0.71906   0.77565   0.10216   0.00000  Uiso   1.00
C19    C     0.73624   0.76191   0.17900   0.00000  Uiso   1.00
C20    C     0.69053   0.79608   0.23383   0.00000  Uiso   1.00
C21    C     0.70992   0.69161   0.98431   0.00000  Uiso   1.00
C22    C     0.71940   0.60720   0.96210   0.00000  Uiso   1.00
C23    C     0.66597   0.57061   0.91772   0.00000  Uiso   1.00
H24    H     0.60261   0.86517   0.97700   0.00000  Uiso   1.00
H25    H     0.67632   0.97938   0.90394   0.00000  Uiso   1.00
H26    H     0.56567   0.89187   0.11900   0.00000  Uiso   1.00
H27    H     0.54883   0.73719   0.90213   0.00000  Uiso   1.00
H28    H     0.78481   0.08563   0.83237   0.00000  Uiso   1.00
H29    H     0.55149   0.90108   0.28585   0.00000  Uiso   1.00
H30    H     0.51598   0.57490   0.82853   0.00000  Uiso   1.00
H31    H     0.80882   0.70804   0.04951   0.00000  Uiso   1.00
H32    H     0.89385   0.81363   0.98042   0.00000  Uiso   1.00
H33    H     0.78320   0.72612   0.19549   0.00000  Uiso   1.00
H34    H     0.76636   0.57143   0.97862   0.00000  Uiso   1.00
H35    H     0.96136   0.95110   0.89445   0.00000  Uiso   1.00
H36    H     0.72804   0.76655   0.34794   0.00000  Uiso   1.00
H37    H     0.69253   0.44037   0.89061   0.00000  Uiso   1.00
O38    O     0.92530   0.09068   0.81668   0.00000  Uiso   1.00
O39    O     0.61919   0.84854   0.41163   0.00000  Uiso   1.00
O40    O     0.57260   0.42060   0.81163   0.00000  Uiso   1.00
N41    N     0.81469   0.03947   0.85645   0.00000  Uiso   1.00
N42    N     0.59656   0.86694   0.28043   0.00000  Uiso   1.00
N43    N     0.56335   0.56198   0.85289   0.00000  Uiso   1.00
N44    N     0.90969   0.96708   0.88986   0.00000  Uiso   1.00
N45    N     0.69156   0.79455   0.31383   0.00000  Uiso   1.00
N46    N     0.65835   0.48959   0.88629   0.00000  Uiso   1.00
C47    C     0.14985   0.32917   0.99361   0.00000  Uiso   1.00
C48    C     0.21850   0.36943   0.96396   0.00000  Uiso   1.00
C49    C     0.22329   0.44361   0.92043   0.00000  Uiso   1.00
C50    C     0.29101   0.46995   0.89898   0.00000  Uiso   1.00
C51    C     0.38836   0.53952   0.84973   0.00000  Uiso   1.00
C52    C     0.15838   0.32189   0.08081   0.00000  Uiso   1.00
C53    C     0.11263   0.35610   0.13554   0.00000  Uiso   1.00
C54    C     0.12974   0.34241   0.21245   0.00000  Uiso   1.00
C55    C     0.13375   0.33812   0.34462   0.00000  Uiso   1.00
C56    C     0.14924   0.23785   0.96297   0.00000  Uiso   1.00
C57    C     0.09578   0.20138   0.91863   0.00000  Uiso   1.00
C58    C     0.10518   0.11693   0.89634   0.00000  Uiso   1.00
C59    C     0.09498   0.98216   0.84555   0.00000  Uiso   1.00
C60    C     0.26157   0.24404   0.03289   0.00000  Uiso   1.00
C61    C     0.27918   0.32319   0.98530   0.00000  Uiso   1.00
C62    C     0.34690   0.34942   0.96390   0.00000  Uiso   1.00
C63    C     0.35180   0.42363   0.92035   0.00000  Uiso   1.00
C64    C     0.21906   0.27565   0.10216   0.00000  Uiso   1.00
C65    C     0.23624   0.26191   0.17900   0.00000  Uiso   1.00
C66    C     0.19053   0.29608   0.23383   0.00000  Uiso   1.00
C67    C     0.20992   0.19161   0.98431   0.00000  Uiso   1.00
C68    C     0.21940   0.10720   0.96210   0.00000  Uiso   1.00
C69    C     0.16597   0.07061   0.91772   0.00000  Uiso   1.00
H70    H     0.10261   0.36517   0.97700   0.00000  Uiso   1.00
H71    H     0.17632   0.47938   0.90394   0.00000  Uiso   1.00
H72    H     0.06567   0.39187   0.11900   0.00000  Uiso   1.00
H73    H     0.04883   0.23719   0.90213   0.00000  Uiso   1.00
H74    H     0.28481   0.58563   0.83237   0.00000  Uiso   1.00
H75    H     0.05149   0.40108   0.28585   0.00000  Uiso   1.00
H76    H     0.01598   0.07490   0.82853   0.00000  Uiso   1.00
H77    H     0.30882   0.20804   0.04951   0.00000  Uiso   1.00
H78    H     0.39385   0.31363   0.98042   0.00000  Uiso   1.00
H79    H     0.28320   0.22612   0.19549   0.00000  Uiso   1.00
H80    H     0.26636   0.07143   0.97862   0.00000  Uiso   1.00
H81    H     0.46136   0.45110   0.89445   0.00000  Uiso   1.00
H82    H     0.22804   0.26655   0.34794   0.00000  Uiso   1.00
H83    H     0.19253   0.94037   0.89061   0.00000  Uiso   1.00
O84    O     0.42530   0.59068   0.81668   0.00000  Uiso   1.00
O85    O     0.11919   0.34854   0.41163   0.00000  Uiso   1.00
O86    O     0.07260   0.92060   0.81163   0.00000  Uiso   1.00
N87    N     0.31469   0.53947   0.85645   0.00000  Uiso   1.00
N88    N     0.09656   0.36694   0.28043   0.00000  Uiso   1.00
N89    N     0.06335   0.06198   0.85289   0.00000  Uiso   1.00
N90    N     0.40969   0.46708   0.88986   0.00000  Uiso   1.00
N91    N     0.19156   0.29455   0.31383   0.00000  Uiso   1.00
N92    N     0.15835   0.98959   0.88629   0.00000  Uiso   1.00
C93    C     0.35015   0.17083   0.49361   0.00000  Uiso   1.00
C94    C     0.28150   0.13057   0.46396   0.00000  Uiso   1.00
C95    C     0.27671   0.05639   0.42043   0.00000  Uiso   1.00
C96    C     0.20899   0.03005   0.39898   0.00000  Uiso   1.00
C97    C     0.11164   0.96048   0.34973   0.00000  Uiso   1.00
C98    C     0.34162   0.17811   0.58081   0.00000  Uiso   1.00
C99    C     0.38737   0.14390   0.63554   0.00000  Uiso   1.00
C100   C     0.37026   0.15759   0.71245   0.00000  Uiso   1.00
C101   C     0.36625   0.16188   0.84462   0.00000  Uiso   1.00
C102   C     0.35076   0.26215   0.46297   0.00000  Uiso   1.00
C103   C     0.40422   0.29862   0.41863   0.00000  Uiso   1.00
C104   C     0.39482   0.38307   0.39634   0.00000  Uiso   1.00
C105   C     0.40502   0.51784   0.34555   0.00000  Uiso   1.00
C106   C     0.23843   0.25596   0.53289   0.00000  Uiso   1.00
C107   C     0.22082   0.17681   0.48530   0.00000  Uiso   1.00
C108   C     0.15310   0.15058   0.46390   0.00000  Uiso   1.00
C109   C     0.14820   0.07637   0.42035   0.00000  Uiso   1.00
C110   C     0.28094   0.22435   0.60216   0.00000  Uiso   1.00
C111   C     0.26376   0.23809   0.67900   0.00000  Uiso   1.00
C112   C     0.30947   0.20392   0.73383   0.00000  Uiso   1.00
C113   C     0.29008   0.30839   0.48431   0.00000  Uiso   1.00
C114   C     0.28060   0.39280   0.46210   0.00000  Uiso   1.00
C115   C     0.33403   0.42939   0.41772   0.00000  Uiso   1.00
H116   H     0.39739   0.13483   0.47700   0.00000  Uiso   1.00
H117   H     0.32368   0.02062   0.40394   0.00000  Uiso   1.00
H118   H     0.43433   0.10813   0.61900   0.00000  Uiso   1.00
H119   H     0.45117   0.26281   0.40213   0.00000  Uiso   1.00
H120   H     0.21519   0.91437   0.33237   0.00000  Uiso   1.00
H121   H     0.44851   0.09892   0.78585   0.00000  Uiso   1.00
H122   H     0.48402   0.42510   0.32853   0.00000  Uiso   1.00
H123   H     0.19118   0.29196   0.54951   0.00000  Uiso   1.00
H124   H     0.10615   0.18637   0.48042   0.00000  Uiso   1.00
H125   H     0.21680   0.27388   0.69549   0.00000  Uiso   1.00
H126   H     0.23364   0.42857   0.47862   0.00000  Uiso   1.00
H127   H     0.03864   0.04890   0.39445   0.00000  Uiso   1.00
H128   H     0.27196   0.23345   0.84794   0.00000  Uiso   1.00
H129   H     0.30747   0.55963   0.39061   0.00000  Uiso   1.00
O130   O     0.07470   0.90932   0.31668   0.00000  Uiso   1.00
O131   O     0.38081   0.15146   0.91163   0.00000  Uiso   1.00
O132   O     0.42740   0.57940   0.31163   0.00000  Uiso   1.00
N133   N     0.18531   0.96053   0.35645   0.00000  Uiso   1.00
N134   N     0.40344   0.13306   0.78043   0.00000  Uiso   1.00
N135   N     0.43665   0.43802   0.35289   0.00000  Uiso   1.00
N136   N     0.09031   0.03292   0.38986   0.00000  Uiso   1.00
N137   N     0.30844   0.20545   0.81383   0.00000  Uiso   1.00
N138   N     0.34165   0.51041   0.38629   0.00000  Uiso   1.00
C139   C     0.85015   0.67083   0.49361   0.00000  Uiso   1.00
C140   C     0.78150   0.63057   0.46396   0.00000  Uiso   1.00
C141   C     0.77671   0.55639   0.42043   0.00000  Uiso   1.00
C142   C     0.70899   0.53005   0.39898   0.00000  Uiso   1.00
C143   C     0.61164   0.46048   0.34973   0.00000  Uiso   1.00
C144   C     0.84162   0.67811   0.58081   0.00000  Uiso   1.00
C145   C     0.88737   0.64390   0.63554   0.00000  Uiso   1.00
C146   C     0.87026   0.65759   0.71245   0.00000  Uiso   1.00
C147   C     0.86625   0.66188   0.84462   0.00000  Uiso   1.00
C148   C     0.85076   0.76215   0.46297   0.00000  Uiso   1.00
C149   C     0.90422   0.79862   0.41863   0.00000  Uiso   1.00
C150   C     0.89482   0.88307   0.39634   0.00000  Uiso   1.00
C151   C     0.90502   0.01784   0.34555   0.00000  Uiso   1.00
C152   C     0.73843   0.75596   0.53289   0.00000  Uiso   1.00
C153   C     0.72082   0.67681   0.48530   0.00000  Uiso   1.00
C154   C     0.65310   0.65058   0.46390   0.00000  Uiso   1.00
C155   C     0.64820   0.57637   0.42035   0.00000  Uiso   1.00
C156   C     0.78094   0.72435   0.60216   0.00000  Uiso   1.00
C157   C     0.76376   0.73809   0.67900   0.00000  Uiso   1.00
C158   C     0.80947   0.70392   0.73383   0.00000  Uiso   1.00
C159   C     0.79008   0.80839   0.48431   0.00000  Uiso   1.00
C160   C     0.78060   0.89280   0.46210   0.00000  Uiso   1.00
C161   C     0.83403   0.92939   0.41772   0.00000  Uiso   1.00
H162   H     0.89739   0.63483   0.47700   0.00000  Uiso   1.00
H163   H     0.82368   0.52062   0.40394   0.00000  Uiso   1.00
H164   H     0.93433   0.60813   0.61900   0.00000  Uiso   1.00
H165   H     0.95117   0.76281   0.40213   0.00000  Uiso   1.00
H166   H     0.71519   0.41437   0.33237   0.00000  Uiso   1.00
H167   H     0.94851   0.59892   0.78585   0.00000  Uiso   1.00
H168   H     0.98402   0.92510   0.32853   0.00000  Uiso   1.00
H169   H     0.69118   0.79196   0.54951   0.00000  Uiso   1.00
H170   H     0.60615   0.68637   0.48042   0.00000  Uiso   1.00
H171   H     0.71680   0.77388   0.69549   0.00000  Uiso   1.00
H172   H     0.73364   0.92857   0.47862   0.00000  Uiso   1.00
H173   H     0.53864   0.54890   0.39445   0.00000  Uiso   1.00
H174   H     0.77196   0.73345   0.84794   0.00000  Uiso   1.00
H175   H     0.80747   0.05963   0.39061   0.00000  Uiso   1.00
O176   O     0.57470   0.40932   0.31668   0.00000  Uiso   1.00
O177   O     0.88081   0.65146   0.91163   0.00000  Uiso   1.00
O178   O     0.92740   0.07940   0.31163   0.00000  Uiso   1.00
N179   N     0.68531   0.46053   0.35645   0.00000  Uiso   1.00
N180   N     0.90344   0.63306   0.78043   0.00000  Uiso   1.00
N181   N     0.93665   0.93802   0.35289   0.00000  Uiso   1.00
N182   N     0.59031   0.53292   0.38986   0.00000  Uiso   1.00
N183   N     0.80844   0.70545   0.81383   0.00000  Uiso   1.00
N184   N     0.84165   0.01041   0.38629   0.00000  Uiso   1.00
C185   C     0.35015   0.82917   0.50639   0.00000  Uiso   1.00
C186   C     0.28150   0.86943   0.53604   0.00000  Uiso   1.00
C187   C     0.27671   0.94361   0.57957   0.00000  Uiso   1.00
C188   C     0.20899   0.96995   0.60102   0.00000  Uiso   1.00
C189   C     0.11164   0.03952   0.65027   0.00000  Uiso   1.00
C190   C     0.34162   0.82189   0.41919   0.00000  Uiso   1.00
C191   C     0.38737   0.85610   0.36446   0.00000  Uiso   1.00
C192   C     0.37026   0.84241   0.28755   0.00000  Uiso   1.00
C193   C     0.36625   0.83812   0.15538   0.00000  Uiso   1.00
C194   C     0.35076   0.73785   0.53703   0.00000  Uiso   1.00
C195   C     0.40422   0.70138   0.58137   0.00000  Uiso   1.00
C196   C     0.39482   0.61693   0.60366   0.00000  Uiso   1.00
C197   C     0.40502   0.48216   0.65445   0.00000  Uiso   1.00
C198   C     0.23843   0.74404   0.46711   0.00000  Uiso   1.00
C199   C     0.22082   0.82319   0.51470   0.00000  Uiso   1.00
C200   C     0.15310   0.84942   0.53610   0.00000  Uiso   1.00
C201   C     0.14820   0.92363   0.57965   0.00000  Uiso   1.00
C202   C     0.28094   0.77565   0.39784   0.00000  Uiso   1.00
C203   C     0.26376   0.76191   0.32100   0.00000  Uiso   1.00
C204   C     0.30947   0.79608   0.26617   0.00000  Uiso   1.00
C205   C     0.29008   0.69161   0.51569   0.00000  Uiso   1.00
C206   C     0.28060   0.60720   0.53790   0.00000  Uiso   1.00
C207   C     0.33403   0.57061   0.58228   0.00000  Uiso   1.00
H208   H     0.39739   0.86517   0.52300   0.00000  Uiso   1.00
H209   H     0.32368   0.97938   0.59606   0.00000  Uiso   1.00
H210   H     0.43433   0.89187   0.38100   0.00000  Uiso   1.00
H211   H     0.45117   0.73719   0.59787   0.00000  Uiso   1.00
H212   H     0.21519   0.08563   0.66763   0.00000  Uiso   1.00
H213   H     0.44851   0.90108   0.21415   0.00000  Uiso   1.00
H214   H     0.48402   0.57490   0.67147   0.00000  Uiso   1.00
H215   H     0.19118   0.70804   0.45049   0.00000  Uiso   1.00
H216   H     0.10615   0.81363   0.51958   0.00000  Uiso   1.00
H217   H     0.21680   0.72612   0.30451   0.00000  Uiso   1.00
H218   H     0.23364   0.57143   0.52138   0.00000  Uiso   1.00
H219   H     0.03864   0.95110   0.60555   0.00000  Uiso   1.00
H220   H     0.27196   0.76655   0.15206   0.00000  Uiso   1.00
H221   H     0.30747   0.44037   0.60939   0.00000  Uiso   1.00
O222   O     0.07470   0.09068   0.68332   0.00000  Uiso   1.00
O223   O     0.38081   0.84854   0.08837   0.00000  Uiso   1.00
O224   O     0.42740   0.42060   0.68837   0.00000  Uiso   1.00
N225   N     0.18531   0.03947   0.64355   0.00000  Uiso   1.00
N226   N     0.40344   0.86694   0.21957   0.00000  Uiso   1.00
N227   N     0.43665   0.56198   0.64711   0.00000  Uiso   1.00
N228   N     0.09031   0.96708   0.61014   0.00000  Uiso   1.00
N229   N     0.30844   0.79455   0.18617   0.00000  Uiso   1.00
N230   N     0.34165   0.48959   0.61371   0.00000  Uiso   1.00
C231   C     0.85015   0.32917   0.50639   0.00000  Uiso   1.00
C232   C     0.78150   0.36943   0.53604   0.00000  Uiso   1.00
C233   C     0.77671   0.44361   0.57957   0.00000  Uiso   1.00
C234   C     0.70899   0.46995   0.60102   0.00000  Uiso   1.00
C235   C     0.61164   0.53952   0.65027   0.00000  Uiso   1.00
C236   C     0.84162   0.32189   0.41919   0.00000  Uiso   1.00
C237   C     0.88737   0.35610   0.36446   0.00000  Uiso   1.00
C238   C     0.87026   0.34241   0.28755   0.00000  Uiso   1.00
C239   C     0.86625   0.33812   0.15538   0.00000  Uiso   1.00
C240   C     0.85076   0.23785   0.53703   0.00000  Uiso   1.00
C241   C     0.90422   0.20138   0.58137   0.00000  Uiso   1.00
C242   C     0.89482   0.11693   0.60366   0.00000  Uiso   1.00
C243   C     0.90502   0.98216   0.65445   0.00000  Uiso   1.00
C244   C     0.73843   0.24404   0.46711   0.00000  Uiso   1.00
C245   C     0.72082   0.32319   0.51470   0.00000  Uiso   1.00
C246   C     0.65310   0.34942   0.53610   0.00000  Uiso   1.00
C247   C     0.64820   0.42363   0.57965   0.00000  Uiso   1.00
C248   C     0.78094   0.27565   0.39784   0.00000  Uiso   1.00
C249   C     0.76376   0.26191   0.32100   0.00000  Uiso   1.00
C250   C     0.80947   0.29608   0.26617   0.00000  Uiso   1.00
C251   C     0.79008   0.19161   0.51569   0.00000  Uiso   1.00
C252   C     0.78060   0.10720   0.53790   0.00000  Uiso   1.00
C253   C     0.83403   0.07061   0.58228   0.00000  Uiso   1.00
H254   H     0.89739   0.36517   0.52300   0.00000  Uiso   1.00
H255   H     0.82368   0.47938   0.59606   0.00000  Uiso   1.00
H256   H     0.93433   0.39187   0.38100   0.00000  Uiso   1.00
H257   H     0.95117   0.23719   0.59787   0.00000  Uiso   1.00
H258   H     0.71519   0.58563   0.66763   0.00000  Uiso   1.00
H259   H     0.94851   0.40108   0.21415   0.00000  Uiso   1.00
H260   H     0.98402   0.07490   0.67147   0.00000  Uiso   1.00
H261   H     0.69118   0.20804   0.45049   0.00000  Uiso   1.00
H262   H     0.60615   0.31363   0.51958   0.00000  Uiso   1.00
H263   H     0.71680   0.22612   0.30451   0.00000  Uiso   1.00
H264   H     0.73364   0.07143   0.52138   0.00000  Uiso   1.00
H265   H     0.53864   0.45110   0.60555   0.00000  Uiso   1.00
H266   H     0.77196   0.26655   0.15206   0.00000  Uiso   1.00
H267   H     0.80747   0.94037   0.60939   0.00000  Uiso   1.00
O268   O     0.57470   0.59068   0.68332   0.00000  Uiso   1.00
O269   O     0.88081   0.34854   0.08837   0.00000  Uiso   1.00
O270   O     0.92740   0.92060   0.68837   0.00000  Uiso   1.00
N271   N     0.68531   0.53947   0.64355   0.00000  Uiso   1.00
N272   N     0.90344   0.36694   0.21957   0.00000  Uiso   1.00
N273   N     0.93665   0.06198   0.64711   0.00000  Uiso   1.00
N274   N     0.59031   0.46708   0.61014   0.00000  Uiso   1.00
N275   N     0.80844   0.29455   0.18617   0.00000  Uiso   1.00
N276   N     0.84165   0.98959   0.61371   0.00000  Uiso   1.00
C277   C     0.64985   0.17083   0.00639   0.00000  Uiso   1.00
C278   C     0.71850   0.13057   0.03604   0.00000  Uiso   1.00
C279   C     0.72329   0.05639   0.07957   0.00000  Uiso   1.00
C280   C     0.79101   0.03005   0.10102   0.00000  Uiso   1.00
C281   C     0.88836   0.96048   0.15027   0.00000  Uiso   1.00
C282   C     0.65838   0.17811   0.91919   0.00000  Uiso   1.00
C283   C     0.61263   0.14390   0.86446   0.00000  Uiso   1.00
C284   C     0.62974   0.15759   0.78755   0.00000  Uiso   1.00
C285   C     0.63375   0.16188   0.65538   0.00000  Uiso   1.00
C286   C     0.64924   0.26215   0.03703   0.00000  Uiso   1.00
C287   C     0.59578   0.29862   0.08137   0.00000  Uiso   1.00
C288   C     0.60518   0.38307   0.10366   0.00000  Uiso   1.00
C289   C     0.59498   0.51784   0.15445   0.00000  Uiso   1.00
C290   C     0.76157   0.25596   0.96711   0.00000  Uiso   1.00
C291   C     0.77918   0.17681   0.01470   0.00000  Uiso   1.00
C292   C     0.84690   0.15058   0.03610   0.00000  Uiso   1.00
C293   C     0.85180   0.07637   0.07965   0.00000  Uiso   1.00
C294   C     0.71906   0.22435   0.89784   0.00000  Uiso   1.00
C295   C     0.73624   0.23809   0.82100   0.00000  Uiso   1.00
C296   C     0.69053   0.20392   0.76617   0.00000  Uiso   1.00
C297   C     0.70992   0.30839   0.01569   0.00000  Uiso   1.00
C298   C     0.71940   0.39280   0.03790   0.00000  Uiso   1.00
C299   C     0.66597   0.42939   0.08228   0.00000  Uiso   1.00
H300   H     0.60261   0.13483   0.02300   0.00000  Uiso   1.00
H301   H     0.67632   0.02062   0.09606   0.00000  Uiso   1.00
H302   H     0.56567   0.10813   0.88100   0.00000  Uiso   1.00
H303   H     0.54883   0.26281   0.09787   0.00000  Uiso   1.00
H304   H     0.78481   0.91437   0.16763   0.00000  Uiso   1.00
H305   H     0.55149   0.09892   0.71415   0.00000  Uiso   1.00
H306   H     0.51598   0.42510   0.17147   0.00000  Uiso   1.00
H307   H     0.80882   0.29196   0.95049   0.00000  Uiso   1.00
H308   H     0.89385   0.18637   0.01958   0.00000  Uiso   1.00
H309   H     0.78320   0.27388   0.80451   0.00000  Uiso   1.00
H310   H     0.76636   0.42857   0.02138   0.00000  Uiso   1.00
H311   H     0.96136   0.04890   0.10555   0.00000  Uiso   1.00
H312   H     0.72804   0.23345   0.65206   0.00000  Uiso   1.00
H313   H     0.69253   0.55963   0.10939   0.00000  Uiso   1.00
O314   O     0.92530   0.90932   0.18332   0.00000  Uiso   1.00
O315   O     0.61919   0.15146   0.58837   0.00000  Uiso   1.00
O316   O     0.57260   0.57940   0.18837   0.00000  Uiso   1.00
N317   N     0.81469   0.96053   0.14355   0.00000  Uiso   1.00
N318   N     0.59656   0.13306   0.71957   0.00000  Uiso   1.00
N319   N     0.56335   0.43802   0.14711   0.00000  Uiso   1.00
N320   N     0.90969   0.03292   0.11014   0.00000  Uiso   1.00
N321   N     0.69156   0.20545   0.68617   0.00000  Uiso   1.00
N322   N     0.65835   0.51041   0.11371   0.00000  Uiso   1.00
C323   C     0.14985   0.67083   0.00639   0.00000  Uiso   1.00
C324   C     0.21850   0.63057   0.03604   0.00000  Uiso   1.00
C325   C     0.22329   0.55639   0.07957   0.00000  Uiso   1.00
C326   C     0.29101   0.53005   0.10102   0.00000  Uiso   1.00
C327   C     0.38836   0.46048   0.15027   0.00000  Uiso   1.00
C328   C     0.15838   0.67811   0.91919   0.00000  Uiso   1.00
C329   C     0.11263   0.64390   0.86446   0.00000  Uiso   1.00
C330   C     0.12974   0.65759   0.78755   0.00000  Uiso   1.00
C331   C     0.13375   0.66188   0.65538   0.00000  Uiso   1.00
C332   C     0.14924   0.76215   0.03703   0.00000  Uiso   1.00
C333   C     0.09578   0.79862   0.08137   0.00000  Uiso   1.00
C334   C     0.10518   0.88307   0.10366   0.00000  Uiso   1.00
C335   C     0.09498   0.01784   0.15445   0.00000  Uiso   1.00
C336   C     0.26157   0.75596   0.96711   0.00000  Uiso   1.00
C337   C     0.27918   0.67681   0.01470   0.00000  Uiso   1.00
C338   C     0.34690   0.65058   0.03610   0.00000  Uiso   1.00
C339   C     0.35180   0.57637   0.07965   0.00000  Uiso   1.00
C340   C     0.21906   0.72435   0.89784   0.00000  Uiso   1.00
C341   C     0.23624   0.73809   0.82100   0.00000  Uiso   1.00
C342   C     0.19053   0.70392   0.76617   0.00000  Uiso   1.00
C343   C     0.20992   0.80839   0.01569   0.00000  Uiso   1.00
C344   C     0.21940   0.89280   0.03790   0.00000  Uiso   1.00
C345   C     0.16597   0.92939   0.08228   0.00000  Uiso   1.00
H346   H     0.10261   0.63483   0.02300   0.00000  Uiso   1.00
H347   H     0.17632   0.52062   0.09606   0.00000  Uiso   1.00
H348   H     0.06567   0.60813   0.88100   0.00000  Uiso   1.00
H349   H     0.04883   0.76281   0.09787   0.00000  Uiso   1.00
H350   H     0.28481   0.41437   0.16763   0.00000  Uiso   1.00
H351   H     0.05149   0.59892   0.71415   0.00000  Uiso   1.00
H352   H     0.01598   0.92510   0.17147   0.00000  Uiso   1.00
H353   H     0.30882   0.79196   0.95049   0.00000  Uiso   1.00
H354   H     0.39385   0.68637   0.01958   0.00000  Uiso   1.00
H355   H     0.28320   0.77388   0.80451   0.00000  Uiso   1.00
H356   H     0.26636   0.92857   0.02138   0.00000  Uiso   1.00
H357   H     0.46136   0.54890   0.10555   0.00000  Uiso   1.00
H358   H     0.22804   0.73345   0.65206   0.00000  Uiso   1.00
H359   H     0.19253   0.05963   0.10939   0.00000  Uiso   1.00
O360   O     0.42530   0.40932   0.18332   0.00000  Uiso   1.00
O361   O     0.11919   0.65146   0.58837   0.00000  Uiso   1.00
O362   O     0.07260   0.07940   0.18837   0.00000  Uiso   1.00
N363   N     0.31469   0.46053   0.14355   0.00000  Uiso   1.00
N364   N     0.09656   0.63306   0.71957   0.00000  Uiso   1.00
N365   N     0.06335   0.93802   0.14711   0.00000  Uiso   1.00
N366   N     0.40969   0.53292   0.11014   0.00000  Uiso   1.00
N367   N     0.19156   0.70545   0.68617   0.00000  Uiso   1.00
N368   N     0.15835   0.01041   0.11371   0.00000  Uiso   1.00
