data_job_04692
_audit_creation_date              2018-12-19
_audit_creation_method            'Materials Studio'
_symmetry_space_group_name_H-M    'P1'
_symmetry_Int_Tables_number       1
_symmetry_cell_setting            triclinic
loop_
_symmetry_equiv_pos_as_xyz
  x,y,z
_cell_length_a                    16.0839
_cell_length_b                    17.2167
_cell_length_c                    16.1238
_cell_angle_alpha                 90.0000
_cell_angle_beta                  90.0000
_cell_angle_gamma                 90.0000
loop_
_atom_site_label
_atom_site_type_symbol
_atom_site_fract_x
_atom_site_fract_y
_atom_site_fract_z
_atom_site_U_iso_or_equiv
_atom_site_adp_type
_atom_site_occupancy
C1     C     0.95145   0.27882   0.54993   0.00000  Uiso   1.00
C2     C     0.89921   0.25199   0.47639   0.00000  Uiso   1.00
C3     C     0.81481   0.26549   0.46579   0.00000  Uiso   1.00
C4     C     0.77841   0.23613   0.39428   0.00000  Uiso   1.00
C5     C     0.69022   0.20073   0.28905   0.00000  Uiso   1.00
C6     C     0.99121   0.20577   0.58581   0.00000  Uiso   1.00
C7     C     0.98417   0.18041   0.66721   0.00000  Uiso   1.00
C8     C     0.02522   0.11214   0.68781   0.00000  Uiso   1.00
C9     C     0.07992   0.00501   0.75247   0.00000  Uiso   1.00
C10    C     0.02249   0.32652   0.51349   0.00000  Uiso   1.00
C11    C     0.04177   0.40268   0.53409   0.00000  Uiso   1.00
C12    C     0.10918   0.43608   0.49381   0.00000  Uiso   1.00
C13    C     0.21244   0.51643   0.44618   0.00000  Uiso   1.00
C14    C     0.03689   0.20269   0.44178   0.00000  Uiso   1.00
C15    C     0.94562   0.21064   0.41765   0.00000  Uiso   1.00
C16    C     0.90934   0.18126   0.34614   0.00000  Uiso   1.00
C17    C     0.82490   0.19471   0.33543   0.00000  Uiso   1.00
C18    C     0.03761   0.16441   0.52707   0.00000  Uiso   1.00
C19    C     0.07870   0.09617   0.54756   0.00000  Uiso   1.00
C20    C     0.07172   0.07071   0.62896   0.00000  Uiso   1.00
C21    C     0.06890   0.28517   0.45474   0.00000  Uiso   1.00
C22    C     0.13630   0.31845   0.41443   0.00000  Uiso   1.00
C23    C     0.15567   0.39465   0.43497   0.00000  Uiso   1.00
H24    H     0.91532   0.31101   0.59567   0.00000  Uiso   1.00
H25    H     0.77891   0.29749   0.51127   0.00000  Uiso   1.00
H26    H     0.94825   0.21242   0.71266   0.00000  Uiso   1.00
H27    H     0.00584   0.43467   0.57955   0.00000  Uiso   1.00
H28    H     0.64814   0.26423   0.39181   0.00000  Uiso   1.00
H29    H     0.00522   0.08489   0.81645   0.00000  Uiso   1.00
H30    H     0.12666   0.55353   0.53578   0.00000  Uiso   1.00
H31    H     0.07303   0.17049   0.39605   0.00000  Uiso   1.00
H32    H     0.94527   0.14926   0.30069   0.00000  Uiso   1.00
H33    H     0.11461   0.06419   0.50208   0.00000  Uiso   1.00
H34    H     0.17220   0.28643   0.36898   0.00000  Uiso   1.00
H35    H     0.78316   0.14392   0.22089   0.00000  Uiso   1.00
H36    H     0.14025   0.96457   0.64554   0.00000  Uiso   1.00
H37    H     0.26168   0.43321   0.36487   0.00000  Uiso   1.00
O38    O     0.62876   0.19262   0.24724   0.00000  Uiso   1.00
O39    O     0.09725   0.95734   0.80436   0.00000  Uiso   1.00
O40    O     0.25657   0.57218   0.43612   0.00000  Uiso   1.00
N41    N     0.69745   0.23884   0.36466   0.00000  Uiso   1.00
N42    N     0.03130   0.07116   0.76168   0.00000  Uiso   1.00
N43    N     0.14484   0.50929   0.49929   0.00000  Uiso   1.00
N44    N     0.77011   0.17410   0.27269   0.00000  Uiso   1.00
N45    N     0.10395   0.00642   0.66971   0.00000  Uiso   1.00
N46    N     0.21750   0.44455   0.40732   0.00000  Uiso   1.00
C47    C     0.54855   0.72118   0.04993   0.00000  Uiso   1.00
C48    C     0.60079   0.74801   0.97639   0.00000  Uiso   1.00
C49    C     0.68519   0.73451   0.96579   0.00000  Uiso   1.00
C50    C     0.72159   0.76387   0.89428   0.00000  Uiso   1.00
C51    C     0.80978   0.79927   0.78905   0.00000  Uiso   1.00
C52    C     0.50879   0.79423   0.08581   0.00000  Uiso   1.00
C53    C     0.51583   0.81959   0.16721   0.00000  Uiso   1.00
C54    C     0.47478   0.88786   0.18781   0.00000  Uiso   1.00
C55    C     0.42008   0.99499   0.25247   0.00000  Uiso   1.00
C56    C     0.47751   0.67348   0.01349   0.00000  Uiso   1.00
C57    C     0.45823   0.59732   0.03409   0.00000  Uiso   1.00
C58    C     0.39082   0.56392   0.99381   0.00000  Uiso   1.00
C59    C     0.28756   0.48357   0.94618   0.00000  Uiso   1.00
C60    C     0.46311   0.79731   0.94178   0.00000  Uiso   1.00
C61    C     0.55438   0.78936   0.91765   0.00000  Uiso   1.00
C62    C     0.59066   0.81874   0.84614   0.00000  Uiso   1.00
C63    C     0.67510   0.80529   0.83543   0.00000  Uiso   1.00
C64    C     0.46239   0.83559   0.02707   0.00000  Uiso   1.00
C65    C     0.42130   0.90383   0.04756   0.00000  Uiso   1.00
C66    C     0.42828   0.92929   0.12896   0.00000  Uiso   1.00
C67    C     0.43110   0.71483   0.95474   0.00000  Uiso   1.00
C68    C     0.36370   0.68155   0.91443   0.00000  Uiso   1.00
C69    C     0.34433   0.60535   0.93497   0.00000  Uiso   1.00
H70    H     0.58468   0.68899   0.09567   0.00000  Uiso   1.00
H71    H     0.72109   0.70251   0.01127   0.00000  Uiso   1.00
H72    H     0.55175   0.78758   0.21266   0.00000  Uiso   1.00
H73    H     0.49416   0.56533   0.07955   0.00000  Uiso   1.00
H74    H     0.85186   0.73577   0.89181   0.00000  Uiso   1.00
H75    H     0.49478   0.91511   0.31645   0.00000  Uiso   1.00
H76    H     0.37334   0.44647   0.03578   0.00000  Uiso   1.00
H77    H     0.42697   0.82951   0.89605   0.00000  Uiso   1.00
H78    H     0.55473   0.85074   0.80069   0.00000  Uiso   1.00
H79    H     0.38539   0.93581   0.00208   0.00000  Uiso   1.00
H80    H     0.32780   0.71357   0.86898   0.00000  Uiso   1.00
H81    H     0.71684   0.85608   0.72089   0.00000  Uiso   1.00
H82    H     0.35975   0.03543   0.14554   0.00000  Uiso   1.00
H83    H     0.23832   0.56679   0.86487   0.00000  Uiso   1.00
O84    O     0.87124   0.80738   0.74724   0.00000  Uiso   1.00
O85    O     0.40275   0.04266   0.30436   0.00000  Uiso   1.00
O86    O     0.24343   0.42782   0.93612   0.00000  Uiso   1.00
N87    N     0.80255   0.76116   0.86466   0.00000  Uiso   1.00
N88    N     0.46870   0.92884   0.26168   0.00000  Uiso   1.00
N89    N     0.35516   0.49071   0.99929   0.00000  Uiso   1.00
N90    N     0.72989   0.82590   0.77269   0.00000  Uiso   1.00
N91    N     0.39605   0.99358   0.16971   0.00000  Uiso   1.00
N92    N     0.28250   0.55545   0.90732   0.00000  Uiso   1.00
C93    C     0.04855   0.77882   0.95007   0.00000  Uiso   1.00
C94    C     0.10079   0.75199   0.02361   0.00000  Uiso   1.00
C95    C     0.18519   0.76549   0.03421   0.00000  Uiso   1.00
C96    C     0.22159   0.73613   0.10572   0.00000  Uiso   1.00
C97    C     0.30978   0.70073   0.21095   0.00000  Uiso   1.00
C98    C     0.00879   0.70577   0.91419   0.00000  Uiso   1.00
C99    C     0.01583   0.68041   0.83279   0.00000  Uiso   1.00
C100   C     0.97478   0.61214   0.81219   0.00000  Uiso   1.00
C101   C     0.92008   0.50501   0.74753   0.00000  Uiso   1.00
C102   C     0.97751   0.82652   0.98651   0.00000  Uiso   1.00
C103   C     0.95823   0.90268   0.96591   0.00000  Uiso   1.00
C104   C     0.89082   0.93608   0.00619   0.00000  Uiso   1.00
C105   C     0.78756   0.01643   0.05382   0.00000  Uiso   1.00
C106   C     0.96311   0.70269   0.05822   0.00000  Uiso   1.00
C107   C     0.05438   0.71064   0.08235   0.00000  Uiso   1.00
C108   C     0.09066   0.68126   0.15386   0.00000  Uiso   1.00
C109   C     0.17510   0.69471   0.16457   0.00000  Uiso   1.00
C110   C     0.96239   0.66441   0.97293   0.00000  Uiso   1.00
C111   C     0.92130   0.59617   0.95244   0.00000  Uiso   1.00
C112   C     0.92828   0.57071   0.87104   0.00000  Uiso   1.00
C113   C     0.93110   0.78517   0.04526   0.00000  Uiso   1.00
C114   C     0.86370   0.81845   0.08557   0.00000  Uiso   1.00
C115   C     0.84433   0.89465   0.06503   0.00000  Uiso   1.00
H116   H     0.08468   0.81101   0.90433   0.00000  Uiso   1.00
H117   H     0.22109   0.79749   0.98873   0.00000  Uiso   1.00
H118   H     0.05175   0.71242   0.78734   0.00000  Uiso   1.00
H119   H     0.99416   0.93467   0.92045   0.00000  Uiso   1.00
H120   H     0.35186   0.76423   0.10819   0.00000  Uiso   1.00
H121   H     0.99478   0.58489   0.68355   0.00000  Uiso   1.00
H122   H     0.87334   0.05353   0.96422   0.00000  Uiso   1.00
H123   H     0.92697   0.67049   0.10395   0.00000  Uiso   1.00
H124   H     0.05473   0.64926   0.19931   0.00000  Uiso   1.00
H125   H     0.88539   0.56419   0.99792   0.00000  Uiso   1.00
H126   H     0.82780   0.78643   0.13102   0.00000  Uiso   1.00
H127   H     0.21684   0.64392   0.27911   0.00000  Uiso   1.00
H128   H     0.85975   0.46457   0.85446   0.00000  Uiso   1.00
H129   H     0.73832   0.93321   0.13513   0.00000  Uiso   1.00
O130   O     0.37124   0.69262   0.25276   0.00000  Uiso   1.00
O131   O     0.90275   0.45734   0.69564   0.00000  Uiso   1.00
O132   O     0.74343   0.07218   0.06388   0.00000  Uiso   1.00
N133   N     0.30255   0.73884   0.13534   0.00000  Uiso   1.00
N134   N     0.96870   0.57116   0.73832   0.00000  Uiso   1.00
N135   N     0.85516   0.00929   0.00071   0.00000  Uiso   1.00
N136   N     0.22989   0.67410   0.22731   0.00000  Uiso   1.00
N137   N     0.89605   0.50642   0.83029   0.00000  Uiso   1.00
N138   N     0.78250   0.94455   0.09268   0.00000  Uiso   1.00
C139   C     0.45145   0.22118   0.45007   0.00000  Uiso   1.00
C140   C     0.39921   0.24801   0.52361   0.00000  Uiso   1.00
C141   C     0.31481   0.23451   0.53421   0.00000  Uiso   1.00
C142   C     0.27841   0.26387   0.60572   0.00000  Uiso   1.00
C143   C     0.19022   0.29927   0.71095   0.00000  Uiso   1.00
C144   C     0.49121   0.29423   0.41419   0.00000  Uiso   1.00
C145   C     0.48417   0.31959   0.33279   0.00000  Uiso   1.00
C146   C     0.52522   0.38786   0.31219   0.00000  Uiso   1.00
C147   C     0.57992   0.49499   0.24753   0.00000  Uiso   1.00
C148   C     0.52249   0.17348   0.48651   0.00000  Uiso   1.00
C149   C     0.54177   0.09732   0.46591   0.00000  Uiso   1.00
C150   C     0.60918   0.06392   0.50619   0.00000  Uiso   1.00
C151   C     0.71244   0.98357   0.55382   0.00000  Uiso   1.00
C152   C     0.53689   0.29731   0.55822   0.00000  Uiso   1.00
C153   C     0.44562   0.28936   0.58235   0.00000  Uiso   1.00
C154   C     0.40934   0.31874   0.65386   0.00000  Uiso   1.00
C155   C     0.32490   0.30529   0.66457   0.00000  Uiso   1.00
C156   C     0.53761   0.33559   0.47293   0.00000  Uiso   1.00
C157   C     0.57870   0.40383   0.45244   0.00000  Uiso   1.00
C158   C     0.57172   0.42929   0.37104   0.00000  Uiso   1.00
C159   C     0.56890   0.21483   0.54526   0.00000  Uiso   1.00
C160   C     0.63630   0.18155   0.58557   0.00000  Uiso   1.00
C161   C     0.65567   0.10535   0.56503   0.00000  Uiso   1.00
H162   H     0.41532   0.18899   0.40433   0.00000  Uiso   1.00
H163   H     0.27891   0.20251   0.48873   0.00000  Uiso   1.00
H164   H     0.44825   0.28758   0.28734   0.00000  Uiso   1.00
H165   H     0.50584   0.06533   0.42045   0.00000  Uiso   1.00
H166   H     0.14814   0.23577   0.60819   0.00000  Uiso   1.00
H167   H     0.50522   0.41511   0.18355   0.00000  Uiso   1.00
H168   H     0.62666   0.94647   0.46422   0.00000  Uiso   1.00
H169   H     0.57303   0.32951   0.60395   0.00000  Uiso   1.00
H170   H     0.44527   0.35074   0.69931   0.00000  Uiso   1.00
H171   H     0.61461   0.43581   0.49792   0.00000  Uiso   1.00
H172   H     0.67220   0.21357   0.63102   0.00000  Uiso   1.00
H173   H     0.28316   0.35608   0.77911   0.00000  Uiso   1.00
H174   H     0.64025   0.53543   0.35446   0.00000  Uiso   1.00
H175   H     0.76168   0.06679   0.63513   0.00000  Uiso   1.00
O176   O     0.12876   0.30738   0.75276   0.00000  Uiso   1.00
O177   O     0.59725   0.54266   0.19564   0.00000  Uiso   1.00
O178   O     0.75657   0.92782   0.56388   0.00000  Uiso   1.00
N179   N     0.19745   0.26116   0.63534   0.00000  Uiso   1.00
N180   N     0.53130   0.42884   0.23832   0.00000  Uiso   1.00
N181   N     0.64484   0.99071   0.50071   0.00000  Uiso   1.00
N182   N     0.27011   0.32590   0.72731   0.00000  Uiso   1.00
N183   N     0.60395   0.49358   0.33029   0.00000  Uiso   1.00
N184   N     0.71750   0.05545   0.59268   0.00000  Uiso   1.00
C185   C     0.04855   0.72118   0.45007   0.00000  Uiso   1.00
C186   C     0.10079   0.74801   0.52361   0.00000  Uiso   1.00
C187   C     0.18519   0.73451   0.53421   0.00000  Uiso   1.00
C188   C     0.22159   0.76387   0.60572   0.00000  Uiso   1.00
C189   C     0.30978   0.79927   0.71095   0.00000  Uiso   1.00
C190   C     0.00879   0.79423   0.41419   0.00000  Uiso   1.00
C191   C     0.01583   0.81959   0.33279   0.00000  Uiso   1.00
C192   C     0.97478   0.88786   0.31219   0.00000  Uiso   1.00
C193   C     0.92008   0.99499   0.24753   0.00000  Uiso   1.00
C194   C     0.97751   0.67348   0.48651   0.00000  Uiso   1.00
C195   C     0.95823   0.59732   0.46591   0.00000  Uiso   1.00
C196   C     0.89082   0.56392   0.50619   0.00000  Uiso   1.00
C197   C     0.78756   0.48357   0.55382   0.00000  Uiso   1.00
C198   C     0.96311   0.79731   0.55822   0.00000  Uiso   1.00
C199   C     0.05438   0.78936   0.58235   0.00000  Uiso   1.00
C200   C     0.09066   0.81874   0.65386   0.00000  Uiso   1.00
C201   C     0.17510   0.80529   0.66457   0.00000  Uiso   1.00
C202   C     0.96239   0.83559   0.47293   0.00000  Uiso   1.00
C203   C     0.92130   0.90383   0.45244   0.00000  Uiso   1.00
C204   C     0.92828   0.92929   0.37104   0.00000  Uiso   1.00
C205   C     0.93110   0.71483   0.54526   0.00000  Uiso   1.00
C206   C     0.86370   0.68155   0.58557   0.00000  Uiso   1.00
C207   C     0.84433   0.60535   0.56503   0.00000  Uiso   1.00
H208   H     0.08468   0.68899   0.40433   0.00000  Uiso   1.00
H209   H     0.22109   0.70251   0.48873   0.00000  Uiso   1.00
H210   H     0.05175   0.78758   0.28734   0.00000  Uiso   1.00
H211   H     0.99416   0.56533   0.42045   0.00000  Uiso   1.00
H212   H     0.35186   0.73577   0.60819   0.00000  Uiso   1.00
H213   H     0.99478   0.91511   0.18355   0.00000  Uiso   1.00
H214   H     0.87334   0.44647   0.46422   0.00000  Uiso   1.00
H215   H     0.92697   0.82951   0.60395   0.00000  Uiso   1.00
H216   H     0.05473   0.85074   0.69931   0.00000  Uiso   1.00
H217   H     0.88539   0.93581   0.49792   0.00000  Uiso   1.00
H218   H     0.82780   0.71357   0.63102   0.00000  Uiso   1.00
H219   H     0.21684   0.85608   0.77911   0.00000  Uiso   1.00
H220   H     0.85975   0.03543   0.35446   0.00000  Uiso   1.00
H221   H     0.73832   0.56679   0.63513   0.00000  Uiso   1.00
O222   O     0.37124   0.80738   0.75276   0.00000  Uiso   1.00
O223   O     0.90275   0.04266   0.19564   0.00000  Uiso   1.00
O224   O     0.74343   0.42782   0.56388   0.00000  Uiso   1.00
N225   N     0.30255   0.76116   0.63534   0.00000  Uiso   1.00
N226   N     0.96870   0.92884   0.23832   0.00000  Uiso   1.00
N227   N     0.85516   0.49071   0.50071   0.00000  Uiso   1.00
N228   N     0.22989   0.82590   0.72731   0.00000  Uiso   1.00
N229   N     0.89605   0.99358   0.33029   0.00000  Uiso   1.00
N230   N     0.78250   0.55545   0.59268   0.00000  Uiso   1.00
C231   C     0.45145   0.27882   0.95007   0.00000  Uiso   1.00
C232   C     0.39921   0.25199   0.02361   0.00000  Uiso   1.00
C233   C     0.31481   0.26549   0.03421   0.00000  Uiso   1.00
C234   C     0.27841   0.23613   0.10572   0.00000  Uiso   1.00
C235   C     0.19022   0.20073   0.21095   0.00000  Uiso   1.00
C236   C     0.49121   0.20577   0.91419   0.00000  Uiso   1.00
C237   C     0.48417   0.18041   0.83279   0.00000  Uiso   1.00
C238   C     0.52522   0.11214   0.81219   0.00000  Uiso   1.00
C239   C     0.57992   0.00501   0.74753   0.00000  Uiso   1.00
C240   C     0.52249   0.32652   0.98651   0.00000  Uiso   1.00
C241   C     0.54177   0.40268   0.96591   0.00000  Uiso   1.00
C242   C     0.60918   0.43608   0.00619   0.00000  Uiso   1.00
C243   C     0.71244   0.51643   0.05382   0.00000  Uiso   1.00
C244   C     0.53689   0.20269   0.05822   0.00000  Uiso   1.00
C245   C     0.44562   0.21064   0.08235   0.00000  Uiso   1.00
C246   C     0.40934   0.18126   0.15386   0.00000  Uiso   1.00
C247   C     0.32490   0.19471   0.16457   0.00000  Uiso   1.00
C248   C     0.53761   0.16441   0.97293   0.00000  Uiso   1.00
C249   C     0.57870   0.09617   0.95244   0.00000  Uiso   1.00
C250   C     0.57172   0.07071   0.87104   0.00000  Uiso   1.00
C251   C     0.56890   0.28517   0.04526   0.00000  Uiso   1.00
C252   C     0.63630   0.31845   0.08557   0.00000  Uiso   1.00
C253   C     0.65567   0.39465   0.06503   0.00000  Uiso   1.00
H254   H     0.41532   0.31101   0.90433   0.00000  Uiso   1.00
H255   H     0.27891   0.29749   0.98873   0.00000  Uiso   1.00
H256   H     0.44825   0.21242   0.78734   0.00000  Uiso   1.00
H257   H     0.50584   0.43467   0.92045   0.00000  Uiso   1.00
H258   H     0.14814   0.26423   0.10819   0.00000  Uiso   1.00
H259   H     0.50522   0.08489   0.68355   0.00000  Uiso   1.00
H260   H     0.62666   0.55353   0.96422   0.00000  Uiso   1.00
H261   H     0.57303   0.17049   0.10395   0.00000  Uiso   1.00
H262   H     0.44527   0.14926   0.19931   0.00000  Uiso   1.00
H263   H     0.61461   0.06419   0.99792   0.00000  Uiso   1.00
H264   H     0.67220   0.28643   0.13102   0.00000  Uiso   1.00
H265   H     0.28316   0.14392   0.27911   0.00000  Uiso   1.00
H266   H     0.64025   0.96457   0.85446   0.00000  Uiso   1.00
H267   H     0.76168   0.43321   0.13513   0.00000  Uiso   1.00
O268   O     0.12876   0.19262   0.25276   0.00000  Uiso   1.00
O269   O     0.59725   0.95734   0.69564   0.00000  Uiso   1.00
O270   O     0.75657   0.57218   0.06388   0.00000  Uiso   1.00
N271   N     0.19745   0.23884   0.13534   0.00000  Uiso   1.00
N272   N     0.53130   0.07116   0.73832   0.00000  Uiso   1.00
N273   N     0.64484   0.50929   0.00071   0.00000  Uiso   1.00
N274   N     0.27011   0.17410   0.22731   0.00000  Uiso   1.00
N275   N     0.60395   0.00642   0.83029   0.00000  Uiso   1.00
N276   N     0.71750   0.44455   0.09268   0.00000  Uiso   1.00
C277   C     0.95145   0.22118   0.04993   0.00000  Uiso   1.00
C278   C     0.89921   0.24801   0.97639   0.00000  Uiso   1.00
C279   C     0.81481   0.23451   0.96579   0.00000  Uiso   1.00
C280   C     0.77841   0.26387   0.89428   0.00000  Uiso   1.00
C281   C     0.69022   0.29927   0.78905   0.00000  Uiso   1.00
C282   C     0.99121   0.29423   0.08581   0.00000  Uiso   1.00
C283   C     0.98417   0.31959   0.16721   0.00000  Uiso   1.00
C284   C     0.02522   0.38786   0.18781   0.00000  Uiso   1.00
C285   C     0.07992   0.49499   0.25247   0.00000  Uiso   1.00
C286   C     0.02249   0.17348   0.01349   0.00000  Uiso   1.00
C287   C     0.04177   0.09732   0.03409   0.00000  Uiso   1.00
C288   C     0.10918   0.06392   0.99381   0.00000  Uiso   1.00
C289   C     0.21244   0.98357   0.94618   0.00000  Uiso   1.00
C290   C     0.03689   0.29731   0.94178   0.00000  Uiso   1.00
C291   C     0.94562   0.28936   0.91765   0.00000  Uiso   1.00
C292   C     0.90934   0.31874   0.84614   0.00000  Uiso   1.00
C293   C     0.82490   0.30529   0.83543   0.00000  Uiso   1.00
C294   C     0.03761   0.33559   0.02707   0.00000  Uiso   1.00
C295   C     0.07870   0.40383   0.04756   0.00000  Uiso   1.00
C296   C     0.07172   0.42929   0.12896   0.00000  Uiso   1.00
C297   C     0.06890   0.21483   0.95474   0.00000  Uiso   1.00
C298   C     0.13630   0.18155   0.91443   0.00000  Uiso   1.00
C299   C     0.15567   0.10535   0.93497   0.00000  Uiso   1.00
H300   H     0.91532   0.18899   0.09567   0.00000  Uiso   1.00
H301   H     0.77891   0.20251   0.01127   0.00000  Uiso   1.00
H302   H     0.94825   0.28758   0.21266   0.00000  Uiso   1.00
H303   H     0.00584   0.06533   0.07955   0.00000  Uiso   1.00
H304   H     0.64814   0.23577   0.89181   0.00000  Uiso   1.00
H305   H     0.00522   0.41511   0.31645   0.00000  Uiso   1.00
H306   H     0.12666   0.94647   0.03578   0.00000  Uiso   1.00
H307   H     0.07303   0.32951   0.89605   0.00000  Uiso   1.00
H308   H     0.94527   0.35074   0.80069   0.00000  Uiso   1.00
H309   H     0.11461   0.43581   0.00208   0.00000  Uiso   1.00
H310   H     0.17220   0.21357   0.86898   0.00000  Uiso   1.00
H311   H     0.78316   0.35608   0.72089   0.00000  Uiso   1.00
H312   H     0.14025   0.53543   0.14554   0.00000  Uiso   1.00
H313   H     0.26168   0.06679   0.86487   0.00000  Uiso   1.00
O314   O     0.62876   0.30738   0.74724   0.00000  Uiso   1.00
O315   O     0.09725   0.54266   0.30436   0.00000  Uiso   1.00
O316   O     0.25657   0.92782   0.93612   0.00000  Uiso   1.00
N317   N     0.69745   0.26116   0.86466   0.00000  Uiso   1.00
N318   N     0.03130   0.42884   0.26168   0.00000  Uiso   1.00
N319   N     0.14484   0.99071   0.99929   0.00000  Uiso   1.00
N320   N     0.77011   0.32590   0.77269   0.00000  Uiso   1.00
N321   N     0.10395   0.49358   0.16971   0.00000  Uiso   1.00
N322   N     0.21750   0.05545   0.90732   0.00000  Uiso   1.00
C323   C     0.54855   0.77882   0.54993   0.00000  Uiso   1.00
C324   C     0.60079   0.75199   0.47639   0.00000  Uiso   1.00
C325   C     0.68519   0.76549   0.46579   0.00000  Uiso   1.00
C326   C     0.72159   0.73613   0.39428   0.00000  Uiso   1.00
C327   C     0.80978   0.70073   0.28905   0.00000  Uiso   1.00
C328   C     0.50879   0.70577   0.58581   0.00000  Uiso   1.00
C329   C     0.51583   0.68041   0.66721   0.00000  Uiso   1.00
C330   C     0.47478   0.61214   0.68781   0.00000  Uiso   1.00
C331   C     0.42008   0.50501   0.75247   0.00000  Uiso   1.00
C332   C     0.47751   0.82652   0.51349   0.00000  Uiso   1.00
C333   C     0.45823   0.90268   0.53409   0.00000  Uiso   1.00
C334   C     0.39082   0.93608   0.49381   0.00000  Uiso   1.00
C335   C     0.28756   0.01643   0.44618   0.00000  Uiso   1.00
C336   C     0.46311   0.70269   0.44178   0.00000  Uiso   1.00
C337   C     0.55438   0.71064   0.41765   0.00000  Uiso   1.00
C338   C     0.59066   0.68126   0.34614   0.00000  Uiso   1.00
C339   C     0.67510   0.69471   0.33543   0.00000  Uiso   1.00
C340   C     0.46239   0.66441   0.52707   0.00000  Uiso   1.00
C341   C     0.42130   0.59617   0.54756   0.00000  Uiso   1.00
C342   C     0.42828   0.57071   0.62896   0.00000  Uiso   1.00
C343   C     0.43110   0.78517   0.45474   0.00000  Uiso   1.00
C344   C     0.36370   0.81845   0.41443   0.00000  Uiso   1.00
C345   C     0.34433   0.89465   0.43497   0.00000  Uiso   1.00
H346   H     0.58468   0.81101   0.59567   0.00000  Uiso   1.00
H347   H     0.72109   0.79749   0.51127   0.00000  Uiso   1.00
H348   H     0.55175   0.71242   0.71266   0.00000  Uiso   1.00
H349   H     0.49416   0.93467   0.57955   0.00000  Uiso   1.00
H350   H     0.85186   0.76423   0.39181   0.00000  Uiso   1.00
H351   H     0.49478   0.58489   0.81645   0.00000  Uiso   1.00
H352   H     0.37334   0.05353   0.53578   0.00000  Uiso   1.00
H353   H     0.42697   0.67049   0.39605   0.00000  Uiso   1.00
H354   H     0.55473   0.64926   0.30069   0.00000  Uiso   1.00
H355   H     0.38539   0.56419   0.50208   0.00000  Uiso   1.00
H356   H     0.32780   0.78643   0.36898   0.00000  Uiso   1.00
H357   H     0.71684   0.64392   0.22089   0.00000  Uiso   1.00
H358   H     0.35975   0.46457   0.64554   0.00000  Uiso   1.00
H359   H     0.23832   0.93321   0.36487   0.00000  Uiso   1.00
O360   O     0.87124   0.69262   0.24724   0.00000  Uiso   1.00
O361   O     0.40275   0.45734   0.80436   0.00000  Uiso   1.00
O362   O     0.24343   0.07218   0.43612   0.00000  Uiso   1.00
N363   N     0.80255   0.73884   0.36466   0.00000  Uiso   1.00
N364   N     0.46870   0.57116   0.76168   0.00000  Uiso   1.00
N365   N     0.35516   0.00929   0.49929   0.00000  Uiso   1.00
N366   N     0.72989   0.67410   0.27269   0.00000  Uiso   1.00
N367   N     0.39605   0.50642   0.66971   0.00000  Uiso   1.00
N368   N     0.28250   0.94455   0.40732   0.00000  Uiso   1.00
