data_job_03485
_audit_creation_date              2018-12-19
_audit_creation_method            'Materials Studio'
_symmetry_space_group_name_H-M    'P1'
_symmetry_Int_Tables_number       1
_symmetry_cell_setting            triclinic
loop_
_symmetry_equiv_pos_as_xyz
  x,y,z
_cell_length_a                    18.7159
_cell_length_b                    13.3217
_cell_length_c                    29.2237
_cell_angle_alpha                 90.0000
_cell_angle_beta                  58.4743
_cell_angle_gamma                 90.0000
loop_
_atom_site_label
_atom_site_type_symbol
_atom_site_fract_x
_atom_site_fract_y
_atom_site_fract_z
_atom_site_U_iso_or_equiv
_atom_site_adp_type
_atom_site_occupancy
C1     C     0.28495   0.32300   0.88724   0.00000  Uiso   1.00
C2     C     0.19918   0.36525   0.90332   0.00000  Uiso   1.00
C3     C     0.12250   0.32111   0.93890   0.00000  Uiso   1.00
C4     C     0.05116   0.37160   0.94829   0.00000  Uiso   1.00
C5     C     0.91719   0.42329   0.97709   0.00000  Uiso   1.00
C6     C     0.33354   0.31436   0.82621   0.00000  Uiso   1.00
C7     C     0.36984   0.22744   0.79694   0.00000  Uiso   1.00
C8     C     0.41161   0.23511   0.74142   0.00000  Uiso   1.00
C9     C     0.48629   0.20781   0.65050   0.00000  Uiso   1.00
C10    C     0.32873   0.40462   0.90027   0.00000  Uiso   1.00
C11    C     0.36100   0.39358   0.93328   0.00000  Uiso   1.00
C12    C     0.39873   0.47724   0.94011   0.00000  Uiso   1.00
C13    C     0.46594   0.59007   0.96418   0.00000  Uiso   1.00
C14    C     0.29459   0.49117   0.84067   0.00000  Uiso   1.00
C15    C     0.20442   0.45660   0.87802   0.00000  Uiso   1.00
C16    C     0.13317   0.50718   0.88737   0.00000  Uiso   1.00
C17    C     0.05640   0.46312   0.92295   0.00000  Uiso   1.00
C18    C     0.33878   0.40571   0.80091   0.00000  Uiso   1.00
C19    C     0.38051   0.41351   0.74542   0.00000  Uiso   1.00
C20    C     0.41686   0.32662   0.71608   0.00000  Uiso   1.00
C21    C     0.33397   0.49597   0.87498   0.00000  Uiso   1.00
C22    C     0.37166   0.57965   0.88175   0.00000  Uiso   1.00
C23    C     0.40398   0.56875   0.91476   0.00000  Uiso   1.00
H24    H     0.28087   0.25188   0.90693   0.00000  Uiso   1.00
H25    H     0.11847   0.25041   0.95846   0.00000  Uiso   1.00
H26    H     0.36578   0.15676   0.81653   0.00000  Uiso   1.00
H27    H     0.35694   0.32288   0.95285   0.00000  Uiso   1.00
H28    H     0.94074   0.28905   0.00442   0.00000  Uiso   1.00
H29    H     0.46222   0.09160   0.70515   0.00000  Uiso   1.00
H30    H     0.44358   0.44189   0.99260   0.00000  Uiso   1.00
H31    H     0.29867   0.56229   0.82097   0.00000  Uiso   1.00
H32    H     0.13725   0.57787   0.86778   0.00000  Uiso   1.00
H33    H     0.38455   0.48421   0.72585   0.00000  Uiso   1.00
H34    H     0.37571   0.65033   0.86217   0.00000  Uiso   1.00
H35    H     0.95597   0.55482   0.93082   0.00000  Uiso   1.00
H36    H     0.47746   0.35737   0.63155   0.00000  Uiso   1.00
H37    H     0.45881   0.70766   0.91900   0.00000  Uiso   1.00
O38    O     0.84185   0.42656   0.99995   0.00000  Uiso   1.00
O39    O     0.52603   0.16751   0.60733   0.00000  Uiso   1.00
O40    O     0.50155   0.62708   0.98445   0.00000  Uiso   1.00
N41    N     0.96648   0.34947   0.98068   0.00000  Uiso   1.00
N42    N     0.45402   0.16486   0.70089   0.00000  Uiso   1.00
N43    N     0.43661   0.49235   0.96961   0.00000  Uiso   1.00
N44    N     0.97468   0.49248   0.94108   0.00000  Uiso   1.00
N45    N     0.46222   0.30787   0.66128   0.00000  Uiso   1.00
N46    N     0.44481   0.63536   0.93001   0.00000  Uiso   1.00
C47    C     0.78495   0.82300   0.88724   0.00000  Uiso   1.00
C48    C     0.69918   0.86525   0.90332   0.00000  Uiso   1.00
C49    C     0.62250   0.82111   0.93890   0.00000  Uiso   1.00
C50    C     0.55116   0.87160   0.94829   0.00000  Uiso   1.00
C51    C     0.41719   0.92329   0.97709   0.00000  Uiso   1.00
C52    C     0.83354   0.81436   0.82621   0.00000  Uiso   1.00
C53    C     0.86984   0.72744   0.79694   0.00000  Uiso   1.00
C54    C     0.91161   0.73511   0.74142   0.00000  Uiso   1.00
C55    C     0.98629   0.70781   0.65050   0.00000  Uiso   1.00
C56    C     0.82873   0.90462   0.90027   0.00000  Uiso   1.00
C57    C     0.86100   0.89358   0.93328   0.00000  Uiso   1.00
C58    C     0.89873   0.97724   0.94011   0.00000  Uiso   1.00
C59    C     0.96594   0.09007   0.96418   0.00000  Uiso   1.00
C60    C     0.79459   0.99117   0.84067   0.00000  Uiso   1.00
C61    C     0.70442   0.95660   0.87802   0.00000  Uiso   1.00
C62    C     0.63317   0.00718   0.88737   0.00000  Uiso   1.00
C63    C     0.55640   0.96312   0.92295   0.00000  Uiso   1.00
C64    C     0.83878   0.90571   0.80091   0.00000  Uiso   1.00
C65    C     0.88051   0.91351   0.74542   0.00000  Uiso   1.00
C66    C     0.91686   0.82662   0.71608   0.00000  Uiso   1.00
C67    C     0.83397   0.99597   0.87498   0.00000  Uiso   1.00
C68    C     0.87166   0.07965   0.88175   0.00000  Uiso   1.00
C69    C     0.90398   0.06875   0.91476   0.00000  Uiso   1.00
H70    H     0.78087   0.75188   0.90693   0.00000  Uiso   1.00
H71    H     0.61847   0.75041   0.95846   0.00000  Uiso   1.00
H72    H     0.86578   0.65676   0.81653   0.00000  Uiso   1.00
H73    H     0.85694   0.82288   0.95285   0.00000  Uiso   1.00
H74    H     0.44074   0.78905   0.00442   0.00000  Uiso   1.00
H75    H     0.96222   0.59160   0.70515   0.00000  Uiso   1.00
H76    H     0.94358   0.94189   0.99260   0.00000  Uiso   1.00
H77    H     0.79867   0.06229   0.82097   0.00000  Uiso   1.00
H78    H     0.63725   0.07787   0.86778   0.00000  Uiso   1.00
H79    H     0.88455   0.98421   0.72585   0.00000  Uiso   1.00
H80    H     0.87571   0.15033   0.86217   0.00000  Uiso   1.00
H81    H     0.45597   0.05482   0.93082   0.00000  Uiso   1.00
H82    H     0.97746   0.85737   0.63155   0.00000  Uiso   1.00
H83    H     0.95881   0.20766   0.91900   0.00000  Uiso   1.00
O84    O     0.34185   0.92656   0.99995   0.00000  Uiso   1.00
O85    O     0.02603   0.66751   0.60733   0.00000  Uiso   1.00
O86    O     0.00155   0.12708   0.98445   0.00000  Uiso   1.00
N87    N     0.46648   0.84947   0.98068   0.00000  Uiso   1.00
N88    N     0.95402   0.66486   0.70089   0.00000  Uiso   1.00
N89    N     0.93661   0.99235   0.96961   0.00000  Uiso   1.00
N90    N     0.47468   0.99248   0.94108   0.00000  Uiso   1.00
N91    N     0.96222   0.80787   0.66128   0.00000  Uiso   1.00
N92    N     0.94481   0.13536   0.93001   0.00000  Uiso   1.00
C93    C     0.71505   0.32300   0.61276   0.00000  Uiso   1.00
C94    C     0.80082   0.36525   0.59668   0.00000  Uiso   1.00
C95    C     0.87750   0.32111   0.56110   0.00000  Uiso   1.00
C96    C     0.94884   0.37160   0.55171   0.00000  Uiso   1.00
C97    C     0.08281   0.42329   0.52291   0.00000  Uiso   1.00
C98    C     0.66646   0.31436   0.67379   0.00000  Uiso   1.00
C99    C     0.63016   0.22744   0.70306   0.00000  Uiso   1.00
C100   C     0.58839   0.23511   0.75858   0.00000  Uiso   1.00
C101   C     0.51371   0.20781   0.84950   0.00000  Uiso   1.00
C102   C     0.67127   0.40462   0.59973   0.00000  Uiso   1.00
C103   C     0.63900   0.39358   0.56672   0.00000  Uiso   1.00
C104   C     0.60127   0.47724   0.55989   0.00000  Uiso   1.00
C105   C     0.53406   0.59007   0.53582   0.00000  Uiso   1.00
C106   C     0.70541   0.49117   0.65933   0.00000  Uiso   1.00
C107   C     0.79558   0.45660   0.62198   0.00000  Uiso   1.00
C108   C     0.86683   0.50718   0.61263   0.00000  Uiso   1.00
C109   C     0.94360   0.46312   0.57705   0.00000  Uiso   1.00
C110   C     0.66122   0.40571   0.69909   0.00000  Uiso   1.00
C111   C     0.61949   0.41351   0.75458   0.00000  Uiso   1.00
C112   C     0.58314   0.32662   0.78392   0.00000  Uiso   1.00
C113   C     0.66603   0.49597   0.62502   0.00000  Uiso   1.00
C114   C     0.62834   0.57965   0.61825   0.00000  Uiso   1.00
C115   C     0.59602   0.56875   0.58524   0.00000  Uiso   1.00
H116   H     0.71913   0.25188   0.59307   0.00000  Uiso   1.00
H117   H     0.88153   0.25041   0.54154   0.00000  Uiso   1.00
H118   H     0.63422   0.15676   0.68347   0.00000  Uiso   1.00
H119   H     0.64306   0.32288   0.54715   0.00000  Uiso   1.00
H120   H     0.05926   0.28905   0.49558   0.00000  Uiso   1.00
H121   H     0.53778   0.09160   0.79485   0.00000  Uiso   1.00
H122   H     0.55642   0.44189   0.50740   0.00000  Uiso   1.00
H123   H     0.70133   0.56229   0.67903   0.00000  Uiso   1.00
H124   H     0.86275   0.57787   0.63222   0.00000  Uiso   1.00
H125   H     0.61545   0.48421   0.77415   0.00000  Uiso   1.00
H126   H     0.62429   0.65033   0.63783   0.00000  Uiso   1.00
H127   H     0.04403   0.55482   0.56918   0.00000  Uiso   1.00
H128   H     0.52254   0.35737   0.86845   0.00000  Uiso   1.00
H129   H     0.54119   0.70766   0.58100   0.00000  Uiso   1.00
O130   O     0.15815   0.42656   0.50005   0.00000  Uiso   1.00
O131   O     0.47397   0.16751   0.89267   0.00000  Uiso   1.00
O132   O     0.49845   0.62708   0.51555   0.00000  Uiso   1.00
N133   N     0.03352   0.34947   0.51932   0.00000  Uiso   1.00
N134   N     0.54598   0.16486   0.79911   0.00000  Uiso   1.00
N135   N     0.56339   0.49235   0.53039   0.00000  Uiso   1.00
N136   N     0.02532   0.49248   0.55892   0.00000  Uiso   1.00
N137   N     0.53778   0.30787   0.83872   0.00000  Uiso   1.00
N138   N     0.55519   0.63536   0.56999   0.00000  Uiso   1.00
C139   C     0.21505   0.82300   0.61276   0.00000  Uiso   1.00
C140   C     0.30082   0.86525   0.59668   0.00000  Uiso   1.00
C141   C     0.37750   0.82111   0.56110   0.00000  Uiso   1.00
C142   C     0.44884   0.87160   0.55171   0.00000  Uiso   1.00
C143   C     0.58281   0.92329   0.52291   0.00000  Uiso   1.00
C144   C     0.16646   0.81436   0.67379   0.00000  Uiso   1.00
C145   C     0.13016   0.72744   0.70306   0.00000  Uiso   1.00
C146   C     0.08839   0.73511   0.75858   0.00000  Uiso   1.00
C147   C     0.01371   0.70781   0.84950   0.00000  Uiso   1.00
C148   C     0.17127   0.90462   0.59973   0.00000  Uiso   1.00
C149   C     0.13900   0.89358   0.56672   0.00000  Uiso   1.00
C150   C     0.10127   0.97724   0.55989   0.00000  Uiso   1.00
C151   C     0.03406   0.09007   0.53582   0.00000  Uiso   1.00
C152   C     0.20541   0.99117   0.65933   0.00000  Uiso   1.00
C153   C     0.29558   0.95660   0.62198   0.00000  Uiso   1.00
C154   C     0.36683   0.00718   0.61263   0.00000  Uiso   1.00
C155   C     0.44360   0.96312   0.57705   0.00000  Uiso   1.00
C156   C     0.16122   0.90571   0.69909   0.00000  Uiso   1.00
C157   C     0.11949   0.91351   0.75458   0.00000  Uiso   1.00
C158   C     0.08314   0.82662   0.78392   0.00000  Uiso   1.00
C159   C     0.16603   0.99597   0.62502   0.00000  Uiso   1.00
C160   C     0.12834   0.07965   0.61825   0.00000  Uiso   1.00
C161   C     0.09602   0.06875   0.58524   0.00000  Uiso   1.00
H162   H     0.21913   0.75188   0.59307   0.00000  Uiso   1.00
H163   H     0.38153   0.75041   0.54154   0.00000  Uiso   1.00
H164   H     0.13422   0.65676   0.68347   0.00000  Uiso   1.00
H165   H     0.14306   0.82288   0.54715   0.00000  Uiso   1.00
H166   H     0.55926   0.78905   0.49558   0.00000  Uiso   1.00
H167   H     0.03778   0.59160   0.79485   0.00000  Uiso   1.00
H168   H     0.05642   0.94189   0.50740   0.00000  Uiso   1.00
H169   H     0.20133   0.06229   0.67903   0.00000  Uiso   1.00
H170   H     0.36275   0.07787   0.63222   0.00000  Uiso   1.00
H171   H     0.11545   0.98421   0.77415   0.00000  Uiso   1.00
H172   H     0.12429   0.15033   0.63783   0.00000  Uiso   1.00
H173   H     0.54403   0.05482   0.56918   0.00000  Uiso   1.00
H174   H     0.02254   0.85737   0.86845   0.00000  Uiso   1.00
H175   H     0.04119   0.20766   0.58100   0.00000  Uiso   1.00
O176   O     0.65815   0.92656   0.50005   0.00000  Uiso   1.00
O177   O     0.97397   0.66751   0.89267   0.00000  Uiso   1.00
O178   O     0.99845   0.12708   0.51555   0.00000  Uiso   1.00
N179   N     0.53352   0.84947   0.51932   0.00000  Uiso   1.00
N180   N     0.04598   0.66486   0.79911   0.00000  Uiso   1.00
N181   N     0.06339   0.99235   0.53039   0.00000  Uiso   1.00
N182   N     0.52532   0.99248   0.55892   0.00000  Uiso   1.00
N183   N     0.03778   0.80787   0.83872   0.00000  Uiso   1.00
N184   N     0.05519   0.13536   0.56999   0.00000  Uiso   1.00
C185   C     0.71505   0.67700   0.11276   0.00000  Uiso   1.00
C186   C     0.80082   0.63475   0.09668   0.00000  Uiso   1.00
C187   C     0.87750   0.67889   0.06110   0.00000  Uiso   1.00
C188   C     0.94884   0.62840   0.05171   0.00000  Uiso   1.00
C189   C     0.08281   0.57671   0.02291   0.00000  Uiso   1.00
C190   C     0.66646   0.68564   0.17379   0.00000  Uiso   1.00
C191   C     0.63016   0.77256   0.20306   0.00000  Uiso   1.00
C192   C     0.58839   0.76489   0.25858   0.00000  Uiso   1.00
C193   C     0.51371   0.79219   0.34950   0.00000  Uiso   1.00
C194   C     0.67127   0.59538   0.09973   0.00000  Uiso   1.00
C195   C     0.63900   0.60642   0.06672   0.00000  Uiso   1.00
C196   C     0.60127   0.52276   0.05989   0.00000  Uiso   1.00
C197   C     0.53406   0.40993   0.03582   0.00000  Uiso   1.00
C198   C     0.70541   0.50883   0.15933   0.00000  Uiso   1.00
C199   C     0.79558   0.54340   0.12198   0.00000  Uiso   1.00
C200   C     0.86683   0.49282   0.11263   0.00000  Uiso   1.00
C201   C     0.94360   0.53688   0.07705   0.00000  Uiso   1.00
C202   C     0.66122   0.59429   0.19909   0.00000  Uiso   1.00
C203   C     0.61949   0.58649   0.25458   0.00000  Uiso   1.00
C204   C     0.58314   0.67338   0.28392   0.00000  Uiso   1.00
C205   C     0.66603   0.50403   0.12502   0.00000  Uiso   1.00
C206   C     0.62834   0.42035   0.11825   0.00000  Uiso   1.00
C207   C     0.59602   0.43125   0.08524   0.00000  Uiso   1.00
H208   H     0.71913   0.74812   0.09307   0.00000  Uiso   1.00
H209   H     0.88153   0.74959   0.04154   0.00000  Uiso   1.00
H210   H     0.63422   0.84324   0.18347   0.00000  Uiso   1.00
H211   H     0.64306   0.67712   0.04715   0.00000  Uiso   1.00
H212   H     0.05926   0.71095   0.99558   0.00000  Uiso   1.00
H213   H     0.53778   0.90840   0.29485   0.00000  Uiso   1.00
H214   H     0.55642   0.55811   0.00740   0.00000  Uiso   1.00
H215   H     0.70133   0.43771   0.17903   0.00000  Uiso   1.00
H216   H     0.86275   0.42213   0.13222   0.00000  Uiso   1.00
H217   H     0.61545   0.51579   0.27415   0.00000  Uiso   1.00
H218   H     0.62429   0.34967   0.13783   0.00000  Uiso   1.00
H219   H     0.04403   0.44518   0.06918   0.00000  Uiso   1.00
H220   H     0.52254   0.64263   0.36845   0.00000  Uiso   1.00
H221   H     0.54119   0.29234   0.08100   0.00000  Uiso   1.00
O222   O     0.15815   0.57344   0.00005   0.00000  Uiso   1.00
O223   O     0.47397   0.83249   0.39267   0.00000  Uiso   1.00
O224   O     0.49845   0.37292   0.01555   0.00000  Uiso   1.00
N225   N     0.03352   0.65053   0.01932   0.00000  Uiso   1.00
N226   N     0.54598   0.83514   0.29911   0.00000  Uiso   1.00
N227   N     0.56339   0.50765   0.03039   0.00000  Uiso   1.00
N228   N     0.02532   0.50752   0.05892   0.00000  Uiso   1.00
N229   N     0.53778   0.69213   0.33872   0.00000  Uiso   1.00
N230   N     0.55519   0.36464   0.06999   0.00000  Uiso   1.00
C231   C     0.21505   0.17700   0.11276   0.00000  Uiso   1.00
C232   C     0.30082   0.13475   0.09668   0.00000  Uiso   1.00
C233   C     0.37750   0.17889   0.06110   0.00000  Uiso   1.00
C234   C     0.44884   0.12840   0.05171   0.00000  Uiso   1.00
C235   C     0.58281   0.07671   0.02291   0.00000  Uiso   1.00
C236   C     0.16646   0.18564   0.17379   0.00000  Uiso   1.00
C237   C     0.13016   0.27256   0.20306   0.00000  Uiso   1.00
C238   C     0.08839   0.26489   0.25858   0.00000  Uiso   1.00
C239   C     0.01371   0.29219   0.34950   0.00000  Uiso   1.00
C240   C     0.17127   0.09538   0.09973   0.00000  Uiso   1.00
C241   C     0.13900   0.10642   0.06672   0.00000  Uiso   1.00
C242   C     0.10127   0.02276   0.05989   0.00000  Uiso   1.00
C243   C     0.03406   0.90993   0.03582   0.00000  Uiso   1.00
C244   C     0.20541   0.00883   0.15933   0.00000  Uiso   1.00
C245   C     0.29558   0.04340   0.12198   0.00000  Uiso   1.00
C246   C     0.36683   0.99282   0.11263   0.00000  Uiso   1.00
C247   C     0.44360   0.03688   0.07705   0.00000  Uiso   1.00
C248   C     0.16122   0.09429   0.19909   0.00000  Uiso   1.00
C249   C     0.11949   0.08649   0.25458   0.00000  Uiso   1.00
C250   C     0.08314   0.17338   0.28392   0.00000  Uiso   1.00
C251   C     0.16603   0.00403   0.12502   0.00000  Uiso   1.00
C252   C     0.12834   0.92035   0.11825   0.00000  Uiso   1.00
C253   C     0.09602   0.93125   0.08524   0.00000  Uiso   1.00
H254   H     0.21913   0.24812   0.09307   0.00000  Uiso   1.00
H255   H     0.38153   0.24959   0.04154   0.00000  Uiso   1.00
H256   H     0.13422   0.34324   0.18347   0.00000  Uiso   1.00
H257   H     0.14306   0.17712   0.04715   0.00000  Uiso   1.00
H258   H     0.55926   0.21095   0.99558   0.00000  Uiso   1.00
H259   H     0.03778   0.40840   0.29485   0.00000  Uiso   1.00
H260   H     0.05642   0.05811   0.00740   0.00000  Uiso   1.00
H261   H     0.20133   0.93771   0.17903   0.00000  Uiso   1.00
H262   H     0.36275   0.92213   0.13222   0.00000  Uiso   1.00
H263   H     0.11545   0.01579   0.27415   0.00000  Uiso   1.00
H264   H     0.12429   0.84967   0.13783   0.00000  Uiso   1.00
H265   H     0.54403   0.94518   0.06918   0.00000  Uiso   1.00
H266   H     0.02254   0.14263   0.36845   0.00000  Uiso   1.00
H267   H     0.04119   0.79234   0.08100   0.00000  Uiso   1.00
O268   O     0.65815   0.07344   0.00005   0.00000  Uiso   1.00
O269   O     0.97397   0.33249   0.39267   0.00000  Uiso   1.00
O270   O     0.99845   0.87292   0.01555   0.00000  Uiso   1.00
N271   N     0.53352   0.15053   0.01932   0.00000  Uiso   1.00
N272   N     0.04598   0.33514   0.29911   0.00000  Uiso   1.00
N273   N     0.06339   0.00765   0.03039   0.00000  Uiso   1.00
N274   N     0.52532   0.00752   0.05892   0.00000  Uiso   1.00
N275   N     0.03778   0.19213   0.33872   0.00000  Uiso   1.00
N276   N     0.05519   0.86464   0.06999   0.00000  Uiso   1.00
C277   C     0.28495   0.67700   0.38724   0.00000  Uiso   1.00
C278   C     0.19918   0.63475   0.40332   0.00000  Uiso   1.00
C279   C     0.12250   0.67889   0.43890   0.00000  Uiso   1.00
C280   C     0.05116   0.62840   0.44829   0.00000  Uiso   1.00
C281   C     0.91719   0.57671   0.47709   0.00000  Uiso   1.00
C282   C     0.33354   0.68564   0.32621   0.00000  Uiso   1.00
C283   C     0.36984   0.77256   0.29694   0.00000  Uiso   1.00
C284   C     0.41161   0.76489   0.24142   0.00000  Uiso   1.00
C285   C     0.48629   0.79219   0.15050   0.00000  Uiso   1.00
C286   C     0.32873   0.59538   0.40027   0.00000  Uiso   1.00
C287   C     0.36100   0.60642   0.43328   0.00000  Uiso   1.00
C288   C     0.39873   0.52276   0.44011   0.00000  Uiso   1.00
C289   C     0.46594   0.40993   0.46418   0.00000  Uiso   1.00
C290   C     0.29459   0.50883   0.34067   0.00000  Uiso   1.00
C291   C     0.20442   0.54340   0.37802   0.00000  Uiso   1.00
C292   C     0.13317   0.49282   0.38737   0.00000  Uiso   1.00
C293   C     0.05640   0.53688   0.42295   0.00000  Uiso   1.00
C294   C     0.33878   0.59429   0.30091   0.00000  Uiso   1.00
C295   C     0.38051   0.58649   0.24542   0.00000  Uiso   1.00
C296   C     0.41686   0.67338   0.21608   0.00000  Uiso   1.00
C297   C     0.33397   0.50403   0.37498   0.00000  Uiso   1.00
C298   C     0.37166   0.42035   0.38175   0.00000  Uiso   1.00
C299   C     0.40398   0.43125   0.41476   0.00000  Uiso   1.00
H300   H     0.28087   0.74812   0.40693   0.00000  Uiso   1.00
H301   H     0.11847   0.74959   0.45846   0.00000  Uiso   1.00
H302   H     0.36578   0.84324   0.31653   0.00000  Uiso   1.00
H303   H     0.35694   0.67712   0.45285   0.00000  Uiso   1.00
H304   H     0.94074   0.71095   0.50442   0.00000  Uiso   1.00
H305   H     0.46222   0.90840   0.20515   0.00000  Uiso   1.00
H306   H     0.44358   0.55811   0.49260   0.00000  Uiso   1.00
H307   H     0.29867   0.43771   0.32097   0.00000  Uiso   1.00
H308   H     0.13725   0.42213   0.36778   0.00000  Uiso   1.00
H309   H     0.38455   0.51579   0.22585   0.00000  Uiso   1.00
H310   H     0.37571   0.34967   0.36217   0.00000  Uiso   1.00
H311   H     0.95597   0.44518   0.43082   0.00000  Uiso   1.00
H312   H     0.47746   0.64263   0.13155   0.00000  Uiso   1.00
H313   H     0.45881   0.29234   0.41900   0.00000  Uiso   1.00
O314   O     0.84185   0.57344   0.49995   0.00000  Uiso   1.00
O315   O     0.52603   0.83249   0.10733   0.00000  Uiso   1.00
O316   O     0.50155   0.37292   0.48445   0.00000  Uiso   1.00
N317   N     0.96648   0.65053   0.48068   0.00000  Uiso   1.00
N318   N     0.45402   0.83514   0.20089   0.00000  Uiso   1.00
N319   N     0.43661   0.50765   0.46961   0.00000  Uiso   1.00
N320   N     0.97468   0.50752   0.44108   0.00000  Uiso   1.00
N321   N     0.46222   0.69213   0.16128   0.00000  Uiso   1.00
N322   N     0.44481   0.36464   0.43001   0.00000  Uiso   1.00
C323   C     0.78495   0.17700   0.38724   0.00000  Uiso   1.00
C324   C     0.69918   0.13475   0.40332   0.00000  Uiso   1.00
C325   C     0.62250   0.17889   0.43890   0.00000  Uiso   1.00
C326   C     0.55116   0.12840   0.44829   0.00000  Uiso   1.00
C327   C     0.41719   0.07671   0.47709   0.00000  Uiso   1.00
C328   C     0.83354   0.18564   0.32621   0.00000  Uiso   1.00
C329   C     0.86984   0.27256   0.29694   0.00000  Uiso   1.00
C330   C     0.91161   0.26489   0.24142   0.00000  Uiso   1.00
C331   C     0.98629   0.29219   0.15050   0.00000  Uiso   1.00
C332   C     0.82873   0.09538   0.40027   0.00000  Uiso   1.00
C333   C     0.86100   0.10642   0.43328   0.00000  Uiso   1.00
C334   C     0.89873   0.02276   0.44011   0.00000  Uiso   1.00
C335   C     0.96594   0.90993   0.46418   0.00000  Uiso   1.00
C336   C     0.79459   0.00883   0.34067   0.00000  Uiso   1.00
C337   C     0.70442   0.04340   0.37802   0.00000  Uiso   1.00
C338   C     0.63317   0.99282   0.38737   0.00000  Uiso   1.00
C339   C     0.55640   0.03688   0.42295   0.00000  Uiso   1.00
C340   C     0.83878   0.09429   0.30091   0.00000  Uiso   1.00
C341   C     0.88051   0.08649   0.24542   0.00000  Uiso   1.00
C342   C     0.91686   0.17338   0.21608   0.00000  Uiso   1.00
C343   C     0.83397   0.00403   0.37498   0.00000  Uiso   1.00
C344   C     0.87166   0.92035   0.38175   0.00000  Uiso   1.00
C345   C     0.90398   0.93125   0.41476   0.00000  Uiso   1.00
H346   H     0.78087   0.24812   0.40693   0.00000  Uiso   1.00
H347   H     0.61847   0.24959   0.45846   0.00000  Uiso   1.00
H348   H     0.86578   0.34324   0.31653   0.00000  Uiso   1.00
H349   H     0.85694   0.17712   0.45285   0.00000  Uiso   1.00
H350   H     0.44074   0.21095   0.50442   0.00000  Uiso   1.00
H351   H     0.96222   0.40840   0.20515   0.00000  Uiso   1.00
H352   H     0.94358   0.05811   0.49260   0.00000  Uiso   1.00
H353   H     0.79867   0.93771   0.32097   0.00000  Uiso   1.00
H354   H     0.63725   0.92213   0.36778   0.00000  Uiso   1.00
H355   H     0.88455   0.01579   0.22585   0.00000  Uiso   1.00
H356   H     0.87571   0.84967   0.36217   0.00000  Uiso   1.00
H357   H     0.45597   0.94518   0.43082   0.00000  Uiso   1.00
H358   H     0.97746   0.14263   0.13155   0.00000  Uiso   1.00
H359   H     0.95881   0.79234   0.41900   0.00000  Uiso   1.00
O360   O     0.34185   0.07344   0.49995   0.00000  Uiso   1.00
O361   O     0.02603   0.33249   0.10733   0.00000  Uiso   1.00
O362   O     0.00155   0.87292   0.48445   0.00000  Uiso   1.00
N363   N     0.46648   0.15053   0.48068   0.00000  Uiso   1.00
N364   N     0.95402   0.33514   0.20089   0.00000  Uiso   1.00
N365   N     0.93661   0.00765   0.46961   0.00000  Uiso   1.00
N366   N     0.47468   0.00752   0.44108   0.00000  Uiso   1.00
N367   N     0.96222   0.19213   0.16128   0.00000  Uiso   1.00
N368   N     0.94481   0.86464   0.43001   0.00000  Uiso   1.00
