data_job_00556
_audit_creation_date              2018-12-19
_audit_creation_method            'Materials Studio'
_symmetry_space_group_name_H-M    'P1'
_symmetry_Int_Tables_number       1
_symmetry_cell_setting            triclinic
loop_
_symmetry_equiv_pos_as_xyz
  x,y,z
_cell_length_a                    13.2145
_cell_length_b                    19.7189
_cell_length_c                    16.5201
_cell_angle_alpha                 90.0000
_cell_angle_beta                  92.1859
_cell_angle_gamma                 90.0000
loop_
_atom_site_label
_atom_site_type_symbol
_atom_site_fract_x
_atom_site_fract_y
_atom_site_fract_z
_atom_site_U_iso_or_equiv
_atom_site_adp_type
_atom_site_occupancy
C1     C     0.35809   0.59135   0.15104   0.00000  Uiso   1.00
C2     C     0.37977   0.51540   0.15063   0.00000  Uiso   1.00
C3     C     0.47505   0.48576   0.15135   0.00000  Uiso   1.00
C4     C     0.47885   0.41540   0.15080   0.00000  Uiso   1.00
C5     C     0.52595   0.30344   0.15032   0.00000  Uiso   1.00
C6     C     0.28917   0.60499   0.07668   0.00000  Uiso   1.00
C7     C     0.30828   0.65069   0.01523   0.00000  Uiso   1.00
C8     C     0.23581   0.65576   0.95242   0.00000  Uiso   1.00
C9     C     0.14222   0.68292   0.83716   0.00000  Uiso   1.00
C10    C     0.29385   0.60415   0.22424   0.00000  Uiso   1.00
C11    C     0.31687   0.64916   0.28685   0.00000  Uiso   1.00
C12    C     0.24832   0.65352   0.34828   0.00000  Uiso   1.00
C13    C     0.16199   0.67938   0.46212   0.00000  Uiso   1.00
C14    C     0.19540   0.51909   0.14878   0.00000  Uiso   1.00
C15    C     0.29140   0.47615   0.14940   0.00000  Uiso   1.00
C16    C     0.29505   0.40582   0.14885   0.00000  Uiso   1.00
C17    C     0.39033   0.37608   0.14957   0.00000  Uiso   1.00
C18    C     0.20081   0.56574   0.07545   0.00000  Uiso   1.00
C19    C     0.12828   0.57074   0.01273   0.00000  Uiso   1.00
C20    C     0.14728   0.61644   0.95119   0.00000  Uiso   1.00
C21    C     0.20548   0.56490   0.22302   0.00000  Uiso   1.00
C22    C     0.13687   0.56920   0.28435   0.00000  Uiso   1.00
C23    C     0.15979   0.61420   0.34704   0.00000  Uiso   1.00
H24    H     0.42688   0.62191   0.15199   0.00000  Uiso   1.00
H25    H     0.54342   0.51616   0.15229   0.00000  Uiso   1.00
H26    H     0.37667   0.68106   0.01620   0.00000  Uiso   1.00
H27    H     0.38526   0.67952   0.28778   0.00000  Uiso   1.00
H28    H     0.63365   0.38160   0.15206   0.00000  Uiso   1.00
H29    H     0.28202   0.72933   0.86511   0.00000  Uiso   1.00
H30    H     0.30014   0.72608   0.43779   0.00000  Uiso   1.00
H31    H     0.12660   0.48853   0.14782   0.00000  Uiso   1.00
H32    H     0.22666   0.37546   0.14790   0.00000  Uiso   1.00
H33    H     0.05991   0.54036   0.01180   0.00000  Uiso   1.00
H34    H     0.06850   0.53882   0.28338   0.00000  Uiso   1.00
H35    H     0.37655   0.26740   0.14849   0.00000  Uiso   1.00
H36    H     0.02493   0.61514   0.86154   0.00000  Uiso   1.00
H37    H     0.04305   0.61188   0.43422   0.00000  Uiso   1.00
O38    O     0.57634   0.25252   0.15038   0.00000  Uiso   1.00
O39    O     0.11502   0.70874   0.77391   0.00000  Uiso   1.00
O40    O     0.13879   0.70447   0.52526   0.00000  Uiso   1.00
N41    N     0.55941   0.37024   0.15123   0.00000  Uiso   1.00
N42    N     0.23067   0.69534   0.88293   0.00000  Uiso   1.00
N43    N     0.24759   0.69232   0.41833   0.00000  Uiso   1.00
N44    N     0.42107   0.30879   0.14931   0.00000  Uiso   1.00
N45    N     0.09233   0.63389   0.88101   0.00000  Uiso   1.00
N46    N     0.10925   0.63087   0.41642   0.00000  Uiso   1.00
C47    C     0.85809   0.09135   0.15104   0.00000  Uiso   1.00
C48    C     0.87977   0.01540   0.15063   0.00000  Uiso   1.00
C49    C     0.97505   0.98576   0.15135   0.00000  Uiso   1.00
C50    C     0.97885   0.91540   0.15080   0.00000  Uiso   1.00
C51    C     0.02595   0.80344   0.15032   0.00000  Uiso   1.00
C52    C     0.78917   0.10499   0.07668   0.00000  Uiso   1.00
C53    C     0.80828   0.15069   0.01523   0.00000  Uiso   1.00
C54    C     0.73581   0.15576   0.95242   0.00000  Uiso   1.00
C55    C     0.64222   0.18292   0.83716   0.00000  Uiso   1.00
C56    C     0.79385   0.10415   0.22424   0.00000  Uiso   1.00
C57    C     0.81687   0.14916   0.28685   0.00000  Uiso   1.00
C58    C     0.74832   0.15352   0.34828   0.00000  Uiso   1.00
C59    C     0.66199   0.17938   0.46212   0.00000  Uiso   1.00
C60    C     0.69540   0.01909   0.14878   0.00000  Uiso   1.00
C61    C     0.79140   0.97615   0.14940   0.00000  Uiso   1.00
C62    C     0.79505   0.90582   0.14885   0.00000  Uiso   1.00
C63    C     0.89033   0.87608   0.14957   0.00000  Uiso   1.00
C64    C     0.70081   0.06574   0.07545   0.00000  Uiso   1.00
C65    C     0.62828   0.07074   0.01273   0.00000  Uiso   1.00
C66    C     0.64728   0.11644   0.95119   0.00000  Uiso   1.00
C67    C     0.70548   0.06490   0.22302   0.00000  Uiso   1.00
C68    C     0.63687   0.06920   0.28435   0.00000  Uiso   1.00
C69    C     0.65979   0.11420   0.34704   0.00000  Uiso   1.00
H70    H     0.92688   0.12191   0.15199   0.00000  Uiso   1.00
H71    H     0.04342   0.01616   0.15229   0.00000  Uiso   1.00
H72    H     0.87667   0.18106   0.01620   0.00000  Uiso   1.00
H73    H     0.88526   0.17952   0.28778   0.00000  Uiso   1.00
H74    H     0.13365   0.88160   0.15206   0.00000  Uiso   1.00
H75    H     0.78202   0.22933   0.86511   0.00000  Uiso   1.00
H76    H     0.80014   0.22608   0.43779   0.00000  Uiso   1.00
H77    H     0.62660   0.98853   0.14782   0.00000  Uiso   1.00
H78    H     0.72666   0.87546   0.14790   0.00000  Uiso   1.00
H79    H     0.55991   0.04036   0.01180   0.00000  Uiso   1.00
H80    H     0.56850   0.03882   0.28338   0.00000  Uiso   1.00
H81    H     0.87655   0.76740   0.14849   0.00000  Uiso   1.00
H82    H     0.52493   0.11514   0.86154   0.00000  Uiso   1.00
H83    H     0.54305   0.11188   0.43422   0.00000  Uiso   1.00
O84    O     0.07634   0.75252   0.15038   0.00000  Uiso   1.00
O85    O     0.61502   0.20874   0.77391   0.00000  Uiso   1.00
O86    O     0.63879   0.20447   0.52526   0.00000  Uiso   1.00
N87    N     0.05941   0.87024   0.15123   0.00000  Uiso   1.00
N88    N     0.73067   0.19534   0.88293   0.00000  Uiso   1.00
N89    N     0.74759   0.19232   0.41833   0.00000  Uiso   1.00
N90    N     0.92107   0.80879   0.14931   0.00000  Uiso   1.00
N91    N     0.59233   0.13389   0.88101   0.00000  Uiso   1.00
N92    N     0.60925   0.13087   0.41642   0.00000  Uiso   1.00
C93    C     0.64191   0.59135   0.34896   0.00000  Uiso   1.00
C94    C     0.62023   0.51540   0.34937   0.00000  Uiso   1.00
C95    C     0.52495   0.48576   0.34865   0.00000  Uiso   1.00
C96    C     0.52115   0.41540   0.34920   0.00000  Uiso   1.00
C97    C     0.47405   0.30344   0.34968   0.00000  Uiso   1.00
C98    C     0.71083   0.60499   0.42332   0.00000  Uiso   1.00
C99    C     0.69172   0.65069   0.48477   0.00000  Uiso   1.00
C100   C     0.76419   0.65576   0.54758   0.00000  Uiso   1.00
C101   C     0.85778   0.68292   0.66284   0.00000  Uiso   1.00
C102   C     0.70615   0.60415   0.27576   0.00000  Uiso   1.00
C103   C     0.68313   0.64916   0.21315   0.00000  Uiso   1.00
C104   C     0.75168   0.65352   0.15172   0.00000  Uiso   1.00
C105   C     0.83801   0.67938   0.03788   0.00000  Uiso   1.00
C106   C     0.80460   0.51909   0.35122   0.00000  Uiso   1.00
C107   C     0.70860   0.47615   0.35060   0.00000  Uiso   1.00
C108   C     0.70495   0.40582   0.35115   0.00000  Uiso   1.00
C109   C     0.60967   0.37608   0.35043   0.00000  Uiso   1.00
C110   C     0.79919   0.56574   0.42455   0.00000  Uiso   1.00
C111   C     0.87172   0.57074   0.48727   0.00000  Uiso   1.00
C112   C     0.85272   0.61644   0.54881   0.00000  Uiso   1.00
C113   C     0.79452   0.56490   0.27698   0.00000  Uiso   1.00
C114   C     0.86313   0.56920   0.21565   0.00000  Uiso   1.00
C115   C     0.84021   0.61420   0.15296   0.00000  Uiso   1.00
H116   H     0.57312   0.62191   0.34801   0.00000  Uiso   1.00
H117   H     0.45658   0.51616   0.34771   0.00000  Uiso   1.00
H118   H     0.62333   0.68106   0.48380   0.00000  Uiso   1.00
H119   H     0.61474   0.67952   0.21222   0.00000  Uiso   1.00
H120   H     0.36635   0.38160   0.34794   0.00000  Uiso   1.00
H121   H     0.71798   0.72933   0.63489   0.00000  Uiso   1.00
H122   H     0.69986   0.72608   0.06221   0.00000  Uiso   1.00
H123   H     0.87340   0.48853   0.35218   0.00000  Uiso   1.00
H124   H     0.77334   0.37546   0.35210   0.00000  Uiso   1.00
H125   H     0.94009   0.54036   0.48820   0.00000  Uiso   1.00
H126   H     0.93150   0.53882   0.21662   0.00000  Uiso   1.00
H127   H     0.62345   0.26740   0.35151   0.00000  Uiso   1.00
H128   H     0.97507   0.61514   0.63846   0.00000  Uiso   1.00
H129   H     0.95695   0.61188   0.06578   0.00000  Uiso   1.00
O130   O     0.42366   0.25252   0.34962   0.00000  Uiso   1.00
O131   O     0.88498   0.70874   0.72609   0.00000  Uiso   1.00
O132   O     0.86121   0.70447   0.97474   0.00000  Uiso   1.00
N133   N     0.44059   0.37024   0.34877   0.00000  Uiso   1.00
N134   N     0.76933   0.69534   0.61707   0.00000  Uiso   1.00
N135   N     0.75241   0.69232   0.08167   0.00000  Uiso   1.00
N136   N     0.57893   0.30879   0.35069   0.00000  Uiso   1.00
N137   N     0.90767   0.63389   0.61899   0.00000  Uiso   1.00
N138   N     0.89075   0.63087   0.08358   0.00000  Uiso   1.00
C139   C     0.14191   0.09135   0.34896   0.00000  Uiso   1.00
C140   C     0.12023   0.01540   0.34937   0.00000  Uiso   1.00
C141   C     0.02495   0.98576   0.34865   0.00000  Uiso   1.00
C142   C     0.02115   0.91540   0.34920   0.00000  Uiso   1.00
C143   C     0.97405   0.80344   0.34968   0.00000  Uiso   1.00
C144   C     0.21083   0.10499   0.42332   0.00000  Uiso   1.00
C145   C     0.19172   0.15069   0.48477   0.00000  Uiso   1.00
C146   C     0.26419   0.15576   0.54758   0.00000  Uiso   1.00
C147   C     0.35778   0.18292   0.66284   0.00000  Uiso   1.00
C148   C     0.20615   0.10415   0.27576   0.00000  Uiso   1.00
C149   C     0.18313   0.14916   0.21315   0.00000  Uiso   1.00
C150   C     0.25168   0.15352   0.15172   0.00000  Uiso   1.00
C151   C     0.33801   0.17938   0.03788   0.00000  Uiso   1.00
C152   C     0.30460   0.01909   0.35122   0.00000  Uiso   1.00
C153   C     0.20860   0.97615   0.35060   0.00000  Uiso   1.00
C154   C     0.20495   0.90582   0.35115   0.00000  Uiso   1.00
C155   C     0.10967   0.87608   0.35043   0.00000  Uiso   1.00
C156   C     0.29919   0.06574   0.42455   0.00000  Uiso   1.00
C157   C     0.37172   0.07074   0.48727   0.00000  Uiso   1.00
C158   C     0.35272   0.11644   0.54881   0.00000  Uiso   1.00
C159   C     0.29452   0.06490   0.27698   0.00000  Uiso   1.00
C160   C     0.36313   0.06920   0.21565   0.00000  Uiso   1.00
C161   C     0.34021   0.11420   0.15296   0.00000  Uiso   1.00
H162   H     0.07312   0.12191   0.34801   0.00000  Uiso   1.00
H163   H     0.95658   0.01616   0.34771   0.00000  Uiso   1.00
H164   H     0.12333   0.18106   0.48380   0.00000  Uiso   1.00
H165   H     0.11474   0.17952   0.21222   0.00000  Uiso   1.00
H166   H     0.86635   0.88160   0.34794   0.00000  Uiso   1.00
H167   H     0.21798   0.22933   0.63489   0.00000  Uiso   1.00
H168   H     0.19986   0.22608   0.06221   0.00000  Uiso   1.00
H169   H     0.37340   0.98853   0.35218   0.00000  Uiso   1.00
H170   H     0.27334   0.87546   0.35210   0.00000  Uiso   1.00
H171   H     0.44009   0.04036   0.48820   0.00000  Uiso   1.00
H172   H     0.43150   0.03882   0.21662   0.00000  Uiso   1.00
H173   H     0.12345   0.76740   0.35151   0.00000  Uiso   1.00
H174   H     0.47507   0.11514   0.63846   0.00000  Uiso   1.00
H175   H     0.45695   0.11188   0.06578   0.00000  Uiso   1.00
O176   O     0.92366   0.75252   0.34962   0.00000  Uiso   1.00
O177   O     0.38498   0.20874   0.72609   0.00000  Uiso   1.00
O178   O     0.36121   0.20447   0.97474   0.00000  Uiso   1.00
N179   N     0.94059   0.87024   0.34877   0.00000  Uiso   1.00
N180   N     0.26933   0.19534   0.61707   0.00000  Uiso   1.00
N181   N     0.25241   0.19232   0.08167   0.00000  Uiso   1.00
N182   N     0.07893   0.80879   0.35069   0.00000  Uiso   1.00
N183   N     0.40767   0.13389   0.61899   0.00000  Uiso   1.00
N184   N     0.39075   0.13087   0.08358   0.00000  Uiso   1.00
C185   C     0.64191   0.40865   0.84896   0.00000  Uiso   1.00
C186   C     0.62023   0.48460   0.84937   0.00000  Uiso   1.00
C187   C     0.52495   0.51424   0.84865   0.00000  Uiso   1.00
C188   C     0.52115   0.58460   0.84920   0.00000  Uiso   1.00
C189   C     0.47405   0.69656   0.84968   0.00000  Uiso   1.00
C190   C     0.71083   0.39501   0.92332   0.00000  Uiso   1.00
C191   C     0.69172   0.34931   0.98477   0.00000  Uiso   1.00
C192   C     0.76419   0.34424   0.04758   0.00000  Uiso   1.00
C193   C     0.85778   0.31708   0.16284   0.00000  Uiso   1.00
C194   C     0.70615   0.39585   0.77576   0.00000  Uiso   1.00
C195   C     0.68313   0.35084   0.71315   0.00000  Uiso   1.00
C196   C     0.75168   0.34648   0.65172   0.00000  Uiso   1.00
C197   C     0.83801   0.32062   0.53788   0.00000  Uiso   1.00
C198   C     0.80460   0.48091   0.85122   0.00000  Uiso   1.00
C199   C     0.70860   0.52385   0.85060   0.00000  Uiso   1.00
C200   C     0.70495   0.59418   0.85115   0.00000  Uiso   1.00
C201   C     0.60967   0.62392   0.85043   0.00000  Uiso   1.00
C202   C     0.79919   0.43426   0.92455   0.00000  Uiso   1.00
C203   C     0.87172   0.42926   0.98727   0.00000  Uiso   1.00
C204   C     0.85272   0.38356   0.04881   0.00000  Uiso   1.00
C205   C     0.79452   0.43510   0.77698   0.00000  Uiso   1.00
C206   C     0.86313   0.43080   0.71565   0.00000  Uiso   1.00
C207   C     0.84021   0.38580   0.65296   0.00000  Uiso   1.00
H208   H     0.57312   0.37809   0.84801   0.00000  Uiso   1.00
H209   H     0.45658   0.48384   0.84771   0.00000  Uiso   1.00
H210   H     0.62333   0.31894   0.98380   0.00000  Uiso   1.00
H211   H     0.61474   0.32048   0.71222   0.00000  Uiso   1.00
H212   H     0.36635   0.61840   0.84794   0.00000  Uiso   1.00
H213   H     0.71798   0.27067   0.13489   0.00000  Uiso   1.00
H214   H     0.69986   0.27392   0.56221   0.00000  Uiso   1.00
H215   H     0.87340   0.51147   0.85218   0.00000  Uiso   1.00
H216   H     0.77334   0.62454   0.85210   0.00000  Uiso   1.00
H217   H     0.94009   0.45964   0.98820   0.00000  Uiso   1.00
H218   H     0.93150   0.46118   0.71662   0.00000  Uiso   1.00
H219   H     0.62345   0.73260   0.85151   0.00000  Uiso   1.00
H220   H     0.97507   0.38486   0.13846   0.00000  Uiso   1.00
H221   H     0.95695   0.38812   0.56578   0.00000  Uiso   1.00
O222   O     0.42366   0.74748   0.84962   0.00000  Uiso   1.00
O223   O     0.88498   0.29126   0.22609   0.00000  Uiso   1.00
O224   O     0.86121   0.29553   0.47474   0.00000  Uiso   1.00
N225   N     0.44059   0.62976   0.84877   0.00000  Uiso   1.00
N226   N     0.76933   0.30466   0.11707   0.00000  Uiso   1.00
N227   N     0.75241   0.30768   0.58167   0.00000  Uiso   1.00
N228   N     0.57893   0.69121   0.85069   0.00000  Uiso   1.00
N229   N     0.90767   0.36611   0.11899   0.00000  Uiso   1.00
N230   N     0.89075   0.36913   0.58358   0.00000  Uiso   1.00
C231   C     0.14191   0.90865   0.84896   0.00000  Uiso   1.00
C232   C     0.12023   0.98460   0.84937   0.00000  Uiso   1.00
C233   C     0.02495   0.01424   0.84865   0.00000  Uiso   1.00
C234   C     0.02115   0.08460   0.84920   0.00000  Uiso   1.00
C235   C     0.97405   0.19656   0.84968   0.00000  Uiso   1.00
C236   C     0.21083   0.89501   0.92332   0.00000  Uiso   1.00
C237   C     0.19172   0.84931   0.98477   0.00000  Uiso   1.00
C238   C     0.26419   0.84424   0.04758   0.00000  Uiso   1.00
C239   C     0.35778   0.81708   0.16284   0.00000  Uiso   1.00
C240   C     0.20615   0.89585   0.77576   0.00000  Uiso   1.00
C241   C     0.18313   0.85084   0.71315   0.00000  Uiso   1.00
C242   C     0.25168   0.84648   0.65172   0.00000  Uiso   1.00
C243   C     0.33801   0.82062   0.53788   0.00000  Uiso   1.00
C244   C     0.30460   0.98091   0.85122   0.00000  Uiso   1.00
C245   C     0.20860   0.02385   0.85060   0.00000  Uiso   1.00
C246   C     0.20495   0.09418   0.85115   0.00000  Uiso   1.00
C247   C     0.10967   0.12392   0.85043   0.00000  Uiso   1.00
C248   C     0.29919   0.93426   0.92455   0.00000  Uiso   1.00
C249   C     0.37172   0.92926   0.98727   0.00000  Uiso   1.00
C250   C     0.35272   0.88356   0.04881   0.00000  Uiso   1.00
C251   C     0.29452   0.93510   0.77698   0.00000  Uiso   1.00
C252   C     0.36313   0.93080   0.71565   0.00000  Uiso   1.00
C253   C     0.34021   0.88580   0.65296   0.00000  Uiso   1.00
H254   H     0.07312   0.87809   0.84801   0.00000  Uiso   1.00
H255   H     0.95658   0.98384   0.84771   0.00000  Uiso   1.00
H256   H     0.12333   0.81894   0.98380   0.00000  Uiso   1.00
H257   H     0.11474   0.82048   0.71222   0.00000  Uiso   1.00
H258   H     0.86635   0.11840   0.84794   0.00000  Uiso   1.00
H259   H     0.21798   0.77067   0.13489   0.00000  Uiso   1.00
H260   H     0.19986   0.77392   0.56221   0.00000  Uiso   1.00
H261   H     0.37340   0.01147   0.85218   0.00000  Uiso   1.00
H262   H     0.27334   0.12454   0.85210   0.00000  Uiso   1.00
H263   H     0.44009   0.95964   0.98820   0.00000  Uiso   1.00
H264   H     0.43150   0.96118   0.71662   0.00000  Uiso   1.00
H265   H     0.12345   0.23260   0.85151   0.00000  Uiso   1.00
H266   H     0.47507   0.88486   0.13846   0.00000  Uiso   1.00
H267   H     0.45695   0.88812   0.56578   0.00000  Uiso   1.00
O268   O     0.92366   0.24748   0.84962   0.00000  Uiso   1.00
O269   O     0.38498   0.79126   0.22609   0.00000  Uiso   1.00
O270   O     0.36121   0.79553   0.47474   0.00000  Uiso   1.00
N271   N     0.94059   0.12976   0.84877   0.00000  Uiso   1.00
N272   N     0.26933   0.80466   0.11707   0.00000  Uiso   1.00
N273   N     0.25241   0.80768   0.58167   0.00000  Uiso   1.00
N274   N     0.07893   0.19121   0.85069   0.00000  Uiso   1.00
N275   N     0.40767   0.86611   0.11899   0.00000  Uiso   1.00
N276   N     0.39075   0.86913   0.58358   0.00000  Uiso   1.00
C277   C     0.35809   0.40865   0.65104   0.00000  Uiso   1.00
C278   C     0.37977   0.48460   0.65063   0.00000  Uiso   1.00
C279   C     0.47505   0.51424   0.65135   0.00000  Uiso   1.00
C280   C     0.47885   0.58460   0.65080   0.00000  Uiso   1.00
C281   C     0.52595   0.69656   0.65032   0.00000  Uiso   1.00
C282   C     0.28917   0.39501   0.57668   0.00000  Uiso   1.00
C283   C     0.30828   0.34931   0.51523   0.00000  Uiso   1.00
C284   C     0.23581   0.34424   0.45242   0.00000  Uiso   1.00
C285   C     0.14222   0.31708   0.33716   0.00000  Uiso   1.00
C286   C     0.29385   0.39585   0.72424   0.00000  Uiso   1.00
C287   C     0.31687   0.35084   0.78685   0.00000  Uiso   1.00
C288   C     0.24832   0.34648   0.84828   0.00000  Uiso   1.00
C289   C     0.16199   0.32062   0.96212   0.00000  Uiso   1.00
C290   C     0.19540   0.48091   0.64878   0.00000  Uiso   1.00
C291   C     0.29140   0.52385   0.64940   0.00000  Uiso   1.00
C292   C     0.29505   0.59418   0.64885   0.00000  Uiso   1.00
C293   C     0.39033   0.62392   0.64957   0.00000  Uiso   1.00
C294   C     0.20081   0.43426   0.57545   0.00000  Uiso   1.00
C295   C     0.12828   0.42926   0.51273   0.00000  Uiso   1.00
C296   C     0.14728   0.38356   0.45119   0.00000  Uiso   1.00
C297   C     0.20548   0.43510   0.72302   0.00000  Uiso   1.00
C298   C     0.13687   0.43080   0.78435   0.00000  Uiso   1.00
C299   C     0.15979   0.38580   0.84704   0.00000  Uiso   1.00
H300   H     0.42688   0.37809   0.65199   0.00000  Uiso   1.00
H301   H     0.54342   0.48384   0.65229   0.00000  Uiso   1.00
H302   H     0.37667   0.31894   0.51620   0.00000  Uiso   1.00
H303   H     0.38526   0.32048   0.78778   0.00000  Uiso   1.00
H304   H     0.63365   0.61840   0.65206   0.00000  Uiso   1.00
H305   H     0.28202   0.27067   0.36511   0.00000  Uiso   1.00
H306   H     0.30014   0.27392   0.93779   0.00000  Uiso   1.00
H307   H     0.12660   0.51147   0.64782   0.00000  Uiso   1.00
H308   H     0.22666   0.62454   0.64790   0.00000  Uiso   1.00
H309   H     0.05991   0.45964   0.51180   0.00000  Uiso   1.00
H310   H     0.06850   0.46118   0.78338   0.00000  Uiso   1.00
H311   H     0.37655   0.73260   0.64849   0.00000  Uiso   1.00
H312   H     0.02493   0.38486   0.36154   0.00000  Uiso   1.00
H313   H     0.04305   0.38812   0.93422   0.00000  Uiso   1.00
O314   O     0.57634   0.74748   0.65038   0.00000  Uiso   1.00
O315   O     0.11502   0.29126   0.27391   0.00000  Uiso   1.00
O316   O     0.13879   0.29553   0.02526   0.00000  Uiso   1.00
N317   N     0.55941   0.62976   0.65123   0.00000  Uiso   1.00
N318   N     0.23067   0.30466   0.38293   0.00000  Uiso   1.00
N319   N     0.24759   0.30768   0.91833   0.00000  Uiso   1.00
N320   N     0.42107   0.69121   0.64931   0.00000  Uiso   1.00
N321   N     0.09233   0.36611   0.38101   0.00000  Uiso   1.00
N322   N     0.10925   0.36913   0.91642   0.00000  Uiso   1.00
C323   C     0.85809   0.90865   0.65104   0.00000  Uiso   1.00
C324   C     0.87977   0.98460   0.65063   0.00000  Uiso   1.00
C325   C     0.97505   0.01424   0.65135   0.00000  Uiso   1.00
C326   C     0.97885   0.08460   0.65080   0.00000  Uiso   1.00
C327   C     0.02595   0.19656   0.65032   0.00000  Uiso   1.00
C328   C     0.78917   0.89501   0.57668   0.00000  Uiso   1.00
C329   C     0.80828   0.84931   0.51523   0.00000  Uiso   1.00
C330   C     0.73581   0.84424   0.45242   0.00000  Uiso   1.00
C331   C     0.64222   0.81708   0.33716   0.00000  Uiso   1.00
C332   C     0.79385   0.89585   0.72424   0.00000  Uiso   1.00
C333   C     0.81687   0.85084   0.78685   0.00000  Uiso   1.00
C334   C     0.74832   0.84648   0.84828   0.00000  Uiso   1.00
C335   C     0.66199   0.82062   0.96212   0.00000  Uiso   1.00
C336   C     0.69540   0.98091   0.64878   0.00000  Uiso   1.00
C337   C     0.79140   0.02385   0.64940   0.00000  Uiso   1.00
C338   C     0.79505   0.09418   0.64885   0.00000  Uiso   1.00
C339   C     0.89033   0.12392   0.64957   0.00000  Uiso   1.00
C340   C     0.70081   0.93426   0.57545   0.00000  Uiso   1.00
C341   C     0.62828   0.92926   0.51273   0.00000  Uiso   1.00
C342   C     0.64728   0.88356   0.45119   0.00000  Uiso   1.00
C343   C     0.70548   0.93510   0.72302   0.00000  Uiso   1.00
C344   C     0.63687   0.93080   0.78435   0.00000  Uiso   1.00
C345   C     0.65979   0.88580   0.84704   0.00000  Uiso   1.00
H346   H     0.92688   0.87809   0.65199   0.00000  Uiso   1.00
H347   H     0.04342   0.98384   0.65229   0.00000  Uiso   1.00
H348   H     0.87667   0.81894   0.51620   0.00000  Uiso   1.00
H349   H     0.88526   0.82048   0.78778   0.00000  Uiso   1.00
H350   H     0.13365   0.11840   0.65206   0.00000  Uiso   1.00
H351   H     0.78202   0.77067   0.36511   0.00000  Uiso   1.00
H352   H     0.80014   0.77392   0.93779   0.00000  Uiso   1.00
H353   H     0.62660   0.01147   0.64782   0.00000  Uiso   1.00
H354   H     0.72666   0.12454   0.64790   0.00000  Uiso   1.00
H355   H     0.55991   0.95964   0.51180   0.00000  Uiso   1.00
H356   H     0.56850   0.96118   0.78338   0.00000  Uiso   1.00
H357   H     0.87655   0.23260   0.64849   0.00000  Uiso   1.00
H358   H     0.52493   0.88486   0.36154   0.00000  Uiso   1.00
H359   H     0.54305   0.88812   0.93422   0.00000  Uiso   1.00
O360   O     0.07634   0.24748   0.65038   0.00000  Uiso   1.00
O361   O     0.61502   0.79126   0.27391   0.00000  Uiso   1.00
O362   O     0.63879   0.79553   0.02526   0.00000  Uiso   1.00
N363   N     0.05941   0.12976   0.65123   0.00000  Uiso   1.00
N364   N     0.73067   0.80466   0.38293   0.00000  Uiso   1.00
N365   N     0.74759   0.80768   0.91833   0.00000  Uiso   1.00
N366   N     0.92107   0.19121   0.64931   0.00000  Uiso   1.00
N367   N     0.59233   0.86611   0.38101   0.00000  Uiso   1.00
N368   N     0.60925   0.86913   0.91642   0.00000  Uiso   1.00
