data_job_02826
_audit_creation_date              2018-12-19
_audit_creation_method            'Materials Studio'
_symmetry_space_group_name_H-M    'P1'
_symmetry_Int_Tables_number       1
_symmetry_cell_setting            triclinic
loop_
_symmetry_equiv_pos_as_xyz
  x,y,z
_cell_length_a                    13.6433
_cell_length_b                    10.1437
_cell_length_c                    23.1479
_cell_angle_alpha                 90.0000
_cell_angle_beta                  66.0356
_cell_angle_gamma                 90.0000
loop_
_atom_site_label
_atom_site_type_symbol
_atom_site_fract_x
_atom_site_fract_y
_atom_site_fract_z
_atom_site_U_iso_or_equiv
_atom_site_adp_type
_atom_site_occupancy
C1     C     0.75299   0.26031   0.70933   0.00000  Uiso   1.00
C2     C     0.87180   0.29013   0.67225   0.00000  Uiso   1.00
C3     C     0.95133   0.19775   0.64223   0.00000  Uiso   1.00
C4     C     0.05517   0.24487   0.61081   0.00000  Uiso   1.00
C5     C     0.23610   0.27069   0.55346   0.00000  Uiso   1.00
C6     C     0.72336   0.31790   0.77514   0.00000  Uiso   1.00
C7     C     0.67807   0.24886   0.83164   0.00000  Uiso   1.00
C8     C     0.65694   0.31937   0.88683   0.00000  Uiso   1.00
C9     C     0.60734   0.38832   0.98923   0.00000  Uiso   1.00
C10    C     0.69328   0.34282   0.67893   0.00000  Uiso   1.00
C11    C     0.62268   0.29475   0.65454   0.00000  Uiso   1.00
C12    C     0.57620   0.38625   0.62874   0.00000  Uiso   1.00
C13    C     0.47990   0.49390   0.58175   0.00000  Uiso   1.00
C14    C     0.79598   0.50829   0.70689   0.00000  Uiso   1.00
C15    C     0.89514   0.42483   0.67092   0.00000  Uiso   1.00
C16    C     0.99889   0.47211   0.63953   0.00000  Uiso   1.00
C17    C     0.07856   0.37981   0.60948   0.00000  Uiso   1.00
C18    C     0.74671   0.45259   0.77382   0.00000  Uiso   1.00
C19    C     0.72563   0.52322   0.82894   0.00000  Uiso   1.00
C20    C     0.68033   0.45431   0.88551   0.00000  Uiso   1.00
C21    C     0.71663   0.47752   0.67760   0.00000  Uiso   1.00
C22    C     0.67024   0.56911   0.65184   0.00000  Uiso   1.00
C23    C     0.59959   0.52119   0.62741   0.00000  Uiso   1.00
H24    H     0.73481   0.15544   0.71036   0.00000  Uiso   1.00
H25    H     0.93323   0.09351   0.64327   0.00000  Uiso   1.00
H26    H     0.66000   0.14463   0.83265   0.00000  Uiso   1.00
H27    H     0.60463   0.19051   0.65557   0.00000  Uiso   1.00
H28    H     0.16352   0.08425   0.56833   0.00000  Uiso   1.00
H29    H     0.58737   0.19204   0.96764   0.00000  Uiso   1.00
H30    H     0.47059   0.28879   0.59424   0.00000  Uiso   1.00
H31    H     0.81415   0.61316   0.70586   0.00000  Uiso   1.00
H32    H     0.01693   0.57635   0.63852   0.00000  Uiso   1.00
H33    H     0.74370   0.62746   0.82790   0.00000  Uiso   1.00
H34    H     0.68833   0.67334   0.65082   0.00000  Uiso   1.00
H35    H     0.23145   0.47614   0.56447   0.00000  Uiso   1.00
H36    H     0.65530   0.58392   0.96379   0.00000  Uiso   1.00
H37    H     0.53853   0.68067   0.59039   0.00000  Uiso   1.00
O38    O     0.32945   0.24772   0.52220   0.00000  Uiso   1.00
O39    O     0.57355   0.38913   0.04608   0.00000  Uiso   1.00
O40    O     0.42035   0.51606   0.55619   0.00000  Uiso   1.00
N41    N     0.15167   0.18154   0.57665   0.00000  Uiso   1.00
N42    N     0.61302   0.28230   0.94998   0.00000  Uiso   1.00
N43    N     0.50383   0.37276   0.60090   0.00000  Uiso   1.00
N44    N     0.18823   0.39241   0.57458   0.00000  Uiso   1.00
N45    N     0.64958   0.49317   0.94791   0.00000  Uiso   1.00
N46    N     0.54038   0.58363   0.59883   0.00000  Uiso   1.00
C47    C     0.24701   0.76031   0.79067   0.00000  Uiso   1.00
C48    C     0.12820   0.79013   0.82775   0.00000  Uiso   1.00
C49    C     0.04867   0.69775   0.85777   0.00000  Uiso   1.00
C50    C     0.94483   0.74487   0.88919   0.00000  Uiso   1.00
C51    C     0.76390   0.77069   0.94654   0.00000  Uiso   1.00
C52    C     0.27664   0.81790   0.72486   0.00000  Uiso   1.00
C53    C     0.32193   0.74886   0.66836   0.00000  Uiso   1.00
C54    C     0.34306   0.81937   0.61317   0.00000  Uiso   1.00
C55    C     0.39266   0.88832   0.51077   0.00000  Uiso   1.00
C56    C     0.30672   0.84282   0.82107   0.00000  Uiso   1.00
C57    C     0.37732   0.79475   0.84546   0.00000  Uiso   1.00
C58    C     0.42380   0.88625   0.87126   0.00000  Uiso   1.00
C59    C     0.52010   0.99390   0.91825   0.00000  Uiso   1.00
C60    C     0.20402   0.00829   0.79311   0.00000  Uiso   1.00
C61    C     0.10486   0.92483   0.82908   0.00000  Uiso   1.00
C62    C     0.00111   0.97211   0.86047   0.00000  Uiso   1.00
C63    C     0.92144   0.87981   0.89052   0.00000  Uiso   1.00
C64    C     0.25329   0.95259   0.72618   0.00000  Uiso   1.00
C65    C     0.27437   0.02322   0.67106   0.00000  Uiso   1.00
C66    C     0.31967   0.95431   0.61449   0.00000  Uiso   1.00
C67    C     0.28337   0.97752   0.82240   0.00000  Uiso   1.00
C68    C     0.32976   0.06911   0.84816   0.00000  Uiso   1.00
C69    C     0.40041   0.02119   0.87259   0.00000  Uiso   1.00
H70    H     0.26519   0.65544   0.78964   0.00000  Uiso   1.00
H71    H     0.06677   0.59351   0.85673   0.00000  Uiso   1.00
H72    H     0.34000   0.64463   0.66735   0.00000  Uiso   1.00
H73    H     0.39537   0.69051   0.84443   0.00000  Uiso   1.00
H74    H     0.83648   0.58425   0.93167   0.00000  Uiso   1.00
H75    H     0.41263   0.69204   0.53236   0.00000  Uiso   1.00
H76    H     0.52941   0.78879   0.90576   0.00000  Uiso   1.00
H77    H     0.18585   0.11316   0.79414   0.00000  Uiso   1.00
H78    H     0.98307   0.07635   0.86148   0.00000  Uiso   1.00
H79    H     0.25630   0.12746   0.67210   0.00000  Uiso   1.00
H80    H     0.31167   0.17334   0.84918   0.00000  Uiso   1.00
H81    H     0.76855   0.97614   0.93553   0.00000  Uiso   1.00
H82    H     0.34470   0.08392   0.53621   0.00000  Uiso   1.00
H83    H     0.46147   0.18067   0.90961   0.00000  Uiso   1.00
O84    O     0.67055   0.74772   0.97780   0.00000  Uiso   1.00
O85    O     0.42645   0.88913   0.45392   0.00000  Uiso   1.00
O86    O     0.57965   0.01606   0.94381   0.00000  Uiso   1.00
N87    N     0.84833   0.68154   0.92335   0.00000  Uiso   1.00
N88    N     0.38698   0.78230   0.55002   0.00000  Uiso   1.00
N89    N     0.49617   0.87276   0.89910   0.00000  Uiso   1.00
N90    N     0.81177   0.89241   0.92542   0.00000  Uiso   1.00
N91    N     0.35042   0.99317   0.55209   0.00000  Uiso   1.00
N92    N     0.45962   0.08363   0.90117   0.00000  Uiso   1.00
C93    C     0.24701   0.73969   0.29067   0.00000  Uiso   1.00
C94    C     0.12820   0.70987   0.32775   0.00000  Uiso   1.00
C95    C     0.04867   0.80225   0.35777   0.00000  Uiso   1.00
C96    C     0.94483   0.75513   0.38919   0.00000  Uiso   1.00
C97    C     0.76390   0.72931   0.44654   0.00000  Uiso   1.00
C98    C     0.27664   0.68210   0.22486   0.00000  Uiso   1.00
C99    C     0.32193   0.75114   0.16836   0.00000  Uiso   1.00
C100   C     0.34306   0.68063   0.11317   0.00000  Uiso   1.00
C101   C     0.39266   0.61168   0.01077   0.00000  Uiso   1.00
C102   C     0.30672   0.65718   0.32107   0.00000  Uiso   1.00
C103   C     0.37732   0.70525   0.34546   0.00000  Uiso   1.00
C104   C     0.42380   0.61375   0.37126   0.00000  Uiso   1.00
C105   C     0.52010   0.50610   0.41825   0.00000  Uiso   1.00
C106   C     0.20402   0.49171   0.29311   0.00000  Uiso   1.00
C107   C     0.10486   0.57517   0.32908   0.00000  Uiso   1.00
C108   C     0.00111   0.52789   0.36047   0.00000  Uiso   1.00
C109   C     0.92144   0.62019   0.39052   0.00000  Uiso   1.00
C110   C     0.25329   0.54741   0.22618   0.00000  Uiso   1.00
C111   C     0.27437   0.47678   0.17106   0.00000  Uiso   1.00
C112   C     0.31967   0.54569   0.11449   0.00000  Uiso   1.00
C113   C     0.28337   0.52248   0.32240   0.00000  Uiso   1.00
C114   C     0.32976   0.43089   0.34816   0.00000  Uiso   1.00
C115   C     0.40041   0.47881   0.37259   0.00000  Uiso   1.00
H116   H     0.26519   0.84456   0.28964   0.00000  Uiso   1.00
H117   H     0.06677   0.90649   0.35673   0.00000  Uiso   1.00
H118   H     0.34000   0.85537   0.16735   0.00000  Uiso   1.00
H119   H     0.39537   0.80949   0.34443   0.00000  Uiso   1.00
H120   H     0.83648   0.91575   0.43167   0.00000  Uiso   1.00
H121   H     0.41263   0.80796   0.03236   0.00000  Uiso   1.00
H122   H     0.52941   0.71121   0.40576   0.00000  Uiso   1.00
H123   H     0.18585   0.38684   0.29414   0.00000  Uiso   1.00
H124   H     0.98307   0.42365   0.36148   0.00000  Uiso   1.00
H125   H     0.25630   0.37254   0.17210   0.00000  Uiso   1.00
H126   H     0.31167   0.32666   0.34918   0.00000  Uiso   1.00
H127   H     0.76855   0.52386   0.43553   0.00000  Uiso   1.00
H128   H     0.34470   0.41608   0.03621   0.00000  Uiso   1.00
H129   H     0.46147   0.31933   0.40961   0.00000  Uiso   1.00
O130   O     0.67055   0.75228   0.47780   0.00000  Uiso   1.00
O131   O     0.42645   0.61087   0.95392   0.00000  Uiso   1.00
O132   O     0.57965   0.48394   0.44381   0.00000  Uiso   1.00
N133   N     0.84833   0.81846   0.42335   0.00000  Uiso   1.00
N134   N     0.38698   0.71770   0.05002   0.00000  Uiso   1.00
N135   N     0.49617   0.62724   0.39910   0.00000  Uiso   1.00
N136   N     0.81177   0.60759   0.42542   0.00000  Uiso   1.00
N137   N     0.35042   0.50683   0.05209   0.00000  Uiso   1.00
N138   N     0.45962   0.41637   0.40117   0.00000  Uiso   1.00
C139   C     0.75299   0.23969   0.20933   0.00000  Uiso   1.00
C140   C     0.87180   0.20987   0.17225   0.00000  Uiso   1.00
C141   C     0.95133   0.30225   0.14223   0.00000  Uiso   1.00
C142   C     0.05517   0.25513   0.11081   0.00000  Uiso   1.00
C143   C     0.23610   0.22931   0.05346   0.00000  Uiso   1.00
C144   C     0.72336   0.18210   0.27514   0.00000  Uiso   1.00
C145   C     0.67807   0.25114   0.33164   0.00000  Uiso   1.00
C146   C     0.65694   0.18063   0.38683   0.00000  Uiso   1.00
C147   C     0.60734   0.11168   0.48923   0.00000  Uiso   1.00
C148   C     0.69328   0.15718   0.17893   0.00000  Uiso   1.00
C149   C     0.62268   0.20525   0.15454   0.00000  Uiso   1.00
C150   C     0.57620   0.11375   0.12874   0.00000  Uiso   1.00
C151   C     0.47990   0.00610   0.08175   0.00000  Uiso   1.00
C152   C     0.79598   0.99171   0.20689   0.00000  Uiso   1.00
C153   C     0.89514   0.07517   0.17092   0.00000  Uiso   1.00
C154   C     0.99889   0.02789   0.13953   0.00000  Uiso   1.00
C155   C     0.07856   0.12019   0.10948   0.00000  Uiso   1.00
C156   C     0.74671   0.04741   0.27382   0.00000  Uiso   1.00
C157   C     0.72563   0.97678   0.32894   0.00000  Uiso   1.00
C158   C     0.68033   0.04569   0.38551   0.00000  Uiso   1.00
C159   C     0.71663   0.02248   0.17760   0.00000  Uiso   1.00
C160   C     0.67024   0.93089   0.15184   0.00000  Uiso   1.00
C161   C     0.59959   0.97881   0.12741   0.00000  Uiso   1.00
H162   H     0.73481   0.34456   0.21036   0.00000  Uiso   1.00
H163   H     0.93323   0.40649   0.14327   0.00000  Uiso   1.00
H164   H     0.66000   0.35537   0.33265   0.00000  Uiso   1.00
H165   H     0.60463   0.30949   0.15557   0.00000  Uiso   1.00
H166   H     0.16352   0.41575   0.06833   0.00000  Uiso   1.00
H167   H     0.58737   0.30796   0.46764   0.00000  Uiso   1.00
H168   H     0.47059   0.21121   0.09424   0.00000  Uiso   1.00
H169   H     0.81415   0.88684   0.20586   0.00000  Uiso   1.00
H170   H     0.01693   0.92365   0.13852   0.00000  Uiso   1.00
H171   H     0.74370   0.87254   0.32790   0.00000  Uiso   1.00
H172   H     0.68833   0.82666   0.15082   0.00000  Uiso   1.00
H173   H     0.23145   0.02386   0.06447   0.00000  Uiso   1.00
H174   H     0.65530   0.91608   0.46379   0.00000  Uiso   1.00
H175   H     0.53853   0.81933   0.09039   0.00000  Uiso   1.00
O176   O     0.32945   0.25228   0.02220   0.00000  Uiso   1.00
O177   O     0.57355   0.11087   0.54608   0.00000  Uiso   1.00
O178   O     0.42035   0.98394   0.05619   0.00000  Uiso   1.00
N179   N     0.15167   0.31846   0.07665   0.00000  Uiso   1.00
N180   N     0.61302   0.21770   0.44998   0.00000  Uiso   1.00
N181   N     0.50383   0.12724   0.10090   0.00000  Uiso   1.00
N182   N     0.18823   0.10759   0.07458   0.00000  Uiso   1.00
N183   N     0.64958   0.00683   0.44791   0.00000  Uiso   1.00
N184   N     0.54038   0.91637   0.09883   0.00000  Uiso   1.00
