data_job_06793
_audit_creation_date              2018-12-19
_audit_creation_method            'Materials Studio'
_symmetry_space_group_name_H-M    'P1'
_symmetry_Int_Tables_number       1
_symmetry_cell_setting            triclinic
loop_
_symmetry_equiv_pos_as_xyz
  x,y,z
_cell_length_a                    20.9514
_cell_length_b                    21.6124
_cell_length_c                    22.9916
_cell_angle_alpha                 70.3356
_cell_angle_beta                  70.4750
_cell_angle_gamma                 100.7945
loop_
_atom_site_label
_atom_site_type_symbol
_atom_site_fract_x
_atom_site_fract_y
_atom_site_fract_z
_atom_site_U_iso_or_equiv
_atom_site_adp_type
_atom_site_occupancy
C1     C     0.19682   0.93523   0.19523   0.00000  Uiso   1.00
C2     C     0.22080   0.00806   0.19165   0.00000  Uiso   1.00
C3     C     0.20814   0.02388   0.24730   0.00000  Uiso   1.00
C4     C     0.23447   0.09370   0.23328   0.00000  Uiso   1.00
C5     C     0.26595   0.19887   0.23796   0.00000  Uiso   1.00
C6     C     0.15223   0.93853   0.15439   0.00000  Uiso   1.00
C7     C     0.08192   0.89589   0.17872   0.00000  Uiso   1.00
C8     C     0.05053   0.90719   0.13334   0.00000  Uiso   1.00
C9     C     0.97558   0.90438   0.08016   0.00000  Uiso   1.00
C10    C     0.26490   0.92480   0.15478   0.00000  Uiso   1.00
C11    C     0.28931   0.87060   0.17942   0.00000  Uiso   1.00
C12    C     0.35278   0.87032   0.13436   0.00000  Uiso   1.00
C13    C     0.45276   0.84619   0.08177   0.00000  Uiso   1.00
C14    C     0.26611   0.03110   0.07139   0.00000  Uiso   1.00
C15    C     0.25844   0.06013   0.12438   0.00000  Uiso   1.00
C16    C     0.28480   0.12995   0.11028   0.00000  Uiso   1.00
C17    C     0.27217   0.14587   0.16590   0.00000  Uiso   1.00
C18    C     0.18986   0.99060   0.08713   0.00000  Uiso   1.00
C19    C     0.15858   0.00196   0.04170   0.00000  Uiso   1.00
C20    C     0.08824   0.95935   0.06595   0.00000  Uiso   1.00
C21    C     0.30254   0.97687   0.08751   0.00000  Uiso   1.00
C22    C     0.36598   0.97667   0.04240   0.00000  Uiso   1.00
C23    C     0.39048   0.92249   0.06697   0.00000  Uiso   1.00
H24    H     0.16752   0.89469   0.24760   0.00000  Uiso   1.00
H25    H     0.17900   0.98357   0.29935   0.00000  Uiso   1.00
H26    H     0.05281   0.85560   0.23077   0.00000  Uiso   1.00
H27    H     0.26018   0.83031   0.23147   0.00000  Uiso   1.00
H28    H     0.20831   0.10507   0.32705   0.00000  Uiso   1.00
H29    H     0.94224   0.83522   0.18246   0.00000  Uiso   1.00
H30    H     0.37951   0.78190   0.18394   0.00000  Uiso   1.00
H31    H     0.29541   0.07164   0.01901   0.00000  Uiso   1.00
H32    H     0.31392   0.17023   0.05822   0.00000  Uiso   1.00
H33    H     0.18772   0.04226   0.98965   0.00000  Uiso   1.00
H34    H     0.39509   0.01697   0.99035   0.00000  Uiso   1.00
H35    H     0.31781   0.25658   0.13135   0.00000  Uiso   1.00
H36    H     0.05173   0.98672   0.98675   0.00000  Uiso   1.00
H37    H     0.48900   0.93341   0.98823   0.00000  Uiso   1.00
O38    O     0.27291   0.24249   0.25911   0.00000  Uiso   1.00
O39    O     0.92383   0.88845   0.06942   0.00000  Uiso   1.00
O40    O     0.49752   0.81850   0.07135   0.00000  Uiso   1.00
N41    N     0.23156   0.12720   0.27561   0.00000  Uiso   1.00
N42    N     0.98279   0.87491   0.14043   0.00000  Uiso   1.00
N43    N     0.39159   0.82505   0.14181   0.00000  Uiso   1.00
N44    N     0.29048   0.20872   0.17030   0.00000  Uiso   1.00
N45    N     0.04171   0.95643   0.03512   0.00000  Uiso   1.00
N46    N     0.45051   0.90657   0.03650   0.00000  Uiso   1.00
C47    C     0.33244   0.05935   0.65174   0.00000  Uiso   1.00
C48    C     0.33093   0.12575   0.66105   0.00000  Uiso   1.00
C49    C     0.39072   0.18220   0.64056   0.00000  Uiso   1.00
C50    C     0.37800   0.23798   0.65372   0.00000  Uiso   1.00
C51    C     0.38631   0.34118   0.66326   0.00000  Uiso   1.00
C52    C     0.29007   0.99912   0.72297   0.00000  Uiso   1.00
C53    C     0.31550   0.94909   0.75455   0.00000  Uiso   1.00
C54    C     0.26838   0.89827   0.81983   0.00000  Uiso   1.00
C55    C     0.21323   0.80483   0.92550   0.00000  Uiso   1.00
C56    C     0.28798   0.05228   0.61217   0.00000  Uiso   1.00
C57    C     0.31165   0.04692   0.55059   0.00000  Uiso   1.00
C58    C     0.26277   0.04084   0.52260   0.00000  Uiso   1.00
C59    C     0.20438   0.02994   0.45622   0.00000  Uiso   1.00
C60    C     0.20354   0.05804   0.71152   0.00000  Uiso   1.00
C61    C     0.26091   0.12504   0.69352   0.00000  Uiso   1.00
C62    C     0.24810   0.18075   0.70671   0.00000  Uiso   1.00
C63    C     0.30786   0.23727   0.68625   0.00000  Uiso   1.00
C64    C     0.22006   0.99840   0.75545   0.00000  Uiso   1.00
C65    C     0.17288   0.94764   0.82069   0.00000  Uiso   1.00
C66    C     0.19824   0.89755   0.85237   0.00000  Uiso   1.00
C67    C     0.21797   0.05156   0.64464   0.00000  Uiso   1.00
C68    C     0.16904   0.04548   0.61674   0.00000  Uiso   1.00
C69    C     0.19263   0.04012   0.55513   0.00000  Uiso   1.00
H70    H     0.38695   0.05990   0.62646   0.00000  Uiso   1.00
H71    H     0.44490   0.18273   0.61544   0.00000  Uiso   1.00
H72    H     0.36969   0.94965   0.72941   0.00000  Uiso   1.00
H73    H     0.36584   0.04748   0.52548   0.00000  Uiso   1.00
H74    H     0.47827   0.31859   0.61757   0.00000  Uiso   1.00
H75    H     0.31967   0.82711   0.85786   0.00000  Uiso   1.00
H76    H     0.31156   0.03339   0.42784   0.00000  Uiso   1.00
H77    H     0.14902   0.05748   0.73680   0.00000  Uiso   1.00
H78    H     0.19391   0.18018   0.73184   0.00000  Uiso   1.00
H79    H     0.11870   0.94710   0.84580   0.00000  Uiso   1.00
H80    H     0.11486   0.04492   0.64188   0.00000  Uiso   1.00
H81    H     0.27456   0.31651   0.71204   0.00000  Uiso   1.00
H82    H     0.11596   0.82504   0.95233   0.00000  Uiso   1.00
H83    H     0.10785   0.03132   0.52232   0.00000  Uiso   1.00
O84    O     0.41024   0.39830   0.65957   0.00000  Uiso   1.00
O85    O     0.20216   0.75350   0.97482   0.00000  Uiso   1.00
O86    O     0.19152   0.02414   0.41064   0.00000  Uiso   1.00
N87    N     0.42416   0.30127   0.64047   0.00000  Uiso   1.00
N88    N     0.27589   0.84177   0.86514   0.00000  Uiso   1.00
N89    N     0.26830   0.03461   0.46311   0.00000  Uiso   1.00
N90    N     0.31455   0.30015   0.69131   0.00000  Uiso   1.00
N91    N     0.16628   0.84066   0.91597   0.00000  Uiso   1.00
N92    N     0.15869   0.03349   0.51395   0.00000  Uiso   1.00
C93    C     0.66096   0.75032   0.13484   0.00000  Uiso   1.00
C94    C     0.65462   0.80486   0.16266   0.00000  Uiso   1.00
C95    C     0.63756   0.86380   0.13543   0.00000  Uiso   1.00
C96    C     0.63444   0.90727   0.16833   0.00000  Uiso   1.00
C97    C     0.62260   0.99425   0.20269   0.00000  Uiso   1.00
C98    C     0.73626   0.74672   0.12118   0.00000  Uiso   1.00
C99    C     0.78784   0.75676   0.05907   0.00000  Uiso   1.00
C100   C     0.85344   0.75128   0.05706   0.00000  Uiso   1.00
C101   C     0.96832   0.74794   0.02703   0.00000  Uiso   1.00
C102   C     0.60898   0.68047   0.19391   0.00000  Uiso   1.00
C103   C     0.55355   0.63480   0.19295   0.00000  Uiso   1.00
C104   C     0.51201   0.57353   0.25217   0.00000  Uiso   1.00
C105   C     0.42927   0.46733   0.33506   0.00000  Uiso   1.00
C106   C     0.68575   0.72271   0.24172   0.00000  Uiso   1.00
C107   C     0.66810   0.78986   0.22072   0.00000  Uiso   1.00
C108   C     0.66500   0.83325   0.25368   0.00000  Uiso   1.00
C109   C     0.64793   0.89224   0.22650   0.00000  Uiso   1.00
C110   C     0.74973   0.73172   0.17923   0.00000  Uiso   1.00
C111   C     0.81527   0.72621   0.17732   0.00000  Uiso   1.00
C112   C     0.86694   0.73625   0.11522   0.00000  Uiso   1.00
C113   C     0.62245   0.66547   0.25197   0.00000  Uiso   1.00
C114   C     0.58099   0.60425   0.31120   0.00000  Uiso   1.00
C115   C     0.52550   0.55850   0.31033   0.00000  Uiso   1.00
H116   H     0.65047   0.76200   0.08964   0.00000  Uiso   1.00
H117   H     0.62715   0.87540   0.09049   0.00000  Uiso   1.00
H118   H     0.77740   0.76837   0.01415   0.00000  Uiso   1.00
H119   H     0.54315   0.64643   0.14801   0.00000  Uiso   1.00
H120   H     0.60725   0.99451   0.11703   0.00000  Uiso   1.00
H121   H     0.92405   0.76881   0.95607   0.00000  Uiso   1.00
H122   H     0.43009   0.51167   0.23833   0.00000  Uiso   1.00
H123   H     0.69624   0.71103   0.28692   0.00000  Uiso   1.00
H124   H     0.67543   0.82163   0.29861   0.00000  Uiso   1.00
H125   H     0.82568   0.71460   0.22226   0.00000  Uiso   1.00
H126   H     0.59143   0.59266   0.35612   0.00000  Uiso   1.00
H127   H     0.64644   0.95087   0.28594   0.00000  Uiso   1.00
H128   H     0.96324   0.72517   0.12497   0.00000  Uiso   1.00
H129   H     0.46928   0.46803   0.40724   0.00000  Uiso   1.00
O130   O     0.61235   0.04638   0.20559   0.00000  Uiso   1.00
O131   O     0.02797   0.75026   0.99442   0.00000  Uiso   1.00
O132   O     0.37991   0.41290   0.36475   0.00000  Uiso   1.00
N133   N     0.61932   0.96906   0.15519   0.00000  Uiso   1.00
N134   N     0.91551   0.75805   0.00469   0.00000  Uiso   1.00
N135   N     0.45371   0.51764   0.26858   0.00000  Uiso   1.00
N136   N     0.64040   0.94557   0.24607   0.00000  Uiso   1.00
N137   N     0.93660   0.73457   0.09558   0.00000  Uiso   1.00
N138   N     0.47480   0.49416   0.35947   0.00000  Uiso   1.00
C139   C     0.80203   0.17969   0.39762   0.00000  Uiso   1.00
C140   C     0.84428   0.24399   0.39960   0.00000  Uiso   1.00
C141   C     0.91252   0.25724   0.39775   0.00000  Uiso   1.00
C142   C     0.94196   0.31903   0.40006   0.00000  Uiso   1.00
C143   C     0.01328   0.41177   0.40249   0.00000  Uiso   1.00
C144   C     0.78381   0.20696   0.33695   0.00000  Uiso   1.00
C145   C     0.80120   0.18908   0.28245   0.00000  Uiso   1.00
C146   C     0.77972   0.21969   0.23203   0.00000  Uiso   1.00
C147   C     0.75712   0.25491   0.13723   0.00000  Uiso   1.00
C148   C     0.73067   0.14716   0.46135   0.00000  Uiso   1.00
C149   C     0.70338   0.07899   0.51144   0.00000  Uiso   1.00
C150   C     0.63716   0.05925   0.56575   0.00000  Uiso   1.00
C151   C     0.53206   0.00162   0.66410   0.00000  Uiso   1.00
C152   C     0.73296   0.26584   0.40500   0.00000  Uiso   1.00
C153   C     0.80676   0.29078   0.40361   0.00000  Uiso   1.00
C154   C     0.83610   0.35257   0.40593   0.00000  Uiso   1.00
C155   C     0.90437   0.36591   0.40409   0.00000  Uiso   1.00
C156   C     0.74629   0.25376   0.34096   0.00000  Uiso   1.00
C157   C     0.72478   0.28440   0.29062   0.00000  Uiso   1.00
C158   C     0.74214   0.26657   0.23605   0.00000  Uiso   1.00
C159   C     0.69316   0.19396   0.46537   0.00000  Uiso   1.00
C160   C     0.62697   0.17432   0.51961   0.00000  Uiso   1.00
C161   C     0.59958   0.10613   0.56977   0.00000  Uiso   1.00
H162   H     0.83123   0.14326   0.39449   0.00000  Uiso   1.00
H163   H     0.94154   0.22102   0.39464   0.00000  Uiso   1.00
H164   H     0.83022   0.15286   0.27936   0.00000  Uiso   1.00
H165   H     0.73242   0.04279   0.50832   0.00000  Uiso   1.00
H166   H     0.04729   0.32788   0.39655   0.00000  Uiso   1.00
H167   H     0.81257   0.18415   0.15349   0.00000  Uiso   1.00
H168   H     0.60633   0.95205   0.63628   0.00000  Uiso   1.00
H169   H     0.70375   0.30228   0.40813   0.00000  Uiso   1.00
H170   H     0.80706   0.38877   0.40903   0.00000  Uiso   1.00
H171   H     0.69575   0.32061   0.29374   0.00000  Uiso   1.00
H172   H     0.59795   0.21054   0.52270   0.00000  Uiso   1.00
H173   H     0.93815   0.46404   0.40823   0.00000  Uiso   1.00
H174   H     0.70342   0.32030   0.16516   0.00000  Uiso   1.00
H175   H     0.49719   0.08820   0.64796   0.00000  Uiso   1.00
O176   O     0.06298   0.45000   0.40272   0.00000  Uiso   1.00
O177   O     0.75502   0.26141   0.08383   0.00000  Uiso   1.00
O178   O     0.48446   0.95690   0.71725   0.00000  Uiso   1.00
N179   N     0.00742   0.34805   0.39919   0.00000  Uiso   1.00
N180   N     0.78798   0.21367   0.17193   0.00000  Uiso   1.00
N181   N     0.59516   0.99667   0.62330   0.00000  Uiso   1.00
N182   N     0.94869   0.42131   0.40548   0.00000  Uiso   1.00
N183   N     0.72925   0.28694   0.17821   0.00000  Uiso   1.00
N184   N     0.53643   0.06994   0.62958   0.00000  Uiso   1.00
C185   C     0.95853   0.39282   0.72938   0.00000  Uiso   1.00
C186   C     0.02261   0.46022   0.69392   0.00000  Uiso   1.00
C187   C     0.01935   0.52727   0.67335   0.00000  Uiso   1.00
C188   C     0.08400   0.58206   0.64177   0.00000  Uiso   1.00
C189   C     0.17353   0.68853   0.58835   0.00000  Uiso   1.00
C190   C     0.96099   0.34946   0.79589   0.00000  Uiso   1.00
C191   C     0.90592   0.32338   0.86105   0.00000  Uiso   1.00
C192   C     0.91870   0.28493   0.91531   0.00000  Uiso   1.00
C193   C     0.91254   0.21940   0.02020   0.00000  Uiso   1.00
C194   C     0.97466   0.35375   0.68499   0.00000  Uiso   1.00
C195   C     0.93107   0.33126   0.65691   0.00000  Uiso   1.00
C196   C     0.95536   0.29641   0.61781   0.00000  Uiso   1.00
C197   C     0.97042   0.23754   0.55050   0.00000  Uiso   1.00
C198   C     0.07917   0.37089   0.70989   0.00000  Uiso   1.00
C199   C     0.08813   0.44830   0.68334   0.00000  Uiso   1.00
C200   C     0.15281   0.50301   0.65178   0.00000  Uiso   1.00
C201   C     0.14964   0.57013   0.63116   0.00000  Uiso   1.00
C202   C     0.02651   0.33755   0.78531   0.00000  Uiso   1.00
C203   C     0.03938   0.29912   0.83948   0.00000  Uiso   1.00
C204   C     0.98434   0.27300   0.90471   0.00000  Uiso   1.00
C205   C     0.04019   0.34184   0.67440   0.00000  Uiso   1.00
C206   C     0.06454   0.30701   0.63534   0.00000  Uiso   1.00
C207   C     0.02100   0.28448   0.60721   0.00000  Uiso   1.00
H208   H     0.90752   0.40209   0.73763   0.00000  Uiso   1.00
H209   H     0.96863   0.53646   0.68155   0.00000  Uiso   1.00
H210   H     0.85521   0.33260   0.86923   0.00000  Uiso   1.00
H211   H     0.88037   0.34049   0.66512   0.00000  Uiso   1.00
H212   H     0.06527   0.68019   0.61474   0.00000  Uiso   1.00
H213   H     0.82612   0.25032   0.01045   0.00000  Uiso   1.00
H214   H     0.87916   0.26695   0.58005   0.00000  Uiso   1.00
H215   H     0.13018   0.36162   0.70165   0.00000  Uiso   1.00
H216   H     0.20351   0.49378   0.64359   0.00000  Uiso   1.00
H217   H     0.09009   0.28991   0.83127   0.00000  Uiso   1.00
H218   H     0.11525   0.29780   0.62716   0.00000  Uiso   1.00
H219   H     0.25591   0.64555   0.58393   0.00000  Uiso   1.00
H220   H     0.01676   0.21567   0.97965   0.00000  Uiso   1.00
H221   H     0.06980   0.23230   0.54924   0.00000  Uiso   1.00
O222   O     0.20480   0.75054   0.56181   0.00000  Uiso   1.00
O223   O     0.89105   0.18655   0.08098   0.00000  Uiso   1.00
O224   O     0.96064   0.20837   0.51629   0.00000  Uiso   1.00
N225   N     0.10007   0.65390   0.61544   0.00000  Uiso   1.00
N226   N     0.87649   0.25200   0.98541   0.00000  Uiso   1.00
N227   N     0.92607   0.26753   0.58303   0.00000  Uiso   1.00
N228   N     0.20265   0.63526   0.59886   0.00000  Uiso   1.00
N229   N     0.97907   0.23336   0.96884   0.00000  Uiso   1.00
N230   N     0.02865   0.24889   0.56646   0.00000  Uiso   1.00
C231   C     0.63754   0.70315   0.76276   0.00000  Uiso   1.00
C232   C     0.62521   0.74342   0.80633   0.00000  Uiso   1.00
C233   C     0.60541   0.80265   0.79166   0.00000  Uiso   1.00
C234   C     0.59678   0.83179   0.83796   0.00000  Uiso   1.00
C235   C     0.57596   0.89872   0.89667   0.00000  Uiso   1.00
C236   C     0.58732   0.62811   0.80968   0.00000  Uiso   1.00
C237   C     0.53568   0.59039   0.79782   0.00000  Uiso   1.00
C238   C     0.49517   0.52246   0.84693   0.00000  Uiso   1.00
C239   C     0.41555   0.41036   0.91082   0.00000  Uiso   1.00
C240   C     0.71371   0.70120   0.74651   0.00000  Uiso   1.00
C241   C     0.76834   0.72491   0.68154   0.00000  Uiso   1.00
C242   C     0.83423   0.71851   0.67747   0.00000  Uiso   1.00
C243   C     0.95086   0.71989   0.64328   0.00000  Uiso   1.00
C244   C     0.65742   0.64959   0.87106   0.00000  Uiso   1.00
C245   C     0.63601   0.71432   0.86515   0.00000  Uiso   1.00
C246   C     0.62741   0.74339   0.91148   0.00000  Uiso   1.00
C247   C     0.60761   0.80265   0.89689   0.00000  Uiso   1.00
C248   C     0.59812   0.59902   0.86850   0.00000  Uiso   1.00
C249   C     0.55768   0.53113   0.91764   0.00000  Uiso   1.00
C250   C     0.50598   0.49331   0.90586   0.00000  Uiso   1.00
C251   C     0.72451   0.67211   0.80533   0.00000  Uiso   1.00
C252   C     0.79033   0.66566   0.80136   0.00000  Uiso   1.00
C253   C     0.84505   0.68936   0.73640   0.00000  Uiso   1.00
H254   H     0.62913   0.72579   0.71697   0.00000  Uiso   1.00
H255   H     0.59705   0.82514   0.74614   0.00000  Uiso   1.00
H256   H     0.52734   0.61291   0.75229   0.00000  Uiso   1.00
H257   H     0.75996   0.74742   0.63603   0.00000  Uiso   1.00
H258   H     0.56623   0.92244   0.80443   0.00000  Uiso   1.00
H259   H     0.41925   0.47494   0.81739   0.00000  Uiso   1.00
H260   H     0.90977   0.75858   0.57224   0.00000  Uiso   1.00
H261   H     0.66583   0.62693   0.91686   0.00000  Uiso   1.00
H262   H     0.63577   0.72086   0.95700   0.00000  Uiso   1.00
H263   H     0.56605   0.50863   0.96315   0.00000  Uiso   1.00
H264   H     0.79867   0.64314   0.84690   0.00000  Uiso   1.00
H265   H     0.59765   0.83780   0.97558   0.00000  Uiso   1.00
H266   H     0.45066   0.39029   0.98854   0.00000  Uiso   1.00
H267   H     0.94119   0.67394   0.74338   0.00000  Uiso   1.00
O268   O     0.56147   0.94368   0.91281   0.00000  Uiso   1.00
O269   O     0.36865   0.35657   0.92981   0.00000  Uiso   1.00
O270   O     0.01221   0.72870   0.60817   0.00000  Uiso   1.00
N271   N     0.57776   0.88964   0.83919   0.00000  Uiso   1.00
N272   N     0.44033   0.47125   0.85132   0.00000  Uiso   1.00
N273   N     0.89893   0.73642   0.62212   0.00000  Uiso   1.00
N274   N     0.59467   0.84409   0.93129   0.00000  Uiso   1.00
N275   N     0.45724   0.42571   0.94341   0.00000  Uiso   1.00
N276   N     0.91583   0.69087   0.71421   0.00000  Uiso   1.00
C277   C     0.98086   0.96305   0.77696   0.00000  Uiso   1.00
C278   C     0.97812   0.88738   0.79798   0.00000  Uiso   1.00
C279   C     0.03717   0.86530   0.78251   0.00000  Uiso   1.00
C280   C     0.02336   0.79382   0.80643   0.00000  Uiso   1.00
C281   C     0.02982   0.68357   0.83332   0.00000  Uiso   1.00
C282   C     0.94106   0.96840   0.84306   0.00000  Uiso   1.00
C283   C     0.96894   0.01445   0.86548   0.00000  Uiso   1.00
C284   C     0.92393   0.01117   0.92734   0.00000  Uiso   1.00
C285   C     0.87283   0.02674   0.02418   0.00000  Uiso   1.00
C286   C     0.93464   0.97326   0.73782   0.00000  Uiso   1.00
C287   C     0.95712   0.02341   0.67176   0.00000  Uiso   1.00
C288   C     0.90669   0.02422   0.64503   0.00000  Uiso   1.00
C289   C     0.84562   0.04734   0.57847   0.00000  Uiso   1.00
C290   C     0.85134   0.87535   0.84696   0.00000  Uiso   1.00
C291   C     0.90777   0.83975   0.83601   0.00000  Uiso   1.00
C292   C     0.89387   0.76827   0.85996   0.00000  Uiso   1.00
C293   C     0.95289   0.74609   0.84452   0.00000  Uiso   1.00
C294   C     0.87071   0.92077   0.88108   0.00000  Uiso   1.00
C295   C     0.82564   0.91742   0.94292   0.00000  Uiso   1.00
C296   C     0.85345   0.96345   0.96543   0.00000  Uiso   1.00
C297   C     0.86429   0.92562   0.77584   0.00000  Uiso   1.00
C298   C     0.81382   0.92637   0.74921   0.00000  Uiso   1.00
C299   C     0.83622   0.97651   0.68312   0.00000  Uiso   1.00
H300   H     0.03563   0.00014   0.74737   0.00000  Uiso   1.00
H301   H     0.09160   0.90218   0.75309   0.00000  Uiso   1.00
H302   H     0.02338   0.05131   0.83604   0.00000  Uiso   1.00
H303   H     0.01156   0.06026   0.64236   0.00000  Uiso   1.00
H304   H     0.12264   0.77258   0.77623   0.00000  Uiso   1.00
H305   H     0.97879   0.08704   0.95111   0.00000  Uiso   1.00
H306   H     0.95386   0.10591   0.54270   0.00000  Uiso   1.00
H307   H     0.79656   0.83826   0.87656   0.00000  Uiso   1.00
H308   H     0.83942   0.73142   0.88938   0.00000  Uiso   1.00
H309   H     0.77121   0.88055   0.97232   0.00000  Uiso   1.00
H310   H     0.75938   0.88950   0.77864   0.00000  Uiso   1.00
H311   H     0.91796   0.63399   0.88685   0.00000  Uiso   1.00
H312   H     0.77411   0.94845   0.06173   0.00000  Uiso   1.00
H313   H     0.74918   0.96732   0.65331   0.00000  Uiso   1.00
O314   O     0.05281   0.63592   0.83766   0.00000  Uiso   1.00
O315   O     0.86408   0.04849   0.06709   0.00000  Uiso   1.00
O316   O     0.83137   0.07325   0.53126   0.00000  Uiso   1.00
N317   N     0.06859   0.75462   0.80049   0.00000  Uiso   1.00
N318   N     0.93410   0.04862   0.96401   0.00000  Uiso   1.00
N319   N     0.91078   0.06627   0.58217   0.00000  Uiso   1.00
N320   N     0.95845   0.68005   0.86001   0.00000  Uiso   1.00
N321   N     0.82396   0.97404   0.02353   0.00000  Uiso   1.00
N322   N     0.80065   0.99170   0.64170   0.00000  Uiso   1.00
C323   C     0.83143   0.86319   0.32570   0.00000  Uiso   1.00
C324   C     0.86166   0.80345   0.33649   0.00000  Uiso   1.00
C325   C     0.83479   0.74145   0.33341   0.00000  Uiso   1.00
C326   C     0.87005   0.69337   0.34476   0.00000  Uiso   1.00
C327   C     0.90789   0.59857   0.35937   0.00000  Uiso   1.00
C328   C     0.89359   0.92796   0.26813   0.00000  Uiso   1.00
C329   C     0.89355   0.97065   0.20757   0.00000  Uiso   1.00
C330   C     0.95569   0.02738   0.16138   0.00000  Uiso   1.00
C331   C     0.04307   0.12592   0.06988   0.00000  Uiso   1.00
C332   C     0.81470   0.87521   0.39005   0.00000  Uiso   1.00
C333   C     0.74835   0.87356   0.43199   0.00000  Uiso   1.00
C334   C     0.74407   0.88590   0.48844   0.00000  Uiso   1.00
C335   C     0.70899   0.90253   0.58623   0.00000  Uiso   1.00
C336   C     0.94184   0.88807   0.35135   0.00000  Uiso   1.00
C337   C     0.92163   0.81697   0.35043   0.00000  Uiso   1.00
C338   C     0.95694   0.76897   0.36179   0.00000  Uiso   1.00
C339   C     0.93013   0.70690   0.35872   0.00000  Uiso   1.00
C340   C     0.95355   0.94147   0.28206   0.00000  Uiso   1.00
C341   C     0.01570   0.99817   0.23596   0.00000  Uiso   1.00
C342   C     0.01577   0.04092   0.17534   0.00000  Uiso   1.00
C343   C     0.87467   0.88872   0.40398   0.00000  Uiso   1.00
C344   C     0.87050   0.90107   0.46038   0.00000  Uiso   1.00
C345   C     0.80415   0.89944   0.50240   0.00000  Uiso   1.00
H346   H     0.78474   0.85268   0.31485   0.00000  Uiso   1.00
H347   H     0.78838   0.73101   0.32261   0.00000  Uiso   1.00
H348   H     0.84713   0.96018   0.19680   0.00000  Uiso   1.00
H349   H     0.70195   0.86310   0.42119   0.00000  Uiso   1.00
H350   H     0.81888   0.60209   0.33735   0.00000  Uiso   1.00
H351   H     0.94275   0.08532   0.07208   0.00000  Uiso   1.00
H352   H     0.63661   0.88061   0.54524   0.00000  Uiso   1.00
H353   H     0.98853   0.89859   0.36220   0.00000  Uiso   1.00
H354   H     0.00335   0.77944   0.37257   0.00000  Uiso   1.00
H355   H     0.06210   0.00861   0.24676   0.00000  Uiso   1.00
H356   H     0.91692   0.91153   0.47114   0.00000  Uiso   1.00
H357   H     0.99336   0.64140   0.37789   0.00000  Uiso   1.00
H358   H     0.11723   0.12463   0.11262   0.00000  Uiso   1.00
H359   H     0.81109   0.91992   0.58578   0.00000  Uiso   1.00
O360   O     0.91221   0.54255   0.36357   0.00000  Uiso   1.00
O361   O     0.07471   0.17653   0.01555   0.00000  Uiso   1.00
O362   O     0.67306   0.90795   0.63632   0.00000  Uiso   1.00
N363   N     0.85790   0.62769   0.34548   0.00000  Uiso   1.00
N364   N     0.97371   0.07947   0.09747   0.00000  Uiso   1.00
N365   N     0.68750   0.88811   0.53982   0.00000  Uiso   1.00
N366   N     0.95179   0.64884   0.36730   0.00000  Uiso   1.00
N367   N     0.06760   0.10062   0.11928   0.00000  Uiso   1.00
N368   N     0.78139   0.90926   0.56164   0.00000  Uiso   1.00
C369   C     0.46418   0.25254   0.83385   0.00000  Uiso   1.00
C370   C     0.49455   0.20003   0.86840   0.00000  Uiso   1.00
C371   C     0.51491   0.19925   0.92014   0.00000  Uiso   1.00
C372   C     0.54144   0.14691   0.94499   0.00000  Uiso   1.00
C373   C     0.58767   0.07293   0.00263   0.00000  Uiso   1.00
C374   C     0.39202   0.20967   0.84279   0.00000  Uiso   1.00
C375   C     0.32617   0.21701   0.87300   0.00000  Uiso   1.00
C376   C     0.26639   0.17279   0.87627   0.00000  Uiso   1.00
C377   C     0.15344   0.11381   0.89411   0.00000  Uiso   1.00
C378   C     0.51343   0.28515   0.75753   0.00000  Uiso   1.00
C379   C     0.54966   0.35595   0.71604   0.00000  Uiso   1.00
C380   C     0.59209   0.37529   0.64753   0.00000  Uiso   1.00
C381   C     0.66766   0.43350   0.53298   0.00000  Uiso   1.00
C382   C     0.47509   0.16098   0.78596   0.00000  Uiso   1.00
C383   C     0.50048   0.15030   0.84239   0.00000  Uiso   1.00
C384   C     0.52699   0.09795   0.86716   0.00000  Uiso   1.00
C385   C     0.54738   0.09710   0.91893   0.00000  Uiso   1.00
C386   C     0.39795   0.15994   0.81678   0.00000  Uiso   1.00
C387   C     0.33825   0.11571   0.82001   0.00000  Uiso   1.00
C388   C     0.27233   0.12296   0.85022   0.00000  Uiso   1.00
C389   C     0.51937   0.23542   0.73152   0.00000  Uiso   1.00
C390   C     0.56174   0.25465   0.66306   0.00000  Uiso   1.00
C391   C     0.59803   0.32547   0.62147   0.00000  Uiso   1.00
H392   H     0.45956   0.29125   0.85410   0.00000  Uiso   1.00
H393   H     0.51031   0.23774   0.94026   0.00000  Uiso   1.00
H394   H     0.32160   0.25550   0.89311   0.00000  Uiso   1.00
H395   H     0.54506   0.39442   0.73619   0.00000  Uiso   1.00
H396   H     0.56916   0.15647   0.02434   0.00000  Uiso   1.00
H397   H     0.17127   0.19393   0.92491   0.00000  Uiso   1.00
H398   H     0.64247   0.48688   0.59399   0.00000  Uiso   1.00
H399   H     0.47971   0.12226   0.76570   0.00000  Uiso   1.00
H400   H     0.53157   0.05947   0.84702   0.00000  Uiso   1.00
H401   H     0.34286   0.07723   0.79987   0.00000  Uiso   1.00
H402   H     0.56632   0.21615   0.64295   0.00000  Uiso   1.00
H403   H     0.58642   0.01178   0.94867   0.00000  Uiso   1.00
H404   H     0.18852   0.04924   0.84923   0.00000  Uiso   1.00
H405   H     0.65973   0.34218   0.51831   0.00000  Uiso   1.00
O406   O     0.61152   0.04586   0.04161   0.00000  Uiso   1.00
O407   O     0.08950   0.09501   0.91114   0.00000  Uiso   1.00
O408   O     0.70771   0.47935   0.47699   0.00000  Uiso   1.00
N409   N     0.56612   0.13104   0.99536   0.00000  Uiso   1.00
N410   N     0.19411   0.16605   0.90241   0.00000  Uiso   1.00
N411   N     0.63463   0.43994   0.59302   0.00000  Uiso   1.00
N412   N     0.57541   0.05319   0.95464   0.00000  Uiso   1.00
N413   N     0.20340   0.08820   0.86168   0.00000  Uiso   1.00
N414   N     0.64392   0.36208   0.55230   0.00000  Uiso   1.00
C415   C     0.26769   0.67834   0.75979   0.00000  Uiso   1.00
C416   C     0.27482   0.61264   0.75122   0.00000  Uiso   1.00
C417   C     0.21826   0.55286   0.77253   0.00000  Uiso   1.00
C418   C     0.23598   0.49839   0.75998   0.00000  Uiso   1.00
C419   C     0.23614   0.39557   0.75167   0.00000  Uiso   1.00
C420   C     0.31138   0.69065   0.79870   0.00000  Uiso   1.00
C421   C     0.28556   0.69647   0.85993   0.00000  Uiso   1.00
C422   C     0.33407   0.70769   0.88735   0.00000  Uiso   1.00
C423   C     0.39100   0.72604   0.95273   0.00000  Uiso   1.00
C424   C     0.30738   0.73828   0.68821   0.00000  Uiso   1.00
C425   C     0.27820   0.78417   0.65654   0.00000  Uiso   1.00
C426   C     0.32335   0.83550   0.59093   0.00000  Uiso   1.00
C427   C     0.37407   0.92781   0.48476   0.00000  Uiso   1.00
C428   C     0.39976   0.68791   0.69959   0.00000  Uiso   1.00
C429   C     0.34655   0.61784   0.71852   0.00000  Uiso   1.00
C430   C     0.36437   0.56345   0.70593   0.00000  Uiso   1.00
C431   C     0.30785   0.50360   0.72722   0.00000  Uiso   1.00
C432   C     0.38311   0.69585   0.76601   0.00000  Uiso   1.00
C433   C     0.43168   0.70707   0.79333   0.00000  Uiso   1.00
C434   C     0.40593   0.71290   0.85459   0.00000  Uiso   1.00
C435   C     0.37911   0.74348   0.65551   0.00000  Uiso   1.00
C436   C     0.42432   0.79476   0.58994   0.00000  Uiso   1.00
C437   C     0.39521   0.84071   0.55817   0.00000  Uiso   1.00
H438   H     0.21184   0.67429   0.78525   0.00000  Uiso   1.00
H439   H     0.16275   0.54885   0.79784   0.00000  Uiso   1.00
H440   H     0.23004   0.69245   0.88522   0.00000  Uiso   1.00
H441   H     0.22269   0.78013   0.68186   0.00000  Uiso   1.00
H442   H     0.13995   0.41206   0.79740   0.00000  Uiso   1.00
H443   H     0.28185   0.71488   0.98164   0.00000  Uiso   1.00
H444   H     0.26634   0.89977   0.55281   0.00000  Uiso   1.00
H445   H     0.45561   0.69196   0.67414   0.00000  Uiso   1.00
H446   H     0.41989   0.56749   0.68062   0.00000  Uiso   1.00
H447   H     0.48718   0.71109   0.76801   0.00000  Uiso   1.00
H448   H     0.47983   0.79877   0.56465   0.00000  Uiso   1.00
H449   H     0.34866   0.42719   0.70227   0.00000  Uiso   1.00
H450   H     0.49056   0.73001   0.88651   0.00000  Uiso   1.00
H451   H     0.47504   0.91489   0.45768   0.00000  Uiso   1.00
O452   O     0.21641   0.33742   0.75613   0.00000  Uiso   1.00
O453   O     0.40258   0.73471   0.99784   0.00000  Uiso   1.00
O454   O     0.38222   0.97728   0.43522   0.00000  Uiso   1.00
N455   N     0.19397   0.43271   0.77410   0.00000  Uiso   1.00
N456   N     0.32664   0.71581   0.94637   0.00000  Uiso   1.00
N457   N     0.31214   0.88868   0.54545   0.00000  Uiso   1.00
N458   N     0.30628   0.44085   0.72292   0.00000  Uiso   1.00
N459   N     0.43894   0.72395   0.89518   0.00000  Uiso   1.00
N460   N     0.42444   0.89682   0.49426   0.00000  Uiso   1.00
C461   C     0.35075   0.64490   0.16677   0.00000  Uiso   1.00
C462   C     0.34829   0.57451   0.16527   0.00000  Uiso   1.00
C463   C     0.39352   0.56427   0.11214   0.00000  Uiso   1.00
C464   C     0.38257   0.49583   0.12059   0.00000  Uiso   1.00
C465   C     0.38698   0.39507   0.10919   0.00000  Uiso   1.00
C466   C     0.27583   0.64902   0.17901   0.00000  Uiso   1.00
C467   C     0.26013   0.70143   0.13742   0.00000  Uiso   1.00
C468   C     0.18818   0.69572   0.15745   0.00000  Uiso   1.00
C469   C     0.08009   0.71067   0.16740   0.00000  Uiso   1.00
C470   C     0.35970   0.64036   0.23108   0.00000  Uiso   1.00
C471   C     0.41451   0.68551   0.23329   0.00000  Uiso   1.00
C472   C     0.41316   0.67252   0.29716   0.00000  Uiso   1.00
C473   C     0.43530   0.67402   0.38797   0.00000  Uiso   1.00
C474   C     0.25089   0.54157   0.27627   0.00000  Uiso   1.00
C475   C     0.29405   0.51838   0.22474   0.00000  Uiso   1.00
C476   C     0.28303   0.44995   0.23328   0.00000  Uiso   1.00
C477   C     0.32823   0.43961   0.18017   0.00000  Uiso   1.00
C478   C     0.22158   0.59290   0.23848   0.00000  Uiso   1.00
C479   C     0.14964   0.58711   0.25857   0.00000  Uiso   1.00
C480   C     0.13384   0.63950   0.21703   0.00000  Uiso   1.00
C481   C     0.30546   0.58424   0.29055   0.00000  Uiso   1.00
C482   C     0.30402   0.57118   0.35443   0.00000  Uiso   1.00
C483   C     0.35882   0.61629   0.35674   0.00000  Uiso   1.00
H484   H     0.39298   0.68859   0.12047   0.00000  Uiso   1.00
H485   H     0.43549   0.60772   0.06612   0.00000  Uiso   1.00
H486   H     0.30212   0.74486   0.09141   0.00000  Uiso   1.00
H487   H     0.45648   0.72893   0.18726   0.00000  Uiso   1.00
H488   H     0.45867   0.49330   0.03207   0.00000  Uiso   1.00
H489   H     0.17746   0.78249   0.08541   0.00000  Uiso   1.00
H490   H     0.50296   0.74890   0.28753   0.00000  Uiso   1.00
H491   H     0.20865   0.49787   0.32257   0.00000  Uiso   1.00
H492   H     0.24105   0.40652   0.27931   0.00000  Uiso   1.00
H493   H     0.10768   0.54367   0.30459   0.00000  Uiso   1.00
H494   H     0.26204   0.52774   0.40044   0.00000  Uiso   1.00
H495   H     0.30086   0.33000   0.20510   0.00000  Uiso   1.00
H496   H     0.01965   0.61920   0.25844   0.00000  Uiso   1.00
H497   H     0.34514   0.58561   0.46056   0.00000  Uiso   1.00
O498   O     0.40439   0.35500   0.08647   0.00000  Uiso   1.00
O499   O     0.03545   0.73441   0.15645   0.00000  Uiso   1.00
O500   O     0.46249   0.69035   0.42162   0.00000  Uiso   1.00
N501   N     0.41710   0.46740   0.07874   0.00000  Uiso   1.00
N502   N     0.15418   0.73777   0.12860   0.00000  Uiso   1.00
N503   N     0.45848   0.70639   0.31756   0.00000  Uiso   1.00
N504   N     0.33218   0.37953   0.17184   0.00000  Uiso   1.00
N505   N     0.06926   0.64990   0.22171   0.00000  Uiso   1.00
N506   N     0.37356   0.61852   0.41067   0.00000  Uiso   1.00
C507   C     0.49368   0.23717   0.44076   0.00000  Uiso   1.00
C508   C     0.52152   0.19049   0.40891   0.00000  Uiso   1.00
C509   C     0.53485   0.13102   0.44191   0.00000  Uiso   1.00
C510   C     0.56018   0.09552   0.40389   0.00000  Uiso   1.00
C511   C     0.60168   0.01954   0.36486   0.00000  Uiso   1.00
C512   C     0.54870   0.31047   0.39555   0.00000  Uiso   1.00
C513   C     0.58487   0.35186   0.41732   0.00000  Uiso   1.00
C514   C     0.63307   0.41736   0.36806   0.00000  Uiso   1.00
C515   C     0.71672   0.52766   0.30830   0.00000  Uiso   1.00
C516   C     0.42543   0.23983   0.43132   0.00000  Uiso   1.00
C517   C     0.35796   0.22186   0.48316   0.00000  Uiso   1.00
C518   C     0.30239   0.22791   0.46401   0.00000  Uiso   1.00
C519   C     0.19464   0.22854   0.45979   0.00000  Uiso   1.00
C520   C     0.51496   0.27991   0.31456   0.00000  Uiso   1.00
C521   C     0.53307   0.21371   0.34037   0.00000  Uiso   1.00
C522   C     0.55839   0.17830   0.30229   0.00000  Uiso   1.00
C523   C     0.57176   0.11878   0.33523   0.00000  Uiso   1.00
C524   C     0.56025   0.33368   0.32701   0.00000  Uiso   1.00
C525   C     0.60841   0.39914   0.27770   0.00000  Uiso   1.00
C526   C     0.64465   0.44062   0.29939   0.00000  Uiso   1.00
C527   C     0.43698   0.26305   0.36278   0.00000  Uiso   1.00
C528   C     0.38150   0.26914   0.34354   0.00000  Uiso   1.00
C529   C     0.31396   0.25117   0.39534   0.00000  Uiso   1.00
H530   H     0.48469   0.21910   0.49412   0.00000  Uiso   1.00
H531   H     0.52591   0.11307   0.49495   0.00000  Uiso   1.00
H532   H     0.57591   0.33388   0.47037   0.00000  Uiso   1.00
H533   H     0.34904   0.20389   0.53620   0.00000  Uiso   1.00
H534   H     0.57673   0.00577   0.46564   0.00000  Uiso   1.00
H535   H     0.68214   0.47137   0.41381   0.00000  Uiso   1.00
H536   H     0.20374   0.19727   0.55263   0.00000  Uiso   1.00
H537   H     0.52396   0.29798   0.26120   0.00000  Uiso   1.00
H538   H     0.56733   0.19628   0.24925   0.00000  Uiso   1.00
H539   H     0.61733   0.41709   0.22467   0.00000  Uiso   1.00
H540   H     0.39046   0.28710   0.29050   0.00000  Uiso   1.00
H541   H     0.61035   0.07331   0.26622   0.00000  Uiso   1.00
H542   H     0.71576   0.53891   0.21439   0.00000  Uiso   1.00
H543   H     0.23736   0.26481   0.35320   0.00000  Uiso   1.00
O544   O     0.62138   0.97123   0.36227   0.00000  Uiso   1.00
O545   O     0.75967   0.58208   0.29427   0.00000  Uiso   1.00
O546   O     0.13202   0.22246   0.47639   0.00000  Uiso   1.00
N547   N     0.57867   0.03562   0.42035   0.00000  Uiso   1.00
N548   N     0.67724   0.47092   0.37189   0.00000  Uiso   1.00
N549   N     0.22998   0.21467   0.50167   0.00000  Uiso   1.00
N550   N     0.59676   0.07196   0.31304   0.00000  Uiso   1.00
N551   N     0.69533   0.50726   0.26458   0.00000  Uiso   1.00
N552   N     0.24807   0.25102   0.39436   0.00000  Uiso   1.00
