data_job_07055
_audit_creation_date              2018-12-19
_audit_creation_method            'Materials Studio'
_symmetry_space_group_name_H-M    'P1'
_symmetry_Int_Tables_number       1
_symmetry_cell_setting            triclinic
loop_
_symmetry_equiv_pos_as_xyz
  x,y,z
_cell_length_a                    18.6966
_cell_length_b                    21.7720
_cell_length_c                    24.0441
_cell_angle_alpha                 80.7107
_cell_angle_beta                  67.1981
_cell_angle_gamma                 88.9510
loop_
_atom_site_label
_atom_site_type_symbol
_atom_site_fract_x
_atom_site_fract_y
_atom_site_fract_z
_atom_site_U_iso_or_equiv
_atom_site_adp_type
_atom_site_occupancy
C1     C     0.16296   0.29675   0.63734   0.00000  Uiso   1.00
C2     C     0.19165   0.23599   0.66088   0.00000  Uiso   1.00
C3     C     0.14500   0.18536   0.70003   0.00000  Uiso   1.00
C4     C     0.18242   0.13413   0.71622   0.00000  Uiso   1.00
C5     C     0.21463   0.03988   0.75616   0.00000  Uiso   1.00
C6     C     0.19890   0.34855   0.65544   0.00000  Uiso   1.00
C7     C     0.15834   0.39255   0.69002   0.00000  Uiso   1.00
C8     C     0.20187   0.43607   0.70163   0.00000  Uiso   1.00
C9     C     0.24533   0.51659   0.73309   0.00000  Uiso   1.00
C10    C     0.20072   0.30506   0.56771   0.00000  Uiso   1.00
C11    C     0.16170   0.31253   0.52851   0.00000  Uiso   1.00
C12    C     0.20676   0.31946   0.46625   0.00000  Uiso   1.00
C13    C     0.25306   0.33247   0.36150   0.00000  Uiso   1.00
C14    C     0.31238   0.29580   0.59647   0.00000  Uiso   1.00
C15    C     0.27281   0.23548   0.63867   0.00000  Uiso   1.00
C16    C     0.31032   0.18431   0.65481   0.00000  Uiso   1.00
C17    C     0.26373   0.13361   0.69398   0.00000  Uiso   1.00
C18    C     0.28006   0.34803   0.63324   0.00000  Uiso   1.00
C19    C     0.32366   0.39150   0.64480   0.00000  Uiso   1.00
C20    C     0.28317   0.43556   0.67939   0.00000  Uiso   1.00
C21    C     0.28188   0.30455   0.54550   0.00000  Uiso   1.00
C22    C     0.32702   0.31147   0.48329   0.00000  Uiso   1.00
C23    C     0.28807   0.31894   0.44401   0.00000  Uiso   1.00
H24    H     0.09977   0.29716   0.65463   0.00000  Uiso   1.00
H25    H     0.08219   0.18578   0.71720   0.00000  Uiso   1.00
H26    H     0.09553   0.39294   0.70719   0.00000  Uiso   1.00
H27    H     0.09889   0.31293   0.54571   0.00000  Uiso   1.00
H28    H     0.09849   0.06209   0.77681   0.00000  Uiso   1.00
H29    H     0.12662   0.49891   0.75567   0.00000  Uiso   1.00
H30    H     0.13370   0.33018   0.41516   0.00000  Uiso   1.00
H31    H     0.37557   0.29540   0.57918   0.00000  Uiso   1.00
H32    H     0.37313   0.18392   0.63762   0.00000  Uiso   1.00
H33    H     0.38647   0.39109   0.62761   0.00000  Uiso   1.00
H34    H     0.38983   0.31107   0.46613   0.00000  Uiso   1.00
H35    H     0.33462   0.06058   0.71222   0.00000  Uiso   1.00
H36    H     0.36275   0.49740   0.69108   0.00000  Uiso   1.00
H37    H     0.36984   0.32868   0.35057   0.00000  Uiso   1.00
O38    O     0.20997   0.98804   0.78433   0.00000  Uiso   1.00
O39    O     0.24688   0.56114   0.75659   0.00000  Uiso   1.00
O40    O     0.25617   0.33977   0.30985   0.00000  Uiso   1.00
N41    N     0.15440   0.07702   0.75358   0.00000  Uiso   1.00
N42    N     0.18070   0.48542   0.73383   0.00000  Uiso   1.00
N43    N     0.18732   0.32769   0.41547   0.00000  Uiso   1.00
N44    N     0.28146   0.07621   0.71882   0.00000  Uiso   1.00
N45    N     0.30776   0.48461   0.69907   0.00000  Uiso   1.00
N46    N     0.31439   0.32688   0.38072   0.00000  Uiso   1.00
C47    C     0.20355   0.12246   0.36335   0.00000  Uiso   1.00
C48    C     0.15375   0.09939   0.33280   0.00000  Uiso   1.00
C49    C     0.13688   0.13375   0.28590   0.00000  Uiso   1.00
C50    C     0.09025   0.10425   0.26416   0.00000  Uiso   1.00
C51    C     0.01726   0.07782   0.21303   0.00000  Uiso   1.00
C52    C     0.15276   0.11354   0.43155   0.00000  Uiso   1.00
C53    C     0.13507   0.15980   0.46768   0.00000  Uiso   1.00
C54    C     0.08762   0.14221   0.52908   0.00000  Uiso   1.00
C55    C     0.01314   0.13773   0.63128   0.00000  Uiso   1.00
C56    C     0.26794   0.07668   0.35641   0.00000  Uiso   1.00
C57    C     0.34710   0.09195   0.32938   0.00000  Uiso   1.00
C58    C     0.39664   0.04332   0.32752   0.00000  Uiso   1.00
C59    C     0.50100   0.98161   0.31306   0.00000  Uiso   1.00
C60    C     0.15075   0.00895   0.40815   0.00000  Uiso   1.00
C61    C     0.12507   0.03773   0.35713   0.00000  Uiso   1.00
C62    C     0.07846   0.00817   0.33546   0.00000  Uiso   1.00
C63    C     0.06153   0.04249   0.28853   0.00000  Uiso   1.00
C64    C     0.12408   0.05189   0.45589   0.00000  Uiso   1.00
C65    C     0.07666   0.03422   0.51725   0.00000  Uiso   1.00
C66    C     0.05889   0.08044   0.55346   0.00000  Uiso   1.00
C67    C     0.23927   0.01502   0.38074   0.00000  Uiso   1.00
C68    C     0.28869   0.96636   0.37894   0.00000  Uiso   1.00
C69    C     0.36791   0.98155   0.35190   0.00000  Uiso   1.00
H70    H     0.22587   0.17046   0.34441   0.00000  Uiso   1.00
H71    H     0.15907   0.18147   0.26708   0.00000  Uiso   1.00
H72    H     0.15727   0.20751   0.44884   0.00000  Uiso   1.00
H73    H     0.36927   0.13966   0.31055   0.00000  Uiso   1.00
H74    H     0.07235   0.16649   0.19209   0.00000  Uiso   1.00
H75    H     0.06858   0.22139   0.57534   0.00000  Uiso   1.00
H76    H     0.51562   0.07833   0.28374   0.00000  Uiso   1.00
H77    H     0.12843   0.96095   0.42710   0.00000  Uiso   1.00
H78    H     0.05628   0.96046   0.35430   0.00000  Uiso   1.00
H79    H     0.05448   0.98650   0.53606   0.00000  Uiso   1.00
H80    H     0.26648   0.91866   0.39777   0.00000  Uiso   1.00
H81    H     0.98891   0.98711   0.26288   0.00000  Uiso   1.00
H82    H     0.98515   0.04201   0.64614   0.00000  Uiso   1.00
H83    H     0.43219   0.89895   0.35453   0.00000  Uiso   1.00
O84    O     0.98491   0.08027   0.17812   0.00000  Uiso   1.00
O85    O     0.97998   0.15229   0.68093   0.00000  Uiso   1.00
O86    O     0.56648   0.96460   0.29835   0.00000  Uiso   1.00
N87    N     0.06262   0.12434   0.21873   0.00000  Uiso   1.00
N88    N     0.05909   0.17567   0.57705   0.00000  Uiso   1.00
N89    N     0.47704   0.04192   0.30444   0.00000  Uiso   1.00
N90    N     0.01773   0.02782   0.25682   0.00000  Uiso   1.00
N91    N     0.01420   0.07915   0.61514   0.00000  Uiso   1.00
N92    N     0.43214   0.94540   0.34253   0.00000  Uiso   1.00
C93    C     0.48463   0.54785   0.16384   0.00000  Uiso   1.00
C94    C     0.55744   0.55942   0.17548   0.00000  Uiso   1.00
C95    C     0.55987   0.58503   0.22400   0.00000  Uiso   1.00
C96    C     0.63219   0.59179   0.22654   0.00000  Uiso   1.00
C97    C     0.73499   0.61255   0.25136   0.00000  Uiso   1.00
C98    C     0.50007   0.58249   0.09958   0.00000  Uiso   1.00
C99    C     0.45426   0.62749   0.08427   0.00000  Uiso   1.00
C100   C     0.47828   0.65367   0.02291   0.00000  Uiso   1.00
C101   C     0.49199   0.71020   0.92988   0.00000  Uiso   1.00
C102   C     0.48144   0.47869   0.16042   0.00000  Uiso   1.00
C103   C     0.41995   0.43641   0.19626   0.00000  Uiso   1.00
C104   C     0.42827   0.37520   0.18611   0.00000  Uiso   1.00
C105   C     0.41304   0.27057   0.18754   0.00000  Uiso   1.00
C106   C     0.60874   0.51432   0.08207   0.00000  Uiso   1.00
C107   C     0.62485   0.54120   0.13107   0.00000  Uiso   1.00
C108   C     0.69718   0.54793   0.13354   0.00000  Uiso   1.00
C109   C     0.69972   0.57354   0.18205   0.00000  Uiso   1.00
C110   C     0.56748   0.56427   0.05516   0.00000  Uiso   1.00
C111   C     0.59157   0.59039   0.99381   0.00000  Uiso   1.00
C112   C     0.54581   0.63542   0.97841   0.00000  Uiso   1.00
C113   C     0.54884   0.46047   0.11601   0.00000  Uiso   1.00
C114   C     0.55726   0.39931   0.10579   0.00000  Uiso   1.00
C115   C     0.49580   0.35696   0.14161   0.00000  Uiso   1.00
H116   H     0.43215   0.56204   0.19841   0.00000  Uiso   1.00
H117   H     0.50769   0.59912   0.25836   0.00000  Uiso   1.00
H118   H     0.40210   0.64157   0.11865   0.00000  Uiso   1.00
H119   H     0.36780   0.45053   0.23062   0.00000  Uiso   1.00
H120   H     0.62118   0.63223   0.30522   0.00000  Uiso   1.00
H121   H     0.39851   0.72172   0.01064   0.00000  Uiso   1.00
H122   H     0.32617   0.31886   0.24675   0.00000  Uiso   1.00
H123   H     0.66122   0.50014   0.04749   0.00000  Uiso   1.00
H124   H     0.74933   0.53383   0.09916   0.00000  Uiso   1.00
H125   H     0.64373   0.57628   0.95945   0.00000  Uiso   1.00
H126   H     0.60943   0.38523   0.07142   0.00000  Uiso   1.00
H127   H     0.81730   0.57924   0.17601   0.00000  Uiso   1.00
H128   H     0.59463   0.66872   0.88142   0.00000  Uiso   1.00
H129   H     0.52229   0.26587   0.11754   0.00000  Uiso   1.00
O130   O     0.77307   0.62903   0.27731   0.00000  Uiso   1.00
O131   O     0.48093   0.74643   0.89083   0.00000  Uiso   1.00
O132   O     0.38602   0.21789   0.20061   0.00000  Uiso   1.00
N133   N     0.65524   0.61512   0.26773   0.00000  Uiso   1.00
N134   N     0.44706   0.69880   0.99231   0.00000  Uiso   1.00
N135   N     0.37942   0.32216   0.21304   0.00000  Uiso   1.00
N136   N     0.76077   0.58661   0.19820   0.00000  Uiso   1.00
N137   N     0.55259   0.67028   0.92278   0.00000  Uiso   1.00
N138   N     0.48495   0.29365   0.14351   0.00000  Uiso   1.00
C139   C     0.59893   0.97244   0.79566   0.00000  Uiso   1.00
C140   C     0.65708   0.02799   0.76529   0.00000  Uiso   1.00
C141   C     0.68650   0.05330   0.70351   0.00000  Uiso   1.00
C142   C     0.73909   0.10408   0.68474   0.00000  Uiso   1.00
C143   C     0.82596   0.18662   0.63126   0.00000  Uiso   1.00
C144   C     0.53057   0.99526   0.84622   0.00000  Uiso   1.00
C145   C     0.45364   0.99303   0.85250   0.00000  Uiso   1.00
C146   C     0.39974   0.01625   0.90186   0.00000  Uiso   1.00
C147   C     0.29019   0.04793   0.97406   0.00000  Uiso   1.00
C148   C     0.63728   0.92505   0.82790   0.00000  Uiso   1.00
C149   C     0.65004   0.86379   0.81879   0.00000  Uiso   1.00
C150   C     0.68596   0.82789   0.85274   0.00000  Uiso   1.00
C151   C     0.74209   0.75056   0.89649   0.00000  Uiso   1.00
C152   C     0.64000   0.01762   0.87216   0.00000  Uiso   1.00
C153   C     0.67938   0.05253   0.80684   0.00000  Uiso   1.00
C154   C     0.73195   0.10328   0.78816   0.00000  Uiso   1.00
C155   C     0.76145   0.12866   0.72636   0.00000  Uiso   1.00
C156   C     0.55288   0.01980   0.88777   0.00000  Uiso   1.00
C157   C     0.49908   0.04302   0.93714   0.00000  Uiso   1.00
C158   C     0.42208   0.04084   0.94349   0.00000  Uiso   1.00
C159   C     0.65959   0.94959   0.86945   0.00000  Uiso   1.00
C160   C     0.69549   0.91378   0.90343   0.00000  Uiso   1.00
C161   C     0.70831   0.85248   0.89437   0.00000  Uiso   1.00
H162   H     0.58156   0.95334   0.76331   0.00000  Uiso   1.00
H163   H     0.66922   0.03430   0.67137   0.00000  Uiso   1.00
H164   H     0.43639   0.97403   0.82034   0.00000  Uiso   1.00
H165   H     0.63277   0.84481   0.78663   0.00000  Uiso   1.00
H166   H     0.77623   0.13489   0.58777   0.00000  Uiso   1.00
H167   H     0.28529   0.00781   0.90188   0.00000  Uiso   1.00
H168   H     0.69939   0.73531   0.83080   0.00000  Uiso   1.00
H169   H     0.65737   0.03673   0.90452   0.00000  Uiso   1.00
H170   H     0.74920   0.12226   0.82032   0.00000  Uiso   1.00
H171   H     0.51636   0.06200   0.96929   0.00000  Uiso   1.00
H172   H     0.71274   0.93278   0.93558   0.00000  Uiso   1.00
H173   H     0.84114   0.20629   0.70866   0.00000  Uiso   1.00
H174   H     0.35019   0.07920   0.02278   0.00000  Uiso   1.00
H175   H     0.76430   0.80672   0.95170   0.00000  Uiso   1.00
O176   O     0.86770   0.22537   0.59028   0.00000  Uiso   1.00
O177   O     0.22361   0.05862   0.00240   0.00000  Uiso   1.00
O178   O     0.76690   0.70113   0.90914   0.00000  Uiso   1.00
N179   N     0.77891   0.13995   0.62777   0.00000  Uiso   1.00
N180   N     0.31992   0.02114   0.92144   0.00000  Uiso   1.00
N181   N     0.70705   0.76638   0.85501   0.00000  Uiso   1.00
N182   N     0.81384   0.17837   0.69282   0.00000  Uiso   1.00
N183   N     0.35484   0.05956   0.98650   0.00000  Uiso   1.00
N184   N     0.74198   0.80480   0.92006   0.00000  Uiso   1.00
C185   C     0.36380   0.81209   0.68175   0.00000  Uiso   1.00
C186   C     0.33174   0.76135   0.65958   0.00000  Uiso   1.00
C187   C     0.25881   0.73126   0.68946   0.00000  Uiso   1.00
C188   C     0.24044   0.68619   0.66170   0.00000  Uiso   1.00
C189   C     0.18263   0.60962   0.63573   0.00000  Uiso   1.00
C190   C     0.38662   0.86796   0.63008   0.00000  Uiso   1.00
C191   C     0.35985   0.92751   0.63516   0.00000  Uiso   1.00
C192   C     0.38769   0.97219   0.58256   0.00000  Uiso   1.00
C193   C     0.41514   0.06115   0.51080   0.00000  Uiso   1.00
C194   C     0.43953   0.78879   0.68539   0.00000  Uiso   1.00
C195   C     0.45725   0.78177   0.73696   0.00000  Uiso   1.00
C196   C     0.52963   0.75981   0.73092   0.00000  Uiso   1.00
C197   C     0.63922   0.72583   0.74503   0.00000  Uiso   1.00
C198   C     0.46084   0.78557   0.57932   0.00000  Uiso   1.00
C199   C     0.38445   0.74695   0.60395   0.00000  Uiso   1.00
C200   C     0.36619   0.70192   0.57614   0.00000  Uiso   1.00
C201   C     0.29325   0.67176   0.60597   0.00000  Uiso   1.00
C202   C     0.43934   0.85356   0.57445   0.00000  Uiso   1.00
C203   C     0.46722   0.89817   0.52184   0.00000  Uiso   1.00
C204   C     0.44050   0.95776   0.52683   0.00000  Uiso   1.00
C205   C     0.49224   0.77438   0.62975   0.00000  Uiso   1.00
C206   C     0.56462   0.75243   0.62364   0.00000  Uiso   1.00
C207   C     0.58244   0.74538   0.67519   0.00000  Uiso   1.00
H208   H     0.32276   0.82331   0.72506   0.00000  Uiso   1.00
H209   H     0.21803   0.74242   0.73251   0.00000  Uiso   1.00
H210   H     0.31907   0.93864   0.67821   0.00000  Uiso   1.00
H211   H     0.41644   0.79292   0.78000   0.00000  Uiso   1.00
H212   H     0.12516   0.64641   0.71622   0.00000  Uiso   1.00
H213   H     0.33821   0.06016   0.60175   0.00000  Uiso   1.00
H214   H     0.54355   0.75289   0.81638   0.00000  Uiso   1.00
H215   H     0.50189   0.77436   0.53601   0.00000  Uiso   1.00
H216   H     0.40699   0.69078   0.53309   0.00000  Uiso   1.00
H217   H     0.50802   0.88701   0.47879   0.00000  Uiso   1.00
H218   H     0.60539   0.74129   0.58058   0.00000  Uiso   1.00
H219   H     0.27852   0.60450   0.55436   0.00000  Uiso   1.00
H220   H     0.49158   0.01825   0.43989   0.00000  Uiso   1.00
H221   H     0.69691   0.71098   0.65452   0.00000  Uiso   1.00
O222   O     0.13618   0.57137   0.63677   0.00000  Uiso   1.00
O223   O     0.41570   0.11420   0.48659   0.00000  Uiso   1.00
O224   O     0.68510   0.71106   0.76818   0.00000  Uiso   1.00
N225   N     0.17429   0.64801   0.67853   0.00000  Uiso   1.00
N226   N     0.37347   0.03483   0.57151   0.00000  Uiso   1.00
N227   N     0.56545   0.74758   0.77217   0.00000  Uiso   1.00
N228   N     0.25681   0.62545   0.59144   0.00000  Uiso   1.00
N229   N     0.45599   0.01228   0.48441   0.00000  Uiso   1.00
N230   N     0.64797   0.72503   0.68507   0.00000  Uiso   1.00
C231   C     0.93838   0.52079   0.25384   0.00000  Uiso   1.00
C232   C     0.00958   0.50967   0.26963   0.00000  Uiso   1.00
C233   C     0.04104   0.55007   0.29423   0.00000  Uiso   1.00
C234   C     0.10630   0.53137   0.30541   0.00000  Uiso   1.00
C235   C     0.21188   0.52276   0.33194   0.00000  Uiso   1.00
C236   C     0.88179   0.46517   0.28916   0.00000  Uiso   1.00
C237   C     0.80581   0.46816   0.33017   0.00000  Uiso   1.00
C238   C     0.76350   0.41200   0.35779   0.00000  Uiso   1.00
C239   C     0.67067   0.33432   0.41460   0.00000  Uiso   1.00
C240   C     0.96484   0.51554   0.18637   0.00000  Uiso   1.00
C241   C     0.95866   0.56088   0.14094   0.00000  Uiso   1.00
C242   C     0.98625   0.54713   0.08202   0.00000  Uiso   1.00
C243   C     0.02236   0.54765   0.97923   0.00000  Uiso   1.00
C244   C     0.99833   0.41574   0.22997   0.00000  Uiso   1.00
C245   C     0.04214   0.45261   0.25667   0.00000  Uiso   1.00
C246   C     0.10737   0.43385   0.26782   0.00000  Uiso   1.00
C247   C     0.13892   0.47421   0.29242   0.00000  Uiso   1.00
C248   C     0.91435   0.40811   0.27620   0.00000  Uiso   1.00
C249   C     0.87214   0.35194   0.30376   0.00000  Uiso   1.00
C250   C     0.79612   0.35484   0.34480   0.00000  Uiso   1.00
C251   C     0.99740   0.45849   0.17340   0.00000  Uiso   1.00
C252   C     0.02499   0.44466   0.11454   0.00000  Uiso   1.00
C253   C     0.01887   0.48997   0.06903   0.00000  Uiso   1.00
H254   H     0.91302   0.56521   0.26393   0.00000  Uiso   1.00
H255   H     0.01582   0.59422   0.30426   0.00000  Uiso   1.00
H256   H     0.78063   0.51232   0.34019   0.00000  Uiso   1.00
H257   H     0.93346   0.60503   0.15099   0.00000  Uiso   1.00
H258   H     0.14413   0.60120   0.34327   0.00000  Uiso   1.00
H259   H     0.64821   0.42853   0.41901   0.00000  Uiso   1.00
H260   H     0.97048   0.62401   0.02006   0.00000  Uiso   1.00
H261   H     0.02368   0.37132   0.21988   0.00000  Uiso   1.00
H262   H     0.13255   0.38969   0.25778   0.00000  Uiso   1.00
H263   H     0.89736   0.30779   0.29371   0.00000  Uiso   1.00
H264   H     0.05019   0.40050   0.10452   0.00000  Uiso   1.00
H265   H     0.23888   0.43520   0.30555   0.00000  Uiso   1.00
H266   H     0.74295   0.26252   0.38129   0.00000  Uiso   1.00
H267   H     0.06523   0.45801   0.98234   0.00000  Uiso   1.00
O268   O     0.26111   0.53378   0.35016   0.00000  Uiso   1.00
O269   O     0.61048   0.30723   0.44952   0.00000  Uiso   1.00
O270   O     0.03329   0.56371   0.92611   0.00000  Uiso   1.00
N271   N     0.15150   0.55962   0.32918   0.00000  Uiso   1.00
N272   N     0.68784   0.39818   0.40000   0.00000  Uiso   1.00
N273   N     0.98912   0.58094   0.02702   0.00000  Uiso   1.00
N274   N     0.20248   0.47030   0.30888   0.00000  Uiso   1.00
N275   N     0.73882   0.30885   0.37971   0.00000  Uiso   1.00
N276   N     0.04010   0.49161   0.00672   0.00000  Uiso   1.00
C277   C     0.68014   0.50997   0.61333   0.00000  Uiso   1.00
C278   C     0.71813   0.54681   0.54871   0.00000  Uiso   1.00
C279   C     0.79181   0.57589   0.52303   0.00000  Uiso   1.00
C280   C     0.81598   0.60726   0.46325   0.00000  Uiso   1.00
C281   C     0.88226   0.66412   0.36789   0.00000  Uiso   1.00
C282   C     0.65821   0.44548   0.60607   0.00000  Uiso   1.00
C283   C     0.68149   0.38936   0.62863   0.00000  Uiso   1.00
C284   C     0.65520   0.33543   0.61715   0.00000  Uiso   1.00
C285   C     0.62841   0.23496   0.61089   0.00000  Uiso   1.00
C286   C     0.60372   0.54034   0.64374   0.00000  Uiso   1.00
C287   C     0.58117   0.56396   0.69799   0.00000  Uiso   1.00
C288   C     0.50899   0.58987   0.71823   0.00000  Uiso   1.00
C289   C     0.39760   0.63669   0.77047   0.00000  Uiso   1.00
C290   C     0.59205   0.51396   0.55282   0.00000  Uiso   1.00
C291   C     0.67029   0.54898   0.51584   0.00000  Uiso   1.00
C292   C     0.69435   0.58032   0.45608   0.00000  Uiso   1.00
C293   C     0.76804   0.60944   0.43032   0.00000  Uiso   1.00
C294   C     0.61037   0.44765   0.57320   0.00000  Uiso   1.00
C295   C     0.58403   0.39379   0.56169   0.00000  Uiso   1.00
C296   C     0.60727   0.33760   0.58422   0.00000  Uiso   1.00
C297   C     0.55587   0.54251   0.61088   0.00000  Uiso   1.00
C298   C     0.48372   0.56839   0.63104   0.00000  Uiso   1.00
C299   C     0.46106   0.59205   0.68531   0.00000  Uiso   1.00
H300   H     0.71739   0.50827   0.63892   0.00000  Uiso   1.00
H301   H     0.82882   0.57420   0.54848   0.00000  Uiso   1.00
H302   H     0.71851   0.38770   0.65407   0.00000  Uiso   1.00
H303   H     0.61821   0.56227   0.72341   0.00000  Uiso   1.00
H304   H     0.93127   0.64823   0.43371   0.00000  Uiso   1.00
H305   H     0.69866   0.25498   0.65637   0.00000  Uiso   1.00
H306   H     0.48715   0.62310   0.80260   0.00000  Uiso   1.00
H307   H     0.55480   0.51565   0.52723   0.00000  Uiso   1.00
H308   H     0.65731   0.58199   0.43066   0.00000  Uiso   1.00
H309   H     0.54700   0.39548   0.53625   0.00000  Uiso   1.00
H310   H     0.44670   0.57006   0.60560   0.00000  Uiso   1.00
H311   H     0.79207   0.65455   0.33808   0.00000  Uiso   1.00
H312   H     0.55945   0.26130   0.56075   0.00000  Uiso   1.00
H313   H     0.34795   0.62942   0.70697   0.00000  Uiso   1.00
O314   O     0.93205   0.69487   0.32438   0.00000  Uiso   1.00
O315   O     0.62686   0.17895   0.61651   0.00000  Uiso   1.00
O316   O     0.34937   0.66192   0.80835   0.00000  Uiso   1.00
N317   N     0.88443   0.64062   0.42446   0.00000  Uiso   1.00
N318   N     0.66697   0.27296   0.63263   0.00000  Uiso   1.00
N319   N     0.46922   0.61711   0.76935   0.00000  Uiso   1.00
N320   N     0.80953   0.64402   0.37300   0.00000  Uiso   1.00
N321   N     0.59206   0.27636   0.58117   0.00000  Uiso   1.00
N322   N     0.39432   0.62051   0.71789   0.00000  Uiso   1.00
C323   C     0.02992   0.76235   0.68278   0.00000  Uiso   1.00
C324   C     0.04079   0.76599   0.74184   0.00000  Uiso   1.00
C325   C     0.03449   0.71605   0.78763   0.00000  Uiso   1.00
C326   C     0.04656   0.72905   0.83808   0.00000  Uiso   1.00
C327   C     0.06079   0.72545   0.92911   0.00000  Uiso   1.00
C328   C     0.10466   0.79070   0.63077   0.00000  Uiso   1.00
C329   C     0.15204   0.76154   0.58317   0.00000  Uiso   1.00
C330   C     0.21787   0.79534   0.54011   0.00000  Uiso   1.00
C331   C     0.33122   0.83012   0.45867   0.00000  Uiso   1.00
C332   C     0.96667   0.80704   0.68131   0.00000  Uiso   1.00
C333   C     0.89804   0.79162   0.67618   0.00000  Uiso   1.00
C334   C     0.84770   0.83919   0.67566   0.00000  Uiso   1.00
C335   C     0.74680   0.89934   0.67269   0.00000  Uiso   1.00
C336   C     0.06256   0.87425   0.69095   0.00000  Uiso   1.00
C337   C     0.05853   0.82677   0.74628   0.00000  Uiso   1.00
C338   C     0.07060   0.83985   0.79667   0.00000  Uiso   1.00
C339   C     0.06432   0.78993   0.84253   0.00000  Uiso   1.00
C340   C     0.12239   0.85148   0.63521   0.00000  Uiso   1.00
C341   C     0.18816   0.88533   0.59221   0.00000  Uiso   1.00
C342   C     0.23563   0.85623   0.54456   0.00000  Uiso   1.00
C343   C     0.98440   0.86782   0.68575   0.00000  Uiso   1.00
C344   C     0.93416   0.91542   0.68523   0.00000  Uiso   1.00
C345   C     0.86546   0.90007   0.68011   0.00000  Uiso   1.00
H346   H     0.01612   0.71504   0.67932   0.00000  Uiso   1.00
H347   H     0.02078   0.66902   0.78418   0.00000  Uiso   1.00
H348   H     0.13830   0.71451   0.57975   0.00000  Uiso   1.00
H349   H     0.88434   0.74459   0.67275   0.00000  Uiso   1.00
H350   H     0.03379   0.64481   0.90238   0.00000  Uiso   1.00
H351   H     0.28159   0.74072   0.47131   0.00000  Uiso   1.00
H352   H     0.74606   0.80415   0.66743   0.00000  Uiso   1.00
H353   H     0.07636   0.92156   0.69440   0.00000  Uiso   1.00
H354   H     0.08432   0.88688   0.80009   0.00000  Uiso   1.00
H355   H     0.20186   0.93237   0.59566   0.00000  Uiso   1.00
H356   H     0.94789   0.96245   0.68866   0.00000  Uiso   1.00
H357   H     0.08537   0.82163   0.91530   0.00000  Uiso   1.00
H358   H     0.33318   0.91754   0.48422   0.00000  Uiso   1.00
H359   H     0.79764   0.98097   0.68034   0.00000  Uiso   1.00
O360   O     0.06376   0.70667   0.97808   0.00000  Uiso   1.00
O361   O     0.38886   0.83251   0.41253   0.00000  Uiso   1.00
O362   O     0.68625   0.91573   0.66984   0.00000  Uiso   1.00
N363   N     0.04482   0.69118   0.89092   0.00000  Uiso   1.00
N364   N     0.27651   0.78085   0.48790   0.00000  Uiso   1.00
N365   N     0.77584   0.84016   0.67124   0.00000  Uiso   1.00
N366   N     0.07257   0.78633   0.89787   0.00000  Uiso   1.00
N367   N     0.30426   0.87600   0.49485   0.00000  Uiso   1.00
N368   N     0.80360   0.93530   0.67819   0.00000  Uiso   1.00
C369   C     0.60002   0.25975   0.87555   0.00000  Uiso   1.00
C370   C     0.54671   0.22693   0.85386   0.00000  Uiso   1.00
C371   C     0.57059   0.19625   0.80381   0.00000  Uiso   1.00
C372   C     0.51284   0.16919   0.79152   0.00000  Uiso   1.00
C373   C     0.44205   0.11766   0.75231   0.00000  Uiso   1.00
C374   C     0.57933   0.23012   0.94215   0.00000  Uiso   1.00
C375   C     0.63064   0.20213   0.96632   0.00000  Uiso   1.00
C376   C     0.60034   0.17775   0.02836   0.00000  Uiso   1.00
C377   C     0.58021   0.13121   0.12622   0.00000  Uiso   1.00
C378   C     0.57462   0.32665   0.87669   0.00000  Uiso   1.00
C379   C     0.62198   0.37984   0.84584   0.00000  Uiso   1.00
C380   C     0.58771   0.43674   0.85277   0.00000  Uiso   1.00
C381   C     0.56027   0.54009   0.84900   0.00000  Uiso   1.00
C382   C     0.45498   0.26624   0.94273   0.00000  Uiso   1.00
C383   C     0.46793   0.23045   0.89035   0.00000  Uiso   1.00
C384   C     0.41012   0.20343   0.87813   0.00000  Uiso   1.00
C385   C     0.43391   0.17272   0.82807   0.00000  Uiso   1.00
C386   C     0.50055   0.23364   0.97864   0.00000  Uiso   1.00
C387   C     0.47017   0.20930   0.04065   0.00000  Uiso   1.00
C388   C     0.52142   0.18128   0.06491   0.00000  Uiso   1.00
C389   C     0.49584   0.33018   0.91318   0.00000  Uiso   1.00
C390   C     0.46150   0.38701   0.92016   0.00000  Uiso   1.00
C391   C     0.50879   0.44027   0.88933   0.00000  Uiso   1.00
H392   H     0.66136   0.25701   0.84715   0.00000  Uiso   1.00
H393   H     0.63157   0.19353   0.77558   0.00000  Uiso   1.00
H394   H     0.69161   0.19941   0.93808   0.00000  Uiso   1.00
H395   H     0.68294   0.37709   0.81761   0.00000  Uiso   1.00
H396   H     0.56380   0.12469   0.71235   0.00000  Uiso   1.00
H397   H     0.69041   0.13711   0.05497   0.00000  Uiso   1.00
H398   H     0.67213   0.51178   0.80095   0.00000  Uiso   1.00
H399   H     0.39364   0.26898   0.97114   0.00000  Uiso   1.00
H400   H     0.34916   0.20616   0.90638   0.00000  Uiso   1.00
H401   H     0.40920   0.21204   0.06887   0.00000  Uiso   1.00
H402   H     0.40053   0.38972   0.94840   0.00000  Uiso   1.00
H403   H     0.33458   0.13493   0.81851   0.00000  Uiso   1.00
H404   H     0.46119   0.14736   0.16114   0.00000  Uiso   1.00
H405   H     0.44291   0.52203   0.90711   0.00000  Uiso   1.00
O406   O     0.42476   0.08825   0.72060   0.00000  Uiso   1.00
O407   O     0.59087   0.10456   0.17011   0.00000  Uiso   1.00
O408   O     0.56689   0.59612   0.83683   0.00000  Uiso   1.00
N409   N     0.51596   0.13573   0.74621   0.00000  Uiso   1.00
N410   N     0.63433   0.14734   0.06655   0.00000  Uiso   1.00
N411   N     0.61724   0.49762   0.82907   0.00000  Uiso   1.00
N412   N     0.39262   0.14125   0.80334   0.00000  Uiso   1.00
N413   N     0.51099   0.15285   0.12367   0.00000  Uiso   1.00
N414   N     0.49390   0.50314   0.88619   0.00000  Uiso   1.00
C415   C     0.56086   0.81288   0.21571   0.00000  Uiso   1.00
C416   C     0.50111   0.76275   0.26021   0.00000  Uiso   1.00
C417   C     0.48220   0.74870   0.32279   0.00000  Uiso   1.00
C418   C     0.42603   0.70122   0.35553   0.00000  Uiso   1.00
C419   C     0.33874   0.62826   0.42901   0.00000  Uiso   1.00
C420   C     0.61843   0.77977   0.16680   0.00000  Uiso   1.00
C421   C     0.69817   0.78004   0.15085   0.00000  Uiso   1.00
C422   C     0.74076   0.74688   0.10495   0.00000  Uiso   1.00
C423   C     0.83562   0.70038   0.03339   0.00000  Uiso   1.00
C424   C     0.51773   0.85546   0.18370   0.00000  Uiso   1.00
C425   C     0.51282   0.91937   0.18194   0.00000  Uiso   1.00
C426   C     0.47064   0.94995   0.15026   0.00000  Uiso   1.00
C427   C     0.40915   0.02097   0.10493   0.00000  Uiso   1.00
C428   C     0.49472   0.75353   0.16257   0.00000  Uiso   1.00
C429   C     0.46518   0.73051   0.23134   0.00000  Uiso   1.00
C430   C     0.40902   0.68304   0.26400   0.00000  Uiso   1.00
C431   C     0.39004   0.66893   0.32662   0.00000  Uiso   1.00
C432   C     0.58251   0.74753   0.13794   0.00000  Uiso   1.00
C433   C     0.62499   0.71437   0.09205   0.00000  Uiso   1.00
C434   C     0.70477   0.71459   0.07604   0.00000  Uiso   1.00
C435   C     0.48180   0.82322   0.15484   0.00000  Uiso   1.00
C436   C     0.43963   0.85371   0.12315   0.00000  Uiso   1.00
C437   C     0.43465   0.91766   0.12134   0.00000  Uiso   1.00
H438   H     0.58884   0.83798   0.23818   0.00000  Uiso   1.00
H439   H     0.51003   0.77366   0.34511   0.00000  Uiso   1.00
H440   H     0.72595   0.80499   0.17319   0.00000  Uiso   1.00
H441   H     0.54063   0.94430   0.20428   0.00000  Uiso   1.00
H442   H     0.40683   0.68811   0.45093   0.00000  Uiso   1.00
H443   H     0.86213   0.75420   0.08841   0.00000  Uiso   1.00
H444   H     0.47133   0.04797   0.15397   0.00000  Uiso   1.00
H445   H     0.46675   0.72844   0.14010   0.00000  Uiso   1.00
H446   H     0.38123   0.65810   0.24165   0.00000  Uiso   1.00
H447   H     0.59717   0.68944   0.06973   0.00000  Uiso   1.00
H448   H     0.41184   0.82875   0.10082   0.00000  Uiso   1.00
H449   H     0.30230   0.59432   0.36696   0.00000  Uiso   1.00
H450   H     0.75760   0.66041   0.00443   0.00000  Uiso   1.00
H451   H     0.36680   0.95418   0.07000   0.00000  Uiso   1.00
O452   O     0.30053   0.59691   0.47752   0.00000  Uiso   1.00
O453   O     0.89787   0.68363   0.00189   0.00000  Uiso   1.00
O454   O     0.38515   0.06904   0.08791   0.00000  Uiso   1.00
N455   N     0.39395   0.67570   0.41723   0.00000  Uiso   1.00
N456   N     0.81963   0.73748   0.07830   0.00000  Uiso   1.00
N457   N     0.45428   0.01213   0.13958   0.00000  Uiso   1.00
N458   N     0.33770   0.62523   0.37205   0.00000  Uiso   1.00
N459   N     0.76338   0.68701   0.03312   0.00000  Uiso   1.00
N460   N     0.39804   0.96167   0.09440   0.00000  Uiso   1.00
C461   C     0.80784   0.09275   0.36552   0.00000  Uiso   1.00
C462   C     0.84129   0.14091   0.38958   0.00000  Uiso   1.00
C463   C     0.91481   0.17011   0.36052   0.00000  Uiso   1.00
C464   C     0.93447   0.21277   0.39002   0.00000  Uiso   1.00
C465   C     0.99434   0.28556   0.41879   0.00000  Uiso   1.00
C466   C     0.78400   0.03528   0.41544   0.00000  Uiso   1.00
C467   C     0.80933   0.97567   0.40812   0.00000  Uiso   1.00
C468   C     0.78075   0.92940   0.45938   0.00000  Uiso   1.00
C469   C     0.75163   0.83820   0.52828   0.00000  Uiso   1.00
C470   C     0.73257   0.11837   0.36286   0.00000  Uiso   1.00
C471   C     0.71466   0.12861   0.31134   0.00000  Uiso   1.00
C472   C     0.64277   0.15229   0.31834   0.00000  Uiso   1.00
C473   C     0.53380   0.19009   0.30561   0.00000  Uiso   1.00
C474   C     0.71202   0.11656   0.46957   0.00000  Uiso   1.00
C475   C     0.78925   0.15384   0.44609   0.00000  Uiso   1.00
C476   C     0.80880   0.19647   0.47564   0.00000  Uiso   1.00
C477   C     0.88233   0.22573   0.44663   0.00000  Uiso   1.00
C478   C     0.73196   0.04821   0.47195   0.00000  Uiso   1.00
C479   C     0.70332   0.00202   0.52323   0.00000  Uiso   1.00
C480   C     0.72861   0.94236   0.51600   0.00000  Uiso   1.00
C481   C     0.68053   0.13131   0.41937   0.00000  Uiso   1.00
C482   C     0.60865   0.15497   0.42646   0.00000  Uiso   1.00
C483   C     0.59063   0.16524   0.37496   0.00000  Uiso   1.00
H484   H     0.84836   0.08267   0.32153   0.00000  Uiso   1.00
H485   H     0.95507   0.16008   0.31679   0.00000  Uiso   1.00
H486   H     0.84960   0.96567   0.36438   0.00000  Uiso   1.00
H487   H     0.75494   0.11859   0.26762   0.00000  Uiso   1.00
H488   H     0.05044   0.25160   0.33647   0.00000  Uiso   1.00
H489   H     0.82803   0.84167   0.43681   0.00000  Uiso   1.00
H490   H     0.62843   0.16413   0.23277   0.00000  Uiso   1.00
H491   H     0.67150   0.12664   0.51357   0.00000  Uiso   1.00
H492   H     0.76851   0.20647   0.51937   0.00000  Uiso   1.00
H493   H     0.66305   0.01205   0.56696   0.00000  Uiso   1.00
H494   H     0.56839   0.16497   0.47019   0.00000  Uiso   1.00
H495   H     0.89903   0.28925   0.50090   0.00000  Uiso   1.00
H496   H     0.67662   0.87931   0.60123   0.00000  Uiso   1.00
H497   H     0.47701   0.20177   0.39719   0.00000  Uiso   1.00
O498   O     0.04175   0.32213   0.41905   0.00000  Uiso   1.00
O499   O     0.74995   0.78431   0.55068   0.00000  Uiso   1.00
O500   O     0.48808   0.20737   0.28298   0.00000  Uiso   1.00
N501   N     0.00149   0.24951   0.37437   0.00000  Uiso   1.00
N502   N     0.79356   0.86625   0.46818   0.00000  Uiso   1.00
N503   N     0.60694   0.16771   0.27742   0.00000  Uiso   1.00
N504   N     0.92001   0.26977   0.46284   0.00000  Uiso   1.00
N505   N     0.71208   0.88651   0.55665   0.00000  Uiso   1.00
N506   N     0.52546   0.18797   0.36589   0.00000  Uiso   1.00
C507   C     0.09032   0.25915   0.90760   0.00000  Uiso   1.00
C508   C     0.03812   0.27733   0.87273   0.00000  Uiso   1.00
C509   C     0.01989   0.24105   0.83714   0.00000  Uiso   1.00
C510   C     0.97115   0.26602   0.80894   0.00000  Uiso   1.00
C511   C     0.89460   0.28526   0.75367   0.00000  Uiso   1.00
C512   C     0.15410   0.31068   0.88493   0.00000  Uiso   1.00
C513   C     0.23339   0.30244   0.85962   0.00000  Uiso   1.00
C514   C     0.28228   0.35549   0.84170   0.00000  Uiso   1.00
C515   C     0.38580   0.42650   0.80543   0.00000  Uiso   1.00
C516   C     0.04164   0.26405   0.97419   0.00000  Uiso   1.00
C517   C     0.02637   0.21661   0.02394   0.00000  Uiso   1.00
C518   C     0.98059   0.23040   0.08117   0.00000  Uiso   1.00
C519   C     0.90949   0.22901   0.18348   0.00000  Uiso   1.00
C520   C     0.03617   0.36800   0.92080   0.00000  Uiso   1.00
C521   C     0.00871   0.33645   0.87989   0.00000  Uiso   1.00
C522   C     0.95998   0.36148   0.85174   0.00000  Uiso   1.00
C523   C     0.94168   0.32525   0.81613   0.00000  Uiso   1.00
C524   C     0.12470   0.36980   0.89210   0.00000  Uiso   1.00
C525   C     0.17348   0.42287   0.87422   0.00000  Uiso   1.00
C526   C     0.25282   0.41471   0.84889   0.00000  Uiso   1.00
C527   C     0.01222   0.32317   0.98136   0.00000  Uiso   1.00
C528   C     0.96646   0.33704   0.03853   0.00000  Uiso   1.00
C529   C     0.95113   0.28963   0.08835   0.00000  Uiso   1.00
H530   H     0.11322   0.21312   0.90202   0.00000  Uiso   1.00
H531   H     0.04267   0.19530   0.83160   0.00000  Uiso   1.00
H532   H     0.25613   0.25668   0.85408   0.00000  Uiso   1.00
H533   H     0.04914   0.17086   0.01837   0.00000  Uiso   1.00
H534   H     0.95150   0.20163   0.75667   0.00000  Uiso   1.00
H535   H     0.40160   0.33104   0.80409   0.00000  Uiso   1.00
H536   H     0.96513   0.15008   0.15053   0.00000  Uiso   1.00
H537   H     0.01328   0.41403   0.92638   0.00000  Uiso   1.00
H538   H     0.93723   0.40723   0.85730   0.00000  Uiso   1.00
H539   H     0.15070   0.46861   0.87978   0.00000  Uiso   1.00
H540   H     0.94371   0.38279   0.04407   0.00000  Uiso   1.00
H541   H     0.86592   0.37364   0.77753   0.00000  Uiso   1.00
H542   H     0.31603   0.50305   0.82495   0.00000  Uiso   1.00
H543   H     0.87955   0.32209   0.17138   0.00000  Uiso   1.00
O544   O     0.86051   0.27955   0.72120   0.00000  Uiso   1.00
O545   O     0.45102   0.44933   0.78343   0.00000  Uiso   1.00
O546   O     0.87838   0.21191   0.23793   0.00000  Uiso   1.00
N547   N     0.94178   0.24304   0.77107   0.00000  Uiso   1.00
N548   N     0.36260   0.36403   0.81540   0.00000  Uiso   1.00
N549   N     0.95455   0.19485   0.13929   0.00000  Uiso   1.00
N550   N     0.89573   0.33560   0.78229   0.00000  Uiso   1.00
N551   N     0.31655   0.45659   0.82662   0.00000  Uiso   1.00
N552   N     0.90851   0.28741   0.15051   0.00000  Uiso   1.00
