data_job_02811
_audit_creation_date              2018-12-19
_audit_creation_method            'Materials Studio'
_symmetry_space_group_name_H-M    'P1'
_symmetry_Int_Tables_number       1
_symmetry_cell_setting            triclinic
loop_
_symmetry_equiv_pos_as_xyz
  x,y,z
_cell_length_a                    7.1257
_cell_length_b                    29.8340
_cell_length_c                    41.3329
_cell_angle_alpha                 90.0000
_cell_angle_beta                  90.0000
_cell_angle_gamma                 90.0000
loop_
_atom_site_label
_atom_site_type_symbol
_atom_site_fract_x
_atom_site_fract_y
_atom_site_fract_z
_atom_site_U_iso_or_equiv
_atom_site_adp_type
_atom_site_occupancy
C1     C     0.12622   0.96226   0.58499   0.00000  Uiso   1.00
C2     C     0.26770   0.99468   0.57020   0.00000  Uiso   1.00
C3     C     0.22598   0.03610   0.55673   0.00000  Uiso   1.00
C4     C     0.37520   0.06073   0.54447   0.00000  Uiso   1.00
C5     C     0.56685   0.11353   0.52131   0.00000  Uiso   1.00
C6     C     0.15009   0.91814   0.56682   0.00000  Uiso   1.00
C7     C     0.00947   0.89522   0.55051   0.00000  Uiso   1.00
C8     C     0.05970   0.85542   0.53540   0.00000  Uiso   1.00
C9     C     0.06872   0.78938   0.50701   0.00000  Uiso   1.00
C10    C     0.19332   0.95345   0.61944   0.00000  Uiso   1.00
C11    C     0.08904   0.96020   0.64738   0.00000  Uiso   1.00
C12    C     0.17565   0.95012   0.67658   0.00000  Uiso   1.00
C13    C     0.25179   0.93890   0.72989   0.00000  Uiso   1.00
C14    C     0.46543   0.93233   0.58717   0.00000  Uiso   1.00
C15    C     0.45194   0.97842   0.57138   0.00000  Uiso   1.00
C16    C     0.60128   0.00300   0.55914   0.00000  Uiso   1.00
C17    C     0.55978   0.04445   0.54565   0.00000  Uiso   1.00
C18    C     0.33433   0.90189   0.56800   0.00000  Uiso   1.00
C19    C     0.38477   0.86211   0.55292   0.00000  Uiso   1.00
C20    C     0.24427   0.83914   0.53659   0.00000  Uiso   1.00
C21    C     0.37757   0.93720   0.62062   0.00000  Uiso   1.00
C22    C     0.46435   0.92709   0.64978   0.00000  Uiso   1.00
C23    C     0.36023   0.93383   0.67776   0.00000  Uiso   1.00
H24    H     0.98277   0.97491   0.58407   0.00000  Uiso   1.00
H25    H     0.08337   0.04867   0.55582   0.00000  Uiso   1.00
H26    H     0.86690   0.90780   0.54960   0.00000  Uiso   1.00
H27    H     0.94646   0.97278   0.64645   0.00000  Uiso   1.00
H28    H     0.27615   0.12327   0.52501   0.00000  Uiso   1.00
H29    H     0.81969   0.82624   0.51191   0.00000  Uiso   1.00
H30    H     0.98746   0.96325   0.71614   0.00000  Uiso   1.00
H31    H     0.60888   0.91968   0.58809   0.00000  Uiso   1.00
H32    H     0.74384   0.99041   0.56006   0.00000  Uiso   1.00
H33    H     0.52736   0.84954   0.55384   0.00000  Uiso   1.00
H34    H     0.60693   0.91452   0.65069   0.00000  Uiso   1.00
H35    H     0.81221   0.07598   0.52845   0.00000  Uiso   1.00
H36    H     0.35575   0.77895   0.51535   0.00000  Uiso   1.00
H37    H     0.52352   0.91596   0.71958   0.00000  Uiso   1.00
O38    O     0.62165   0.14714   0.50821   0.00000  Uiso   1.00
O39    O     0.02279   0.75745   0.49102   0.00000  Uiso   1.00
O40    O     0.24291   0.93720   0.75897   0.00000  Uiso   1.00
N41    N     0.38379   0.10244   0.52967   0.00000  Uiso   1.00
N42    N     0.95704   0.82473   0.51742   0.00000  Uiso   1.00
N43    N     0.11387   0.95282   0.70836   0.00000  Uiso   1.00
N44    N     0.67224   0.07699   0.53152   0.00000  Uiso   1.00
N45    N     0.24549   0.79929   0.51927   0.00000  Uiso   1.00
N46    N     0.40232   0.92737   0.71021   0.00000  Uiso   1.00
C47    C     0.62622   0.46226   0.58499   0.00000  Uiso   1.00
C48    C     0.76770   0.49468   0.57020   0.00000  Uiso   1.00
C49    C     0.72598   0.53610   0.55673   0.00000  Uiso   1.00
C50    C     0.87520   0.56073   0.54447   0.00000  Uiso   1.00
C51    C     0.06685   0.61353   0.52131   0.00000  Uiso   1.00
C52    C     0.65009   0.41814   0.56682   0.00000  Uiso   1.00
C53    C     0.50947   0.39522   0.55051   0.00000  Uiso   1.00
C54    C     0.55970   0.35542   0.53540   0.00000  Uiso   1.00
C55    C     0.56872   0.28938   0.50701   0.00000  Uiso   1.00
C56    C     0.69332   0.45345   0.61944   0.00000  Uiso   1.00
C57    C     0.58904   0.46020   0.64738   0.00000  Uiso   1.00
C58    C     0.67565   0.45012   0.67658   0.00000  Uiso   1.00
C59    C     0.75179   0.43890   0.72989   0.00000  Uiso   1.00
C60    C     0.96543   0.43233   0.58717   0.00000  Uiso   1.00
C61    C     0.95194   0.47842   0.57138   0.00000  Uiso   1.00
C62    C     0.10128   0.50300   0.55914   0.00000  Uiso   1.00
C63    C     0.05978   0.54445   0.54565   0.00000  Uiso   1.00
C64    C     0.83433   0.40189   0.56800   0.00000  Uiso   1.00
C65    C     0.88477   0.36211   0.55292   0.00000  Uiso   1.00
C66    C     0.74427   0.33914   0.53659   0.00000  Uiso   1.00
C67    C     0.87757   0.43720   0.62062   0.00000  Uiso   1.00
C68    C     0.96435   0.42709   0.64978   0.00000  Uiso   1.00
C69    C     0.86023   0.43383   0.67776   0.00000  Uiso   1.00
H70    H     0.48277   0.47491   0.58407   0.00000  Uiso   1.00
H71    H     0.58337   0.54867   0.55582   0.00000  Uiso   1.00
H72    H     0.36690   0.40780   0.54960   0.00000  Uiso   1.00
H73    H     0.44646   0.47278   0.64645   0.00000  Uiso   1.00
H74    H     0.77615   0.62327   0.52501   0.00000  Uiso   1.00
H75    H     0.31969   0.32624   0.51191   0.00000  Uiso   1.00
H76    H     0.48746   0.46325   0.71614   0.00000  Uiso   1.00
H77    H     0.10888   0.41968   0.58809   0.00000  Uiso   1.00
H78    H     0.24384   0.49041   0.56006   0.00000  Uiso   1.00
H79    H     0.02736   0.34954   0.55384   0.00000  Uiso   1.00
H80    H     0.10693   0.41452   0.65069   0.00000  Uiso   1.00
H81    H     0.31221   0.57598   0.52845   0.00000  Uiso   1.00
H82    H     0.85575   0.27895   0.51535   0.00000  Uiso   1.00
H83    H     0.02352   0.41596   0.71958   0.00000  Uiso   1.00
O84    O     0.12165   0.64714   0.50821   0.00000  Uiso   1.00
O85    O     0.52279   0.25745   0.49102   0.00000  Uiso   1.00
O86    O     0.74291   0.43720   0.75897   0.00000  Uiso   1.00
N87    N     0.88379   0.60244   0.52967   0.00000  Uiso   1.00
N88    N     0.45704   0.32473   0.51742   0.00000  Uiso   1.00
N89    N     0.61387   0.45282   0.70836   0.00000  Uiso   1.00
N90    N     0.17224   0.57699   0.53152   0.00000  Uiso   1.00
N91    N     0.74549   0.29929   0.51927   0.00000  Uiso   1.00
N92    N     0.90232   0.42737   0.71021   0.00000  Uiso   1.00
C93    C     0.87378   0.03774   0.08499   0.00000  Uiso   1.00
C94    C     0.73230   0.00532   0.07020   0.00000  Uiso   1.00
C95    C     0.77402   0.96390   0.05673   0.00000  Uiso   1.00
C96    C     0.62480   0.93927   0.04447   0.00000  Uiso   1.00
C97    C     0.43315   0.88647   0.02131   0.00000  Uiso   1.00
C98    C     0.84991   0.08186   0.06682   0.00000  Uiso   1.00
C99    C     0.99053   0.10478   0.05051   0.00000  Uiso   1.00
C100   C     0.94030   0.14458   0.03540   0.00000  Uiso   1.00
C101   C     0.93128   0.21062   0.00701   0.00000  Uiso   1.00
C102   C     0.80668   0.04655   0.11944   0.00000  Uiso   1.00
C103   C     0.91096   0.03980   0.14738   0.00000  Uiso   1.00
C104   C     0.82435   0.04988   0.17658   0.00000  Uiso   1.00
C105   C     0.74821   0.06110   0.22989   0.00000  Uiso   1.00
C106   C     0.53457   0.06767   0.08717   0.00000  Uiso   1.00
C107   C     0.54806   0.02158   0.07138   0.00000  Uiso   1.00
C108   C     0.39872   0.99700   0.05914   0.00000  Uiso   1.00
C109   C     0.44022   0.95555   0.04565   0.00000  Uiso   1.00
C110   C     0.66567   0.09811   0.06800   0.00000  Uiso   1.00
C111   C     0.61523   0.13789   0.05292   0.00000  Uiso   1.00
C112   C     0.75573   0.16086   0.03659   0.00000  Uiso   1.00
C113   C     0.62243   0.06280   0.12062   0.00000  Uiso   1.00
C114   C     0.53565   0.07291   0.14978   0.00000  Uiso   1.00
C115   C     0.63977   0.06617   0.17776   0.00000  Uiso   1.00
H116   H     0.01723   0.02509   0.08407   0.00000  Uiso   1.00
H117   H     0.91663   0.95133   0.05582   0.00000  Uiso   1.00
H118   H     0.13310   0.09220   0.04960   0.00000  Uiso   1.00
H119   H     0.05354   0.02722   0.14645   0.00000  Uiso   1.00
H120   H     0.72385   0.87673   0.02501   0.00000  Uiso   1.00
H121   H     0.18031   0.17376   0.01191   0.00000  Uiso   1.00
H122   H     0.01254   0.03675   0.21614   0.00000  Uiso   1.00
H123   H     0.39112   0.08032   0.08809   0.00000  Uiso   1.00
H124   H     0.25616   0.00959   0.06006   0.00000  Uiso   1.00
H125   H     0.47264   0.15046   0.05384   0.00000  Uiso   1.00
H126   H     0.39307   0.08548   0.15069   0.00000  Uiso   1.00
H127   H     0.18779   0.92402   0.02845   0.00000  Uiso   1.00
H128   H     0.64425   0.22105   0.01535   0.00000  Uiso   1.00
H129   H     0.47648   0.08404   0.21958   0.00000  Uiso   1.00
O130   O     0.37835   0.85286   0.00821   0.00000  Uiso   1.00
O131   O     0.97721   0.24255   0.99102   0.00000  Uiso   1.00
O132   O     0.75709   0.06280   0.25897   0.00000  Uiso   1.00
N133   N     0.61621   0.89756   0.02967   0.00000  Uiso   1.00
N134   N     0.04296   0.17527   0.01742   0.00000  Uiso   1.00
N135   N     0.88613   0.04718   0.20836   0.00000  Uiso   1.00
N136   N     0.32776   0.92301   0.03152   0.00000  Uiso   1.00
N137   N     0.75451   0.20071   0.01927   0.00000  Uiso   1.00
N138   N     0.59768   0.07263   0.21021   0.00000  Uiso   1.00
C139   C     0.37378   0.53774   0.08499   0.00000  Uiso   1.00
C140   C     0.23230   0.50532   0.07020   0.00000  Uiso   1.00
C141   C     0.27402   0.46390   0.05673   0.00000  Uiso   1.00
C142   C     0.12480   0.43927   0.04447   0.00000  Uiso   1.00
C143   C     0.93315   0.38647   0.02131   0.00000  Uiso   1.00
C144   C     0.34991   0.58186   0.06682   0.00000  Uiso   1.00
C145   C     0.49053   0.60478   0.05051   0.00000  Uiso   1.00
C146   C     0.44030   0.64458   0.03540   0.00000  Uiso   1.00
C147   C     0.43128   0.71062   0.00701   0.00000  Uiso   1.00
C148   C     0.30668   0.54655   0.11944   0.00000  Uiso   1.00
C149   C     0.41096   0.53980   0.14738   0.00000  Uiso   1.00
C150   C     0.32435   0.54988   0.17658   0.00000  Uiso   1.00
C151   C     0.24821   0.56110   0.22989   0.00000  Uiso   1.00
C152   C     0.03457   0.56767   0.08717   0.00000  Uiso   1.00
C153   C     0.04806   0.52158   0.07138   0.00000  Uiso   1.00
C154   C     0.89872   0.49700   0.05914   0.00000  Uiso   1.00
C155   C     0.94022   0.45555   0.04565   0.00000  Uiso   1.00
C156   C     0.16567   0.59811   0.06800   0.00000  Uiso   1.00
C157   C     0.11523   0.63789   0.05292   0.00000  Uiso   1.00
C158   C     0.25573   0.66086   0.03659   0.00000  Uiso   1.00
C159   C     0.12243   0.56280   0.12062   0.00000  Uiso   1.00
C160   C     0.03565   0.57291   0.14978   0.00000  Uiso   1.00
C161   C     0.13977   0.56617   0.17776   0.00000  Uiso   1.00
H162   H     0.51723   0.52509   0.08407   0.00000  Uiso   1.00
H163   H     0.41663   0.45133   0.05582   0.00000  Uiso   1.00
H164   H     0.63310   0.59220   0.04960   0.00000  Uiso   1.00
H165   H     0.55354   0.52722   0.14645   0.00000  Uiso   1.00
H166   H     0.22385   0.37673   0.02501   0.00000  Uiso   1.00
H167   H     0.68031   0.67376   0.01191   0.00000  Uiso   1.00
H168   H     0.51254   0.53675   0.21614   0.00000  Uiso   1.00
H169   H     0.89112   0.58032   0.08809   0.00000  Uiso   1.00
H170   H     0.75616   0.50959   0.06006   0.00000  Uiso   1.00
H171   H     0.97264   0.65046   0.05384   0.00000  Uiso   1.00
H172   H     0.89307   0.58548   0.15069   0.00000  Uiso   1.00
H173   H     0.68779   0.42402   0.02845   0.00000  Uiso   1.00
H174   H     0.14425   0.72105   0.01535   0.00000  Uiso   1.00
H175   H     0.97648   0.58404   0.21958   0.00000  Uiso   1.00
O176   O     0.87835   0.35286   0.00821   0.00000  Uiso   1.00
O177   O     0.47721   0.74255   0.99102   0.00000  Uiso   1.00
O178   O     0.25709   0.56280   0.25897   0.00000  Uiso   1.00
N179   N     0.11621   0.39756   0.02967   0.00000  Uiso   1.00
N180   N     0.54296   0.67527   0.01742   0.00000  Uiso   1.00
N181   N     0.38613   0.54718   0.20836   0.00000  Uiso   1.00
N182   N     0.82776   0.42301   0.03152   0.00000  Uiso   1.00
N183   N     0.25451   0.70071   0.01927   0.00000  Uiso   1.00
N184   N     0.09768   0.57263   0.21021   0.00000  Uiso   1.00
C185   C     0.87378   0.96226   0.91501   0.00000  Uiso   1.00
C186   C     0.73230   0.99468   0.92980   0.00000  Uiso   1.00
C187   C     0.77402   0.03610   0.94327   0.00000  Uiso   1.00
C188   C     0.62480   0.06073   0.95553   0.00000  Uiso   1.00
C189   C     0.43315   0.11353   0.97869   0.00000  Uiso   1.00
C190   C     0.84991   0.91814   0.93318   0.00000  Uiso   1.00
C191   C     0.99053   0.89522   0.94949   0.00000  Uiso   1.00
C192   C     0.94030   0.85542   0.96460   0.00000  Uiso   1.00
C193   C     0.93128   0.78938   0.99299   0.00000  Uiso   1.00
C194   C     0.80668   0.95345   0.88056   0.00000  Uiso   1.00
C195   C     0.91096   0.96020   0.85262   0.00000  Uiso   1.00
C196   C     0.82435   0.95012   0.82342   0.00000  Uiso   1.00
C197   C     0.74821   0.93890   0.77011   0.00000  Uiso   1.00
C198   C     0.53457   0.93233   0.91283   0.00000  Uiso   1.00
C199   C     0.54806   0.97842   0.92862   0.00000  Uiso   1.00
C200   C     0.39872   0.00300   0.94086   0.00000  Uiso   1.00
C201   C     0.44022   0.04445   0.95435   0.00000  Uiso   1.00
C202   C     0.66567   0.90189   0.93200   0.00000  Uiso   1.00
C203   C     0.61523   0.86211   0.94708   0.00000  Uiso   1.00
C204   C     0.75573   0.83914   0.96341   0.00000  Uiso   1.00
C205   C     0.62243   0.93720   0.87938   0.00000  Uiso   1.00
C206   C     0.53565   0.92709   0.85022   0.00000  Uiso   1.00
C207   C     0.63977   0.93383   0.82224   0.00000  Uiso   1.00
H208   H     0.01723   0.97491   0.91593   0.00000  Uiso   1.00
H209   H     0.91663   0.04867   0.94418   0.00000  Uiso   1.00
H210   H     0.13310   0.90780   0.95040   0.00000  Uiso   1.00
H211   H     0.05354   0.97278   0.85355   0.00000  Uiso   1.00
H212   H     0.72385   0.12327   0.97499   0.00000  Uiso   1.00
H213   H     0.18031   0.82624   0.98809   0.00000  Uiso   1.00
H214   H     0.01254   0.96325   0.78386   0.00000  Uiso   1.00
H215   H     0.39112   0.91968   0.91191   0.00000  Uiso   1.00
H216   H     0.25616   0.99041   0.93994   0.00000  Uiso   1.00
H217   H     0.47264   0.84954   0.94616   0.00000  Uiso   1.00
H218   H     0.39307   0.91452   0.84931   0.00000  Uiso   1.00
H219   H     0.18779   0.07598   0.97155   0.00000  Uiso   1.00
H220   H     0.64425   0.77895   0.98465   0.00000  Uiso   1.00
H221   H     0.47648   0.91596   0.78042   0.00000  Uiso   1.00
O222   O     0.37835   0.14714   0.99179   0.00000  Uiso   1.00
O223   O     0.97721   0.75745   0.00898   0.00000  Uiso   1.00
O224   O     0.75709   0.93720   0.74103   0.00000  Uiso   1.00
N225   N     0.61621   0.10244   0.97033   0.00000  Uiso   1.00
N226   N     0.04296   0.82473   0.98258   0.00000  Uiso   1.00
N227   N     0.88613   0.95282   0.79164   0.00000  Uiso   1.00
N228   N     0.32776   0.07699   0.96848   0.00000  Uiso   1.00
N229   N     0.75451   0.79929   0.98073   0.00000  Uiso   1.00
N230   N     0.59768   0.92737   0.78979   0.00000  Uiso   1.00
C231   C     0.37378   0.46226   0.91501   0.00000  Uiso   1.00
C232   C     0.23230   0.49468   0.92980   0.00000  Uiso   1.00
C233   C     0.27402   0.53610   0.94327   0.00000  Uiso   1.00
C234   C     0.12480   0.56073   0.95553   0.00000  Uiso   1.00
C235   C     0.93315   0.61353   0.97869   0.00000  Uiso   1.00
C236   C     0.34991   0.41814   0.93318   0.00000  Uiso   1.00
C237   C     0.49053   0.39522   0.94949   0.00000  Uiso   1.00
C238   C     0.44030   0.35542   0.96460   0.00000  Uiso   1.00
C239   C     0.43128   0.28938   0.99299   0.00000  Uiso   1.00
C240   C     0.30668   0.45345   0.88056   0.00000  Uiso   1.00
C241   C     0.41096   0.46020   0.85262   0.00000  Uiso   1.00
C242   C     0.32435   0.45012   0.82342   0.00000  Uiso   1.00
C243   C     0.24821   0.43890   0.77011   0.00000  Uiso   1.00
C244   C     0.03457   0.43233   0.91283   0.00000  Uiso   1.00
C245   C     0.04806   0.47842   0.92862   0.00000  Uiso   1.00
C246   C     0.89872   0.50300   0.94086   0.00000  Uiso   1.00
C247   C     0.94022   0.54445   0.95435   0.00000  Uiso   1.00
C248   C     0.16567   0.40189   0.93200   0.00000  Uiso   1.00
C249   C     0.11523   0.36211   0.94708   0.00000  Uiso   1.00
C250   C     0.25573   0.33914   0.96341   0.00000  Uiso   1.00
C251   C     0.12243   0.43720   0.87938   0.00000  Uiso   1.00
C252   C     0.03565   0.42709   0.85022   0.00000  Uiso   1.00
C253   C     0.13977   0.43383   0.82224   0.00000  Uiso   1.00
H254   H     0.51723   0.47491   0.91593   0.00000  Uiso   1.00
H255   H     0.41663   0.54867   0.94418   0.00000  Uiso   1.00
H256   H     0.63310   0.40780   0.95040   0.00000  Uiso   1.00
H257   H     0.55354   0.47278   0.85355   0.00000  Uiso   1.00
H258   H     0.22385   0.62327   0.97499   0.00000  Uiso   1.00
H259   H     0.68031   0.32624   0.98809   0.00000  Uiso   1.00
H260   H     0.51254   0.46325   0.78386   0.00000  Uiso   1.00
H261   H     0.89112   0.41968   0.91191   0.00000  Uiso   1.00
H262   H     0.75616   0.49041   0.93994   0.00000  Uiso   1.00
H263   H     0.97264   0.34954   0.94616   0.00000  Uiso   1.00
H264   H     0.89307   0.41452   0.84931   0.00000  Uiso   1.00
H265   H     0.68779   0.57598   0.97155   0.00000  Uiso   1.00
H266   H     0.14425   0.27895   0.98465   0.00000  Uiso   1.00
H267   H     0.97648   0.41596   0.78042   0.00000  Uiso   1.00
O268   O     0.87835   0.64714   0.99179   0.00000  Uiso   1.00
O269   O     0.47721   0.25745   0.00898   0.00000  Uiso   1.00
O270   O     0.25709   0.43720   0.74103   0.00000  Uiso   1.00
N271   N     0.11621   0.60244   0.97033   0.00000  Uiso   1.00
N272   N     0.54296   0.32473   0.98258   0.00000  Uiso   1.00
N273   N     0.38613   0.45282   0.79164   0.00000  Uiso   1.00
N274   N     0.82776   0.57699   0.96848   0.00000  Uiso   1.00
N275   N     0.25451   0.29929   0.98073   0.00000  Uiso   1.00
N276   N     0.09768   0.42737   0.78979   0.00000  Uiso   1.00
C277   C     0.12622   0.03774   0.41501   0.00000  Uiso   1.00
C278   C     0.26770   0.00532   0.42980   0.00000  Uiso   1.00
C279   C     0.22598   0.96390   0.44327   0.00000  Uiso   1.00
C280   C     0.37520   0.93927   0.45553   0.00000  Uiso   1.00
C281   C     0.56685   0.88647   0.47869   0.00000  Uiso   1.00
C282   C     0.15009   0.08186   0.43318   0.00000  Uiso   1.00
C283   C     0.00947   0.10478   0.44949   0.00000  Uiso   1.00
C284   C     0.05970   0.14458   0.46460   0.00000  Uiso   1.00
C285   C     0.06872   0.21062   0.49299   0.00000  Uiso   1.00
C286   C     0.19332   0.04655   0.38056   0.00000  Uiso   1.00
C287   C     0.08904   0.03980   0.35262   0.00000  Uiso   1.00
C288   C     0.17565   0.04988   0.32342   0.00000  Uiso   1.00
C289   C     0.25179   0.06110   0.27011   0.00000  Uiso   1.00
C290   C     0.46543   0.06767   0.41283   0.00000  Uiso   1.00
C291   C     0.45194   0.02158   0.42862   0.00000  Uiso   1.00
C292   C     0.60128   0.99700   0.44086   0.00000  Uiso   1.00
C293   C     0.55978   0.95555   0.45435   0.00000  Uiso   1.00
C294   C     0.33433   0.09811   0.43200   0.00000  Uiso   1.00
C295   C     0.38477   0.13789   0.44708   0.00000  Uiso   1.00
C296   C     0.24427   0.16086   0.46341   0.00000  Uiso   1.00
C297   C     0.37757   0.06280   0.37938   0.00000  Uiso   1.00
C298   C     0.46435   0.07291   0.35022   0.00000  Uiso   1.00
C299   C     0.36023   0.06617   0.32224   0.00000  Uiso   1.00
H300   H     0.98277   0.02509   0.41593   0.00000  Uiso   1.00
H301   H     0.08337   0.95133   0.44418   0.00000  Uiso   1.00
H302   H     0.86690   0.09220   0.45040   0.00000  Uiso   1.00
H303   H     0.94646   0.02722   0.35355   0.00000  Uiso   1.00
H304   H     0.27615   0.87673   0.47499   0.00000  Uiso   1.00
H305   H     0.81969   0.17376   0.48809   0.00000  Uiso   1.00
H306   H     0.98746   0.03675   0.28386   0.00000  Uiso   1.00
H307   H     0.60888   0.08032   0.41191   0.00000  Uiso   1.00
H308   H     0.74384   0.00959   0.43994   0.00000  Uiso   1.00
H309   H     0.52736   0.15046   0.44616   0.00000  Uiso   1.00
H310   H     0.60693   0.08548   0.34931   0.00000  Uiso   1.00
H311   H     0.81221   0.92402   0.47155   0.00000  Uiso   1.00
H312   H     0.35575   0.22105   0.48465   0.00000  Uiso   1.00
H313   H     0.52352   0.08404   0.28042   0.00000  Uiso   1.00
O314   O     0.62165   0.85286   0.49179   0.00000  Uiso   1.00
O315   O     0.02279   0.24255   0.50898   0.00000  Uiso   1.00
O316   O     0.24291   0.06280   0.24103   0.00000  Uiso   1.00
N317   N     0.38379   0.89756   0.47033   0.00000  Uiso   1.00
N318   N     0.95704   0.17527   0.48258   0.00000  Uiso   1.00
N319   N     0.11387   0.04718   0.29164   0.00000  Uiso   1.00
N320   N     0.67224   0.92301   0.46848   0.00000  Uiso   1.00
N321   N     0.24549   0.20071   0.48073   0.00000  Uiso   1.00
N322   N     0.40232   0.07263   0.28979   0.00000  Uiso   1.00
C323   C     0.62622   0.53774   0.41501   0.00000  Uiso   1.00
C324   C     0.76770   0.50532   0.42980   0.00000  Uiso   1.00
C325   C     0.72598   0.46390   0.44327   0.00000  Uiso   1.00
C326   C     0.87520   0.43927   0.45553   0.00000  Uiso   1.00
C327   C     0.06685   0.38647   0.47869   0.00000  Uiso   1.00
C328   C     0.65009   0.58186   0.43318   0.00000  Uiso   1.00
C329   C     0.50947   0.60478   0.44949   0.00000  Uiso   1.00
C330   C     0.55970   0.64458   0.46460   0.00000  Uiso   1.00
C331   C     0.56872   0.71062   0.49299   0.00000  Uiso   1.00
C332   C     0.69332   0.54655   0.38056   0.00000  Uiso   1.00
C333   C     0.58904   0.53980   0.35262   0.00000  Uiso   1.00
C334   C     0.67565   0.54988   0.32342   0.00000  Uiso   1.00
C335   C     0.75179   0.56110   0.27011   0.00000  Uiso   1.00
C336   C     0.96543   0.56767   0.41283   0.00000  Uiso   1.00
C337   C     0.95194   0.52158   0.42862   0.00000  Uiso   1.00
C338   C     0.10128   0.49700   0.44086   0.00000  Uiso   1.00
C339   C     0.05978   0.45555   0.45435   0.00000  Uiso   1.00
C340   C     0.83433   0.59811   0.43200   0.00000  Uiso   1.00
C341   C     0.88477   0.63789   0.44708   0.00000  Uiso   1.00
C342   C     0.74427   0.66086   0.46341   0.00000  Uiso   1.00
C343   C     0.87757   0.56280   0.37938   0.00000  Uiso   1.00
C344   C     0.96435   0.57291   0.35022   0.00000  Uiso   1.00
C345   C     0.86023   0.56617   0.32224   0.00000  Uiso   1.00
H346   H     0.48277   0.52509   0.41593   0.00000  Uiso   1.00
H347   H     0.58337   0.45133   0.44418   0.00000  Uiso   1.00
H348   H     0.36690   0.59220   0.45040   0.00000  Uiso   1.00
H349   H     0.44646   0.52722   0.35355   0.00000  Uiso   1.00
H350   H     0.77615   0.37673   0.47499   0.00000  Uiso   1.00
H351   H     0.31969   0.67376   0.48809   0.00000  Uiso   1.00
H352   H     0.48746   0.53675   0.28386   0.00000  Uiso   1.00
H353   H     0.10888   0.58032   0.41191   0.00000  Uiso   1.00
H354   H     0.24384   0.50959   0.43994   0.00000  Uiso   1.00
H355   H     0.02736   0.65046   0.44616   0.00000  Uiso   1.00
H356   H     0.10693   0.58548   0.34931   0.00000  Uiso   1.00
H357   H     0.31221   0.42402   0.47155   0.00000  Uiso   1.00
H358   H     0.85575   0.72105   0.48465   0.00000  Uiso   1.00
H359   H     0.02352   0.58404   0.28042   0.00000  Uiso   1.00
O360   O     0.12165   0.35286   0.49179   0.00000  Uiso   1.00
O361   O     0.52279   0.74255   0.50898   0.00000  Uiso   1.00
O362   O     0.74291   0.56280   0.24103   0.00000  Uiso   1.00
N363   N     0.88379   0.39756   0.47033   0.00000  Uiso   1.00
N364   N     0.45704   0.67527   0.48258   0.00000  Uiso   1.00
N365   N     0.61387   0.54718   0.29164   0.00000  Uiso   1.00
N366   N     0.17224   0.42301   0.46848   0.00000  Uiso   1.00
N367   N     0.74549   0.70071   0.48073   0.00000  Uiso   1.00
N368   N     0.90232   0.57263   0.28979   0.00000  Uiso   1.00
