data_job_02002
_audit_creation_date              2018-12-19
_audit_creation_method            'Materials Studio'
_symmetry_space_group_name_H-M    'P1'
_symmetry_Int_Tables_number       1
_symmetry_cell_setting            triclinic
loop_
_symmetry_equiv_pos_as_xyz
  x,y,z
_cell_length_a                    17.1976
_cell_length_b                    17.1976
_cell_length_c                    16.8955
_cell_angle_alpha                 90.0000
_cell_angle_beta                  90.0000
_cell_angle_gamma                 90.0000
loop_
_atom_site_label
_atom_site_type_symbol
_atom_site_fract_x
_atom_site_fract_y
_atom_site_fract_z
_atom_site_U_iso_or_equiv
_atom_site_adp_type
_atom_site_occupancy
C1     C     0.53146   0.77958   0.90168   0.00000  Uiso   1.00
C2     C     0.47623   0.84507   0.87839   0.00000  Uiso   1.00
C3     C     0.48788   0.92365   0.89281   0.00000  Uiso   1.00
C4     C     0.43049   0.97438   0.86684   0.00000  Uiso   1.00
C5     C     0.35485   0.08017   0.83664   0.00000  Uiso   1.00
C6     C     0.48381   0.72354   0.95208   0.00000  Uiso   1.00
C7     C     0.50184   0.69993   0.02846   0.00000  Uiso   1.00
C8     C     0.45084   0.64835   0.06452   0.00000  Uiso   1.00
C9     C     0.38700   0.56541   0.14871   0.00000  Uiso   1.00
C10    C     0.55028   0.73609   0.82539   0.00000  Uiso   1.00
C11    C     0.62421   0.72303   0.79525   0.00000  Uiso   1.00
C12    C     0.62917   0.68199   0.72466   0.00000  Uiso   1.00
C13    C     0.66853   0.61856   0.61214   0.00000  Uiso   1.00
C14    C     0.40882   0.72992   0.82991   0.00000  Uiso   1.00
C15    C     0.40961   0.81809   0.83941   0.00000  Uiso   1.00
C16    C     0.35219   0.86871   0.81341   0.00000  Uiso   1.00
C17    C     0.36376   0.94736   0.82779   0.00000  Uiso   1.00
C18    C     0.41720   0.69657   0.91311   0.00000  Uiso   1.00
C19    C     0.36616   0.64500   0.94906   0.00000  Uiso   1.00
C20    C     0.38411   0.62132   0.02547   0.00000  Uiso   1.00
C21    C     0.48367   0.70912   0.78641   0.00000  Uiso   1.00
C22    C     0.48852   0.66809   0.71585   0.00000  Uiso   1.00
C23    C     0.56243   0.65497   0.68561   0.00000  Uiso   1.00
H24    H     0.58332   0.80057   0.93203   0.00000  Uiso   1.00
H25    H     0.53943   0.94450   0.92298   0.00000  Uiso   1.00
H26    H     0.55340   0.72081   0.05860   0.00000  Uiso   1.00
H27    H     0.67574   0.74391   0.82543   0.00000  Uiso   1.00
H28    H     0.46139   0.09218   0.89579   0.00000  Uiso   1.00
H29    H     0.49086   0.62050   0.18175   0.00000  Uiso   1.00
H30    H     0.74884   0.66919   0.69006   0.00000  Uiso   1.00
H31    H     0.35695   0.70892   0.79957   0.00000  Uiso   1.00
H32    H     0.30065   0.84782   0.78325   0.00000  Uiso   1.00
H33    H     0.31462   0.62413   0.91888   0.00000  Uiso   1.00
H34    H     0.43696   0.64723   0.68571   0.00000  Uiso   1.00
H35    H     0.26758   0.01371   0.78238   0.00000  Uiso   1.00
H36    H     0.29705   0.54202   0.06834   0.00000  Uiso   1.00
H37    H     0.55503   0.59073   0.57665   0.00000  Uiso   1.00
O38    O     0.33152   0.14597   0.83077   0.00000  Uiso   1.00
O39    O     0.37019   0.52713   0.20593   0.00000  Uiso   1.00
O40    O     0.70865   0.59103   0.56085   0.00000  Uiso   1.00
N41    N     0.42351   0.05465   0.87132   0.00000  Uiso   1.00
N42    N     0.45106   0.61366   0.13868   0.00000  Uiso   1.00
N43    N     0.69225   0.65917   0.67901   0.00000  Uiso   1.00
N44    N     0.31923   0.01242   0.81030   0.00000  Uiso   1.00
N45    N     0.34677   0.57144   0.07766   0.00000  Uiso   1.00
N46    N     0.58796   0.61695   0.61798   0.00000  Uiso   1.00
C47    C     0.46854   0.22042   0.40168   0.00000  Uiso   1.00
C48    C     0.52377   0.15493   0.37839   0.00000  Uiso   1.00
C49    C     0.51212   0.07635   0.39281   0.00000  Uiso   1.00
C50    C     0.56951   0.02562   0.36684   0.00000  Uiso   1.00
C51    C     0.64515   0.91983   0.33664   0.00000  Uiso   1.00
C52    C     0.51619   0.27646   0.45208   0.00000  Uiso   1.00
C53    C     0.49816   0.30007   0.52846   0.00000  Uiso   1.00
C54    C     0.54916   0.35165   0.56452   0.00000  Uiso   1.00
C55    C     0.61300   0.43459   0.64871   0.00000  Uiso   1.00
C56    C     0.44972   0.26391   0.32539   0.00000  Uiso   1.00
C57    C     0.37579   0.27697   0.29525   0.00000  Uiso   1.00
C58    C     0.37083   0.31801   0.22466   0.00000  Uiso   1.00
C59    C     0.33147   0.38144   0.11214   0.00000  Uiso   1.00
C60    C     0.59118   0.27008   0.32991   0.00000  Uiso   1.00
C61    C     0.59039   0.18191   0.33941   0.00000  Uiso   1.00
C62    C     0.64781   0.13129   0.31341   0.00000  Uiso   1.00
C63    C     0.63624   0.05264   0.32779   0.00000  Uiso   1.00
C64    C     0.58280   0.30343   0.41311   0.00000  Uiso   1.00
C65    C     0.63384   0.35500   0.44906   0.00000  Uiso   1.00
C66    C     0.61589   0.37868   0.52547   0.00000  Uiso   1.00
C67    C     0.51633   0.29088   0.28641   0.00000  Uiso   1.00
C68    C     0.51148   0.33191   0.21585   0.00000  Uiso   1.00
C69    C     0.43757   0.34503   0.18561   0.00000  Uiso   1.00
H70    H     0.41668   0.19943   0.43203   0.00000  Uiso   1.00
H71    H     0.46057   0.05550   0.42298   0.00000  Uiso   1.00
H72    H     0.44660   0.27919   0.55860   0.00000  Uiso   1.00
H73    H     0.32426   0.25609   0.32543   0.00000  Uiso   1.00
H74    H     0.53861   0.90782   0.39579   0.00000  Uiso   1.00
H75    H     0.50914   0.37950   0.68175   0.00000  Uiso   1.00
H76    H     0.25116   0.33081   0.19006   0.00000  Uiso   1.00
H77    H     0.64305   0.29108   0.29957   0.00000  Uiso   1.00
H78    H     0.69935   0.15218   0.28325   0.00000  Uiso   1.00
H79    H     0.68538   0.37587   0.41888   0.00000  Uiso   1.00
H80    H     0.56304   0.35277   0.18571   0.00000  Uiso   1.00
H81    H     0.73242   0.98629   0.28238   0.00000  Uiso   1.00
H82    H     0.70295   0.45798   0.56834   0.00000  Uiso   1.00
H83    H     0.44497   0.40927   0.07665   0.00000  Uiso   1.00
O84    O     0.66848   0.85403   0.33077   0.00000  Uiso   1.00
O85    O     0.62981   0.47287   0.70593   0.00000  Uiso   1.00
O86    O     0.29135   0.40897   0.06085   0.00000  Uiso   1.00
N87    N     0.57649   0.94535   0.37132   0.00000  Uiso   1.00
N88    N     0.54894   0.38634   0.63868   0.00000  Uiso   1.00
N89    N     0.30775   0.34083   0.17901   0.00000  Uiso   1.00
N90    N     0.68077   0.98758   0.31030   0.00000  Uiso   1.00
N91    N     0.65323   0.42856   0.57766   0.00000  Uiso   1.00
N92    N     0.41204   0.38305   0.11798   0.00000  Uiso   1.00
C93    C     0.72042   0.03146   0.65168   0.00000  Uiso   1.00
C94    C     0.65493   0.97623   0.62839   0.00000  Uiso   1.00
C95    C     0.57635   0.98788   0.64281   0.00000  Uiso   1.00
C96    C     0.52562   0.93049   0.61684   0.00000  Uiso   1.00
C97    C     0.41983   0.85485   0.58664   0.00000  Uiso   1.00
C98    C     0.77646   0.98381   0.70208   0.00000  Uiso   1.00
C99    C     0.80007   0.00184   0.77846   0.00000  Uiso   1.00
C100   C     0.85165   0.95084   0.81452   0.00000  Uiso   1.00
C101   C     0.93459   0.88700   0.89871   0.00000  Uiso   1.00
C102   C     0.76391   0.05028   0.57539   0.00000  Uiso   1.00
C103   C     0.77697   0.12421   0.54525   0.00000  Uiso   1.00
C104   C     0.81801   0.12917   0.47466   0.00000  Uiso   1.00
C105   C     0.88144   0.16853   0.36214   0.00000  Uiso   1.00
C106   C     0.77008   0.90882   0.57991   0.00000  Uiso   1.00
C107   C     0.68191   0.90961   0.58941   0.00000  Uiso   1.00
C108   C     0.63129   0.85219   0.56341   0.00000  Uiso   1.00
C109   C     0.55264   0.86376   0.57779   0.00000  Uiso   1.00
C110   C     0.80343   0.91720   0.66311   0.00000  Uiso   1.00
C111   C     0.85500   0.86616   0.69906   0.00000  Uiso   1.00
C112   C     0.87868   0.88411   0.77547   0.00000  Uiso   1.00
C113   C     0.79088   0.98367   0.53641   0.00000  Uiso   1.00
C114   C     0.83191   0.98852   0.46585   0.00000  Uiso   1.00
C115   C     0.84503   0.06243   0.43561   0.00000  Uiso   1.00
H116   H     0.69943   0.08332   0.68203   0.00000  Uiso   1.00
H117   H     0.55550   0.03943   0.67298   0.00000  Uiso   1.00
H118   H     0.77919   0.05340   0.80860   0.00000  Uiso   1.00
H119   H     0.75609   0.17574   0.57543   0.00000  Uiso   1.00
H120   H     0.40782   0.96139   0.64579   0.00000  Uiso   1.00
H121   H     0.87950   0.99086   0.93175   0.00000  Uiso   1.00
H122   H     0.83081   0.24884   0.44006   0.00000  Uiso   1.00
H123   H     0.79108   0.85695   0.54957   0.00000  Uiso   1.00
H124   H     0.65218   0.80065   0.53325   0.00000  Uiso   1.00
H125   H     0.87587   0.81462   0.66888   0.00000  Uiso   1.00
H126   H     0.85277   0.93696   0.43571   0.00000  Uiso   1.00
H127   H     0.48629   0.76758   0.53238   0.00000  Uiso   1.00
H128   H     0.95798   0.79705   0.81834   0.00000  Uiso   1.00
H129   H     0.90927   0.05503   0.32665   0.00000  Uiso   1.00
O130   O     0.35403   0.83152   0.58077   0.00000  Uiso   1.00
O131   O     0.97287   0.87019   0.95593   0.00000  Uiso   1.00
O132   O     0.90897   0.20865   0.31085   0.00000  Uiso   1.00
N133   N     0.44535   0.92351   0.62132   0.00000  Uiso   1.00
N134   N     0.88634   0.95106   0.88868   0.00000  Uiso   1.00
N135   N     0.84083   0.19225   0.42901   0.00000  Uiso   1.00
N136   N     0.48758   0.81923   0.56030   0.00000  Uiso   1.00
N137   N     0.92856   0.84677   0.82766   0.00000  Uiso   1.00
N138   N     0.88305   0.08796   0.36798   0.00000  Uiso   1.00
C139   C     0.27958   0.96854   0.15168   0.00000  Uiso   1.00
C140   C     0.34507   0.02377   0.12839   0.00000  Uiso   1.00
C141   C     0.42365   0.01212   0.14281   0.00000  Uiso   1.00
C142   C     0.47438   0.06951   0.11684   0.00000  Uiso   1.00
C143   C     0.58017   0.14515   0.08664   0.00000  Uiso   1.00
C144   C     0.22354   0.01619   0.20208   0.00000  Uiso   1.00
C145   C     0.19993   0.99816   0.27846   0.00000  Uiso   1.00
C146   C     0.14835   0.04916   0.31452   0.00000  Uiso   1.00
C147   C     0.06541   0.11300   0.39871   0.00000  Uiso   1.00
C148   C     0.23609   0.94972   0.07539   0.00000  Uiso   1.00
C149   C     0.22303   0.87579   0.04525   0.00000  Uiso   1.00
C150   C     0.18199   0.87083   0.97466   0.00000  Uiso   1.00
C151   C     0.11856   0.83147   0.86214   0.00000  Uiso   1.00
C152   C     0.22992   0.09118   0.07991   0.00000  Uiso   1.00
C153   C     0.31809   0.09039   0.08941   0.00000  Uiso   1.00
C154   C     0.36871   0.14781   0.06341   0.00000  Uiso   1.00
C155   C     0.44736   0.13624   0.07779   0.00000  Uiso   1.00
C156   C     0.19657   0.08280   0.16311   0.00000  Uiso   1.00
C157   C     0.14500   0.13384   0.19906   0.00000  Uiso   1.00
C158   C     0.12132   0.11589   0.27547   0.00000  Uiso   1.00
C159   C     0.20912   0.01633   0.03641   0.00000  Uiso   1.00
C160   C     0.16809   0.01148   0.96585   0.00000  Uiso   1.00
C161   C     0.15497   0.93757   0.93561   0.00000  Uiso   1.00
H162   H     0.30057   0.91668   0.18203   0.00000  Uiso   1.00
H163   H     0.44450   0.96057   0.17298   0.00000  Uiso   1.00
H164   H     0.22081   0.94660   0.30860   0.00000  Uiso   1.00
H165   H     0.24391   0.82426   0.07543   0.00000  Uiso   1.00
H166   H     0.59218   0.03861   0.14579   0.00000  Uiso   1.00
H167   H     0.12050   0.00914   0.43175   0.00000  Uiso   1.00
H168   H     0.16919   0.75116   0.94006   0.00000  Uiso   1.00
H169   H     0.20892   0.14305   0.04957   0.00000  Uiso   1.00
H170   H     0.34782   0.19935   0.03325   0.00000  Uiso   1.00
H171   H     0.12413   0.18538   0.16888   0.00000  Uiso   1.00
H172   H     0.14723   0.06304   0.93571   0.00000  Uiso   1.00
H173   H     0.51371   0.23242   0.03238   0.00000  Uiso   1.00
H174   H     0.04202   0.20295   0.31834   0.00000  Uiso   1.00
H175   H     0.09073   0.94497   0.82665   0.00000  Uiso   1.00
O176   O     0.64597   0.16848   0.08077   0.00000  Uiso   1.00
O177   O     0.02713   0.12981   0.45593   0.00000  Uiso   1.00
O178   O     0.09103   0.79135   0.81085   0.00000  Uiso   1.00
N179   N     0.55465   0.07649   0.12132   0.00000  Uiso   1.00
N180   N     0.11366   0.04894   0.38868   0.00000  Uiso   1.00
N181   N     0.15917   0.80775   0.92901   0.00000  Uiso   1.00
N182   N     0.51242   0.18077   0.06030   0.00000  Uiso   1.00
N183   N     0.07144   0.15323   0.32766   0.00000  Uiso   1.00
N184   N     0.11695   0.91204   0.86798   0.00000  Uiso   1.00
C185   C     0.96854   0.27958   0.84832   0.00000  Uiso   1.00
C186   C     0.02377   0.34507   0.87161   0.00000  Uiso   1.00
C187   C     0.01212   0.42365   0.85719   0.00000  Uiso   1.00
C188   C     0.06951   0.47438   0.88316   0.00000  Uiso   1.00
C189   C     0.14515   0.58017   0.91336   0.00000  Uiso   1.00
C190   C     0.01619   0.22354   0.79792   0.00000  Uiso   1.00
C191   C     0.99816   0.19993   0.72154   0.00000  Uiso   1.00
C192   C     0.04916   0.14835   0.68548   0.00000  Uiso   1.00
C193   C     0.11300   0.06541   0.60129   0.00000  Uiso   1.00
C194   C     0.94972   0.23609   0.92461   0.00000  Uiso   1.00
C195   C     0.87579   0.22303   0.95475   0.00000  Uiso   1.00
C196   C     0.87083   0.18199   0.02534   0.00000  Uiso   1.00
C197   C     0.83147   0.11856   0.13786   0.00000  Uiso   1.00
C198   C     0.09118   0.22992   0.92009   0.00000  Uiso   1.00
C199   C     0.09039   0.31809   0.91059   0.00000  Uiso   1.00
C200   C     0.14781   0.36871   0.93659   0.00000  Uiso   1.00
C201   C     0.13624   0.44736   0.92221   0.00000  Uiso   1.00
C202   C     0.08280   0.19657   0.83689   0.00000  Uiso   1.00
C203   C     0.13384   0.14500   0.80094   0.00000  Uiso   1.00
C204   C     0.11589   0.12132   0.72453   0.00000  Uiso   1.00
C205   C     0.01633   0.20912   0.96359   0.00000  Uiso   1.00
C206   C     0.01148   0.16809   0.03415   0.00000  Uiso   1.00
C207   C     0.93757   0.15497   0.06439   0.00000  Uiso   1.00
H208   H     0.91668   0.30057   0.81797   0.00000  Uiso   1.00
H209   H     0.96057   0.44450   0.82702   0.00000  Uiso   1.00
H210   H     0.94660   0.22081   0.69140   0.00000  Uiso   1.00
H211   H     0.82426   0.24391   0.92457   0.00000  Uiso   1.00
H212   H     0.03861   0.59218   0.85421   0.00000  Uiso   1.00
H213   H     0.00914   0.12050   0.56825   0.00000  Uiso   1.00
H214   H     0.75116   0.16919   0.05994   0.00000  Uiso   1.00
H215   H     0.14305   0.20892   0.95043   0.00000  Uiso   1.00
H216   H     0.19935   0.34782   0.96675   0.00000  Uiso   1.00
H217   H     0.18538   0.12413   0.83112   0.00000  Uiso   1.00
H218   H     0.06304   0.14723   0.06429   0.00000  Uiso   1.00
H219   H     0.23242   0.51371   0.96762   0.00000  Uiso   1.00
H220   H     0.20295   0.04202   0.68166   0.00000  Uiso   1.00
H221   H     0.94497   0.09073   0.17335   0.00000  Uiso   1.00
O222   O     0.16848   0.64597   0.91923   0.00000  Uiso   1.00
O223   O     0.12981   0.02713   0.54407   0.00000  Uiso   1.00
O224   O     0.79135   0.09103   0.18915   0.00000  Uiso   1.00
N225   N     0.07649   0.55465   0.87868   0.00000  Uiso   1.00
N226   N     0.04894   0.11366   0.61132   0.00000  Uiso   1.00
N227   N     0.80775   0.15917   0.07099   0.00000  Uiso   1.00
N228   N     0.18077   0.51242   0.93970   0.00000  Uiso   1.00
N229   N     0.15323   0.07144   0.67234   0.00000  Uiso   1.00
N230   N     0.91204   0.11695   0.13202   0.00000  Uiso   1.00
C231   C     0.03146   0.72042   0.34832   0.00000  Uiso   1.00
C232   C     0.97623   0.65493   0.37161   0.00000  Uiso   1.00
C233   C     0.98788   0.57635   0.35719   0.00000  Uiso   1.00
C234   C     0.93049   0.52562   0.38316   0.00000  Uiso   1.00
C235   C     0.85485   0.41983   0.41336   0.00000  Uiso   1.00
C236   C     0.98381   0.77646   0.29792   0.00000  Uiso   1.00
C237   C     0.00184   0.80007   0.22154   0.00000  Uiso   1.00
C238   C     0.95084   0.85165   0.18548   0.00000  Uiso   1.00
C239   C     0.88700   0.93459   0.10129   0.00000  Uiso   1.00
C240   C     0.05028   0.76391   0.42461   0.00000  Uiso   1.00
C241   C     0.12421   0.77697   0.45475   0.00000  Uiso   1.00
C242   C     0.12917   0.81801   0.52534   0.00000  Uiso   1.00
C243   C     0.16853   0.88144   0.63786   0.00000  Uiso   1.00
C244   C     0.90882   0.77008   0.42009   0.00000  Uiso   1.00
C245   C     0.90961   0.68191   0.41059   0.00000  Uiso   1.00
C246   C     0.85219   0.63129   0.43659   0.00000  Uiso   1.00
C247   C     0.86376   0.55264   0.42221   0.00000  Uiso   1.00
C248   C     0.91720   0.80343   0.33689   0.00000  Uiso   1.00
C249   C     0.86616   0.85500   0.30094   0.00000  Uiso   1.00
C250   C     0.88411   0.87868   0.22453   0.00000  Uiso   1.00
C251   C     0.98367   0.79088   0.46359   0.00000  Uiso   1.00
C252   C     0.98852   0.83191   0.53415   0.00000  Uiso   1.00
C253   C     0.06243   0.84503   0.56439   0.00000  Uiso   1.00
H254   H     0.08332   0.69943   0.31797   0.00000  Uiso   1.00
H255   H     0.03943   0.55550   0.32702   0.00000  Uiso   1.00
H256   H     0.05340   0.77919   0.19140   0.00000  Uiso   1.00
H257   H     0.17574   0.75609   0.42457   0.00000  Uiso   1.00
H258   H     0.96139   0.40782   0.35421   0.00000  Uiso   1.00
H259   H     0.99086   0.87950   0.06825   0.00000  Uiso   1.00
H260   H     0.24884   0.83081   0.55994   0.00000  Uiso   1.00
H261   H     0.85695   0.79108   0.45043   0.00000  Uiso   1.00
H262   H     0.80065   0.65218   0.46675   0.00000  Uiso   1.00
H263   H     0.81462   0.87587   0.33112   0.00000  Uiso   1.00
H264   H     0.93696   0.85277   0.56429   0.00000  Uiso   1.00
H265   H     0.76758   0.48629   0.46762   0.00000  Uiso   1.00
H266   H     0.79705   0.95798   0.18166   0.00000  Uiso   1.00
H267   H     0.05503   0.90927   0.67335   0.00000  Uiso   1.00
O268   O     0.83152   0.35403   0.41923   0.00000  Uiso   1.00
O269   O     0.87019   0.97287   0.04407   0.00000  Uiso   1.00
O270   O     0.20865   0.90897   0.68915   0.00000  Uiso   1.00
N271   N     0.92351   0.44535   0.37868   0.00000  Uiso   1.00
N272   N     0.95106   0.88634   0.11132   0.00000  Uiso   1.00
N273   N     0.19225   0.84083   0.57099   0.00000  Uiso   1.00
N274   N     0.81923   0.48758   0.43970   0.00000  Uiso   1.00
N275   N     0.84677   0.92856   0.17234   0.00000  Uiso   1.00
N276   N     0.08796   0.88305   0.63202   0.00000  Uiso   1.00
C277   C     0.77958   0.53146   0.09832   0.00000  Uiso   1.00
C278   C     0.84507   0.47623   0.12161   0.00000  Uiso   1.00
C279   C     0.92365   0.48788   0.10719   0.00000  Uiso   1.00
C280   C     0.97438   0.43049   0.13316   0.00000  Uiso   1.00
C281   C     0.08017   0.35485   0.16336   0.00000  Uiso   1.00
C282   C     0.72354   0.48381   0.04792   0.00000  Uiso   1.00
C283   C     0.69993   0.50184   0.97154   0.00000  Uiso   1.00
C284   C     0.64835   0.45084   0.93548   0.00000  Uiso   1.00
C285   C     0.56541   0.38700   0.85129   0.00000  Uiso   1.00
C286   C     0.73609   0.55028   0.17461   0.00000  Uiso   1.00
C287   C     0.72303   0.62421   0.20475   0.00000  Uiso   1.00
C288   C     0.68199   0.62917   0.27534   0.00000  Uiso   1.00
C289   C     0.61856   0.66853   0.38786   0.00000  Uiso   1.00
C290   C     0.72992   0.40882   0.17009   0.00000  Uiso   1.00
C291   C     0.81809   0.40961   0.16059   0.00000  Uiso   1.00
C292   C     0.86871   0.35219   0.18659   0.00000  Uiso   1.00
C293   C     0.94736   0.36376   0.17221   0.00000  Uiso   1.00
C294   C     0.69657   0.41720   0.08689   0.00000  Uiso   1.00
C295   C     0.64500   0.36616   0.05094   0.00000  Uiso   1.00
C296   C     0.62132   0.38411   0.97453   0.00000  Uiso   1.00
C297   C     0.70912   0.48367   0.21359   0.00000  Uiso   1.00
C298   C     0.66809   0.48852   0.28415   0.00000  Uiso   1.00
C299   C     0.65497   0.56243   0.31439   0.00000  Uiso   1.00
H300   H     0.80057   0.58332   0.06797   0.00000  Uiso   1.00
H301   H     0.94450   0.53943   0.07702   0.00000  Uiso   1.00
H302   H     0.72081   0.55340   0.94140   0.00000  Uiso   1.00
H303   H     0.74391   0.67574   0.17457   0.00000  Uiso   1.00
H304   H     0.09218   0.46139   0.10421   0.00000  Uiso   1.00
H305   H     0.62050   0.49086   0.81825   0.00000  Uiso   1.00
H306   H     0.66919   0.74884   0.30994   0.00000  Uiso   1.00
H307   H     0.70892   0.35695   0.20043   0.00000  Uiso   1.00
H308   H     0.84782   0.30065   0.21675   0.00000  Uiso   1.00
H309   H     0.62413   0.31462   0.08112   0.00000  Uiso   1.00
H310   H     0.64723   0.43696   0.31429   0.00000  Uiso   1.00
H311   H     0.01371   0.26758   0.21762   0.00000  Uiso   1.00
H312   H     0.54202   0.29705   0.93166   0.00000  Uiso   1.00
H313   H     0.59073   0.55503   0.42335   0.00000  Uiso   1.00
O314   O     0.14597   0.33152   0.16923   0.00000  Uiso   1.00
O315   O     0.52713   0.37019   0.79407   0.00000  Uiso   1.00
O316   O     0.59103   0.70865   0.43915   0.00000  Uiso   1.00
N317   N     0.05465   0.42351   0.12868   0.00000  Uiso   1.00
N318   N     0.61366   0.45106   0.86132   0.00000  Uiso   1.00
N319   N     0.65917   0.69225   0.32099   0.00000  Uiso   1.00
N320   N     0.01242   0.31923   0.18970   0.00000  Uiso   1.00
N321   N     0.57144   0.34677   0.92234   0.00000  Uiso   1.00
N322   N     0.61695   0.58796   0.38202   0.00000  Uiso   1.00
C323   C     0.22042   0.46854   0.59832   0.00000  Uiso   1.00
C324   C     0.15493   0.52377   0.62161   0.00000  Uiso   1.00
C325   C     0.07635   0.51212   0.60719   0.00000  Uiso   1.00
C326   C     0.02562   0.56951   0.63316   0.00000  Uiso   1.00
C327   C     0.91983   0.64515   0.66336   0.00000  Uiso   1.00
C328   C     0.27646   0.51619   0.54792   0.00000  Uiso   1.00
C329   C     0.30007   0.49816   0.47154   0.00000  Uiso   1.00
C330   C     0.35165   0.54916   0.43548   0.00000  Uiso   1.00
C331   C     0.43459   0.61300   0.35129   0.00000  Uiso   1.00
C332   C     0.26391   0.44972   0.67461   0.00000  Uiso   1.00
C333   C     0.27697   0.37579   0.70475   0.00000  Uiso   1.00
C334   C     0.31801   0.37083   0.77534   0.00000  Uiso   1.00
C335   C     0.38144   0.33147   0.88786   0.00000  Uiso   1.00
C336   C     0.27008   0.59118   0.67009   0.00000  Uiso   1.00
C337   C     0.18191   0.59039   0.66059   0.00000  Uiso   1.00
C338   C     0.13129   0.64781   0.68659   0.00000  Uiso   1.00
C339   C     0.05264   0.63624   0.67221   0.00000  Uiso   1.00
C340   C     0.30343   0.58280   0.58689   0.00000  Uiso   1.00
C341   C     0.35500   0.63384   0.55094   0.00000  Uiso   1.00
C342   C     0.37868   0.61589   0.47453   0.00000  Uiso   1.00
C343   C     0.29088   0.51633   0.71359   0.00000  Uiso   1.00
C344   C     0.33191   0.51148   0.78415   0.00000  Uiso   1.00
C345   C     0.34503   0.43757   0.81439   0.00000  Uiso   1.00
H346   H     0.19943   0.41668   0.56797   0.00000  Uiso   1.00
H347   H     0.05550   0.46057   0.57702   0.00000  Uiso   1.00
H348   H     0.27919   0.44660   0.44140   0.00000  Uiso   1.00
H349   H     0.25609   0.32426   0.67457   0.00000  Uiso   1.00
H350   H     0.90782   0.53861   0.60421   0.00000  Uiso   1.00
H351   H     0.37950   0.50914   0.31825   0.00000  Uiso   1.00
H352   H     0.33081   0.25116   0.80994   0.00000  Uiso   1.00
H353   H     0.29108   0.64305   0.70043   0.00000  Uiso   1.00
H354   H     0.15218   0.69935   0.71675   0.00000  Uiso   1.00
H355   H     0.37587   0.68538   0.58112   0.00000  Uiso   1.00
H356   H     0.35277   0.56304   0.81429   0.00000  Uiso   1.00
H357   H     0.98629   0.73242   0.71762   0.00000  Uiso   1.00
H358   H     0.45798   0.70295   0.43166   0.00000  Uiso   1.00
H359   H     0.40927   0.44497   0.92335   0.00000  Uiso   1.00
O360   O     0.85403   0.66848   0.66923   0.00000  Uiso   1.00
O361   O     0.47287   0.62981   0.29407   0.00000  Uiso   1.00
O362   O     0.40897   0.29135   0.93915   0.00000  Uiso   1.00
N363   N     0.94535   0.57649   0.62868   0.00000  Uiso   1.00
N364   N     0.38634   0.54894   0.36132   0.00000  Uiso   1.00
N365   N     0.34083   0.30775   0.82099   0.00000  Uiso   1.00
N366   N     0.98758   0.68077   0.68970   0.00000  Uiso   1.00
N367   N     0.42856   0.65323   0.42234   0.00000  Uiso   1.00
N368   N     0.38305   0.41204   0.88202   0.00000  Uiso   1.00
