data_job_03180
_audit_creation_date              2018-12-19
_audit_creation_method            'Materials Studio'
_symmetry_space_group_name_H-M    'P1'
_symmetry_Int_Tables_number       1
_symmetry_cell_setting            triclinic
loop_
_symmetry_equiv_pos_as_xyz
  x,y,z
_cell_length_a                    12.0502
_cell_length_b                    14.8150
_cell_length_c                    15.5236
_cell_angle_alpha                 86.0612
_cell_angle_beta                  96.8062
_cell_angle_gamma                 100.1950
loop_
_atom_site_label
_atom_site_type_symbol
_atom_site_fract_x
_atom_site_fract_y
_atom_site_fract_z
_atom_site_U_iso_or_equiv
_atom_site_adp_type
_atom_site_occupancy
C1     C     0.00364   0.78390   0.13989   0.00000  Uiso   1.00
C2     C     0.95943   0.69702   0.19257   0.00000  Uiso   1.00
C3     C     0.00007   0.67368   0.27708   0.00000  Uiso   1.00
C4     C     0.94828   0.59121   0.31388   0.00000  Uiso   1.00
C5     C     0.89324   0.46494   0.40268   0.00000  Uiso   1.00
C6     C     0.03744   0.75177   0.05699   0.00000  Uiso   1.00
C7     C     0.14366   0.77449   0.02751   0.00000  Uiso   1.00
C8     C     0.15752   0.73811   0.95018   0.00000  Uiso   1.00
C9     C     0.22356   0.69691   0.82847   0.00000  Uiso   1.00
C10    C     0.90151   0.83098   0.11190   0.00000  Uiso   1.00
C11    C     0.89345   0.92030   0.12857   0.00000  Uiso   1.00
C12    C     0.79288   0.95062   0.09745   0.00000  Uiso   1.00
C13    C     0.64788   0.03240   0.06099   0.00000  Uiso   1.00
C14    C     0.83940   0.67893   0.05496   0.00000  Uiso   1.00
C15    C     0.87022   0.64000   0.14643   0.00000  Uiso   1.00
C16    C     0.81835   0.55754   0.18312   0.00000  Uiso   1.00
C17    C     0.85890   0.53409   0.26768   0.00000  Uiso   1.00
C18    C     0.94823   0.69475   0.01086   0.00000  Uiso   1.00
C19    C     0.96194   0.65834   0.93355   0.00000  Uiso   1.00
C20    C     0.06815   0.68099   0.90397   0.00000  Uiso   1.00
C21    C     0.81230   0.77396   0.06577   0.00000  Uiso   1.00
C22    C     0.71173   0.80415   0.03461   0.00000  Uiso   1.00
C23    C     0.70351   0.89350   0.05123   0.00000  Uiso   1.00
H24    H     0.07310   0.82830   0.17580   0.00000  Uiso   1.00
H25    H     0.06912   0.71782   0.31275   0.00000  Uiso   1.00
H26    H     0.21267   0.81862   0.06322   0.00000  Uiso   1.00
H27    H     0.96250   0.96441   0.16427   0.00000  Uiso   1.00
H28    H     0.02538   0.57018   0.44424   0.00000  Uiso   1.00
H29    H     0.32807   0.78274   0.91808   0.00000  Uiso   1.00
H30    H     0.80054   0.09017   0.13115   0.00000  Uiso   1.00
H31    H     0.76994   0.63454   0.01904   0.00000  Uiso   1.00
H32    H     0.74931   0.51343   0.14741   0.00000  Uiso   1.00
H33    H     0.89288   0.61422   0.89787   0.00000  Uiso   1.00
H34    H     0.64271   0.76001   0.99892   0.00000  Uiso   1.00
H35    H     0.76583   0.40428   0.31004   0.00000  Uiso   1.00
H36    H     0.06852   0.61685   0.78387   0.00000  Uiso   1.00
H37    H     0.54098   0.92427   0.99694   0.00000  Uiso   1.00
O38    O     0.88753   0.41105   0.46440   0.00000  Uiso   1.00
O39    O     0.28464   0.68993   0.77408   0.00000  Uiso   1.00
O40    O     0.59253   0.09326   0.05363   0.00000  Uiso   1.00
N41    N     0.96711   0.54777   0.39505   0.00000  Uiso   1.00
N42    N     0.25011   0.74648   0.90312   0.00000  Uiso   1.00
N43    N     0.75693   0.03391   0.10230   0.00000  Uiso   1.00
N44    N     0.82744   0.45850   0.32284   0.00000  Uiso   1.00
N45    N     0.11045   0.65722   0.83091   0.00000  Uiso   1.00
N46    N     0.61726   0.94464   0.03009   0.00000  Uiso   1.00
C47    C     0.99636   0.21610   0.86011   0.00000  Uiso   1.00
C48    C     0.04057   0.30298   0.80743   0.00000  Uiso   1.00
C49    C     0.99993   0.32632   0.72292   0.00000  Uiso   1.00
C50    C     0.05172   0.40879   0.68612   0.00000  Uiso   1.00
C51    C     0.10676   0.53506   0.59732   0.00000  Uiso   1.00
C52    C     0.96256   0.24823   0.94301   0.00000  Uiso   1.00
C53    C     0.85634   0.22551   0.97249   0.00000  Uiso   1.00
C54    C     0.84248   0.26189   0.04982   0.00000  Uiso   1.00
C55    C     0.77644   0.30309   0.17153   0.00000  Uiso   1.00
C56    C     0.09849   0.16902   0.88810   0.00000  Uiso   1.00
C57    C     0.10655   0.07970   0.87143   0.00000  Uiso   1.00
C58    C     0.20712   0.04938   0.90255   0.00000  Uiso   1.00
C59    C     0.35212   0.96760   0.93901   0.00000  Uiso   1.00
C60    C     0.16060   0.32107   0.94504   0.00000  Uiso   1.00
C61    C     0.12978   0.36000   0.85357   0.00000  Uiso   1.00
C62    C     0.18165   0.44246   0.81688   0.00000  Uiso   1.00
C63    C     0.14110   0.46591   0.73232   0.00000  Uiso   1.00
C64    C     0.05177   0.30525   0.98914   0.00000  Uiso   1.00
C65    C     0.03806   0.34166   0.06645   0.00000  Uiso   1.00
C66    C     0.93185   0.31901   0.09603   0.00000  Uiso   1.00
C67    C     0.18770   0.22604   0.93423   0.00000  Uiso   1.00
C68    C     0.28827   0.19585   0.96539   0.00000  Uiso   1.00
C69    C     0.29649   0.10650   0.94877   0.00000  Uiso   1.00
H70    H     0.92690   0.17170   0.82420   0.00000  Uiso   1.00
H71    H     0.93088   0.28218   0.68725   0.00000  Uiso   1.00
H72    H     0.78733   0.18138   0.93678   0.00000  Uiso   1.00
H73    H     0.03750   0.03559   0.83573   0.00000  Uiso   1.00
H74    H     0.97462   0.42982   0.55576   0.00000  Uiso   1.00
H75    H     0.67193   0.21726   0.08192   0.00000  Uiso   1.00
H76    H     0.19946   0.90983   0.86885   0.00000  Uiso   1.00
H77    H     0.23006   0.36546   0.98096   0.00000  Uiso   1.00
H78    H     0.25069   0.48657   0.85259   0.00000  Uiso   1.00
H79    H     0.10712   0.38578   0.10213   0.00000  Uiso   1.00
H80    H     0.35729   0.23999   0.00108   0.00000  Uiso   1.00
H81    H     0.23417   0.59572   0.68996   0.00000  Uiso   1.00
H82    H     0.93148   0.38315   0.21613   0.00000  Uiso   1.00
H83    H     0.45902   0.07573   0.00306   0.00000  Uiso   1.00
O84    O     0.11247   0.58895   0.53560   0.00000  Uiso   1.00
O85    O     0.71536   0.31007   0.22592   0.00000  Uiso   1.00
O86    O     0.40747   0.90674   0.94637   0.00000  Uiso   1.00
N87    N     0.03289   0.45223   0.60495   0.00000  Uiso   1.00
N88    N     0.74989   0.25352   0.09688   0.00000  Uiso   1.00
N89    N     0.24307   0.96609   0.89770   0.00000  Uiso   1.00
N90    N     0.17256   0.54150   0.67716   0.00000  Uiso   1.00
N91    N     0.88955   0.34278   0.16909   0.00000  Uiso   1.00
N92    N     0.38274   0.05536   0.96991   0.00000  Uiso   1.00
