data_job_03408
_audit_creation_date              2018-12-19
_audit_creation_method            'Materials Studio'
_symmetry_space_group_name_H-M    'P1'
_symmetry_Int_Tables_number       1
_symmetry_cell_setting            triclinic
loop_
_symmetry_equiv_pos_as_xyz
  x,y,z
_cell_length_a                    22.0293
_cell_length_b                    12.9263
_cell_length_c                    9.2652
_cell_angle_alpha                 90.0000
_cell_angle_beta                  71.5424
_cell_angle_gamma                 90.0000
loop_
_atom_site_label
_atom_site_type_symbol
_atom_site_fract_x
_atom_site_fract_y
_atom_site_fract_z
_atom_site_U_iso_or_equiv
_atom_site_adp_type
_atom_site_occupancy
C1     C     0.61530   0.51433   0.73702   0.00000  Uiso   1.00
C2     C     0.68473   0.48638   0.65230   0.00000  Uiso   1.00
C3     C     0.72371   0.53483   0.52227   0.00000  Uiso   1.00
C4     C     0.78579   0.49781   0.46196   0.00000  Uiso   1.00
C5     C     0.89019   0.46694   0.32011   0.00000  Uiso   1.00
C6     C     0.57680   0.41545   0.74326   0.00000  Uiso   1.00
C7     C     0.52502   0.40426   0.68972   0.00000  Uiso   1.00
C8     C     0.49624   0.30753   0.70599   0.00000  Uiso   1.00
C9     C     0.43305   0.16656   0.70545   0.00000  Uiso   1.00
C10    C     0.61244   0.53704   0.90055   0.00000  Uiso   1.00
C11    C     0.59061   0.62808   0.97928   0.00000  Uiso   1.00
C12    C     0.59182   0.63371   0.12800   0.00000  Uiso   1.00
C13    C     0.58397   0.68152   0.37168   0.00000  Uiso   1.00
C14    C     0.65624   0.36243   0.86114   0.00000  Uiso   1.00
C15    C     0.70696   0.40388   0.71972   0.00000  Uiso   1.00
C16    C     0.76900   0.36677   0.65959   0.00000  Uiso   1.00
C17    C     0.80806   0.41516   0.52949   0.00000  Uiso   1.00
C18    C     0.59903   0.33295   0.81067   0.00000  Uiso   1.00
C19    C     0.57031   0.23621   0.82704   0.00000  Uiso   1.00
C20    C     0.51851   0.22487   0.77353   0.00000  Uiso   1.00
C21    C     0.63467   0.45454   0.96797   0.00000  Uiso   1.00
C22    C     0.63591   0.46002   0.11660   0.00000  Uiso   1.00
C23    C     0.61410   0.55105   0.19554   0.00000  Uiso   1.00
H24    H     0.59799   0.57855   0.68454   0.00000  Uiso   1.00
H25    H     0.70648   0.59867   0.47012   0.00000  Uiso   1.00
H26    H     0.50782   0.46813   0.63756   0.00000  Uiso   1.00
H27    H     0.57341   0.69191   0.92708   0.00000  Uiso   1.00
H28    H     0.83656   0.58456   0.26211   0.00000  Uiso   1.00
H29    H     0.41767   0.30932   0.61521   0.00000  Uiso   1.00
H30    H     0.55596   0.78120   0.22571   0.00000  Uiso   1.00
H31    H     0.67355   0.29819   0.91363   0.00000  Uiso   1.00
H32    H     0.78619   0.30292   0.71179   0.00000  Uiso   1.00
H33    H     0.58753   0.17238   0.87922   0.00000  Uiso   1.00
H34    H     0.65312   0.39616   0.16873   0.00000  Uiso   1.00
H35    H     0.90126   0.34452   0.45825   0.00000  Uiso   1.00
H36    H     0.48236   0.06928   0.81135   0.00000  Uiso   1.00
H37    H     0.62066   0.54116   0.42184   0.00000  Uiso   1.00
O38    O     0.94164   0.47269   0.22324   0.00000  Uiso   1.00
O39    O     0.39206   0.11159   0.68652   0.00000  Uiso   1.00
O40    O     0.57351   0.73069   0.48746   0.00000  Uiso   1.00
N41    N     0.83633   0.52743   0.33599   0.00000  Uiso   1.00
N42    N     0.44470   0.27009   0.66609   0.00000  Uiso   1.00
N43    N     0.57398   0.71125   0.23687   0.00000  Uiso   1.00
N44    N     0.87114   0.39827   0.44153   0.00000  Uiso   1.00
N45    N     0.47951   0.14093   0.77163   0.00000  Uiso   1.00
N46    N     0.60879   0.58209   0.34241   0.00000  Uiso   1.00
C47    C     0.11530   0.01433   0.73702   0.00000  Uiso   1.00
C48    C     0.18473   0.98638   0.65230   0.00000  Uiso   1.00
C49    C     0.22371   0.03483   0.52227   0.00000  Uiso   1.00
C50    C     0.28579   0.99781   0.46196   0.00000  Uiso   1.00
C51    C     0.39019   0.96694   0.32011   0.00000  Uiso   1.00
C52    C     0.07680   0.91545   0.74326   0.00000  Uiso   1.00
C53    C     0.02502   0.90426   0.68972   0.00000  Uiso   1.00
C54    C     0.99624   0.80753   0.70599   0.00000  Uiso   1.00
C55    C     0.93305   0.66656   0.70545   0.00000  Uiso   1.00
C56    C     0.11244   0.03704   0.90055   0.00000  Uiso   1.00
C57    C     0.09061   0.12808   0.97928   0.00000  Uiso   1.00
C58    C     0.09182   0.13371   0.12800   0.00000  Uiso   1.00
C59    C     0.08397   0.18152   0.37168   0.00000  Uiso   1.00
C60    C     0.15624   0.86243   0.86114   0.00000  Uiso   1.00
C61    C     0.20696   0.90388   0.71972   0.00000  Uiso   1.00
C62    C     0.26900   0.86677   0.65959   0.00000  Uiso   1.00
C63    C     0.30806   0.91516   0.52949   0.00000  Uiso   1.00
C64    C     0.09903   0.83295   0.81067   0.00000  Uiso   1.00
C65    C     0.07031   0.73621   0.82704   0.00000  Uiso   1.00
C66    C     0.01851   0.72487   0.77353   0.00000  Uiso   1.00
C67    C     0.13467   0.95454   0.96797   0.00000  Uiso   1.00
C68    C     0.13591   0.96002   0.11660   0.00000  Uiso   1.00
C69    C     0.11410   0.05105   0.19554   0.00000  Uiso   1.00
H70    H     0.09799   0.07855   0.68454   0.00000  Uiso   1.00
H71    H     0.20648   0.09867   0.47012   0.00000  Uiso   1.00
H72    H     0.00782   0.96813   0.63756   0.00000  Uiso   1.00
H73    H     0.07341   0.19191   0.92708   0.00000  Uiso   1.00
H74    H     0.33656   0.08456   0.26211   0.00000  Uiso   1.00
H75    H     0.91767   0.80932   0.61521   0.00000  Uiso   1.00
H76    H     0.05596   0.28120   0.22571   0.00000  Uiso   1.00
H77    H     0.17355   0.79819   0.91363   0.00000  Uiso   1.00
H78    H     0.28619   0.80292   0.71179   0.00000  Uiso   1.00
H79    H     0.08753   0.67238   0.87922   0.00000  Uiso   1.00
H80    H     0.15312   0.89616   0.16873   0.00000  Uiso   1.00
H81    H     0.40126   0.84452   0.45825   0.00000  Uiso   1.00
H82    H     0.98236   0.56928   0.81135   0.00000  Uiso   1.00
H83    H     0.12066   0.04116   0.42184   0.00000  Uiso   1.00
O84    O     0.44164   0.97269   0.22324   0.00000  Uiso   1.00
O85    O     0.89206   0.61159   0.68652   0.00000  Uiso   1.00
O86    O     0.07351   0.23069   0.48746   0.00000  Uiso   1.00
N87    N     0.33633   0.02743   0.33599   0.00000  Uiso   1.00
N88    N     0.94470   0.77009   0.66609   0.00000  Uiso   1.00
N89    N     0.07398   0.21125   0.23687   0.00000  Uiso   1.00
N90    N     0.37114   0.89827   0.44153   0.00000  Uiso   1.00
N91    N     0.97951   0.64093   0.77163   0.00000  Uiso   1.00
N92    N     0.10879   0.08209   0.34241   0.00000  Uiso   1.00
C93    C     0.38470   0.51433   0.26298   0.00000  Uiso   1.00
C94    C     0.31527   0.48638   0.34770   0.00000  Uiso   1.00
C95    C     0.27629   0.53483   0.47773   0.00000  Uiso   1.00
C96    C     0.21421   0.49781   0.53804   0.00000  Uiso   1.00
C97    C     0.10981   0.46694   0.67989   0.00000  Uiso   1.00
C98    C     0.42320   0.41545   0.25674   0.00000  Uiso   1.00
C99    C     0.47498   0.40426   0.31028   0.00000  Uiso   1.00
C100   C     0.50376   0.30753   0.29401   0.00000  Uiso   1.00
C101   C     0.56695   0.16656   0.29455   0.00000  Uiso   1.00
C102   C     0.38756   0.53704   0.09945   0.00000  Uiso   1.00
C103   C     0.40939   0.62808   0.02072   0.00000  Uiso   1.00
C104   C     0.40818   0.63371   0.87200   0.00000  Uiso   1.00
C105   C     0.41603   0.68152   0.62832   0.00000  Uiso   1.00
C106   C     0.34376   0.36243   0.13886   0.00000  Uiso   1.00
C107   C     0.29304   0.40388   0.28028   0.00000  Uiso   1.00
C108   C     0.23100   0.36677   0.34041   0.00000  Uiso   1.00
C109   C     0.19194   0.41516   0.47051   0.00000  Uiso   1.00
C110   C     0.40097   0.33295   0.18933   0.00000  Uiso   1.00
C111   C     0.42969   0.23621   0.17296   0.00000  Uiso   1.00
C112   C     0.48149   0.22487   0.22647   0.00000  Uiso   1.00
C113   C     0.36533   0.45454   0.03203   0.00000  Uiso   1.00
C114   C     0.36409   0.46002   0.88340   0.00000  Uiso   1.00
C115   C     0.38590   0.55105   0.80446   0.00000  Uiso   1.00
H116   H     0.40201   0.57855   0.31546   0.00000  Uiso   1.00
H117   H     0.29352   0.59867   0.52988   0.00000  Uiso   1.00
H118   H     0.49218   0.46813   0.36244   0.00000  Uiso   1.00
H119   H     0.42659   0.69191   0.07292   0.00000  Uiso   1.00
H120   H     0.16344   0.58456   0.73789   0.00000  Uiso   1.00
H121   H     0.58233   0.30932   0.38479   0.00000  Uiso   1.00
H122   H     0.44404   0.78120   0.77429   0.00000  Uiso   1.00
H123   H     0.32645   0.29819   0.08637   0.00000  Uiso   1.00
H124   H     0.21381   0.30292   0.28821   0.00000  Uiso   1.00
H125   H     0.41247   0.17238   0.12078   0.00000  Uiso   1.00
H126   H     0.34688   0.39616   0.83127   0.00000  Uiso   1.00
H127   H     0.09874   0.34452   0.54175   0.00000  Uiso   1.00
H128   H     0.51764   0.06928   0.18865   0.00000  Uiso   1.00
H129   H     0.37934   0.54116   0.57816   0.00000  Uiso   1.00
O130   O     0.05836   0.47269   0.77676   0.00000  Uiso   1.00
O131   O     0.60794   0.11159   0.31348   0.00000  Uiso   1.00
O132   O     0.42649   0.73069   0.51254   0.00000  Uiso   1.00
N133   N     0.16367   0.52743   0.66401   0.00000  Uiso   1.00
N134   N     0.55530   0.27009   0.33391   0.00000  Uiso   1.00
N135   N     0.42602   0.71125   0.76313   0.00000  Uiso   1.00
N136   N     0.12886   0.39827   0.55847   0.00000  Uiso   1.00
N137   N     0.52049   0.14093   0.22837   0.00000  Uiso   1.00
N138   N     0.39121   0.58209   0.65759   0.00000  Uiso   1.00
C139   C     0.88470   0.01433   0.26298   0.00000  Uiso   1.00
C140   C     0.81527   0.98638   0.34770   0.00000  Uiso   1.00
C141   C     0.77629   0.03483   0.47773   0.00000  Uiso   1.00
C142   C     0.71421   0.99781   0.53804   0.00000  Uiso   1.00
C143   C     0.60981   0.96694   0.67989   0.00000  Uiso   1.00
C144   C     0.92320   0.91545   0.25674   0.00000  Uiso   1.00
C145   C     0.97498   0.90426   0.31028   0.00000  Uiso   1.00
C146   C     0.00376   0.80753   0.29401   0.00000  Uiso   1.00
C147   C     0.06695   0.66656   0.29455   0.00000  Uiso   1.00
C148   C     0.88756   0.03704   0.09945   0.00000  Uiso   1.00
C149   C     0.90939   0.12808   0.02072   0.00000  Uiso   1.00
C150   C     0.90818   0.13371   0.87200   0.00000  Uiso   1.00
C151   C     0.91603   0.18152   0.62832   0.00000  Uiso   1.00
C152   C     0.84376   0.86243   0.13886   0.00000  Uiso   1.00
C153   C     0.79304   0.90388   0.28028   0.00000  Uiso   1.00
C154   C     0.73100   0.86677   0.34041   0.00000  Uiso   1.00
C155   C     0.69194   0.91516   0.47051   0.00000  Uiso   1.00
C156   C     0.90097   0.83295   0.18933   0.00000  Uiso   1.00
C157   C     0.92969   0.73621   0.17296   0.00000  Uiso   1.00
C158   C     0.98149   0.72487   0.22647   0.00000  Uiso   1.00
C159   C     0.86533   0.95454   0.03203   0.00000  Uiso   1.00
C160   C     0.86409   0.96002   0.88340   0.00000  Uiso   1.00
C161   C     0.88590   0.05105   0.80446   0.00000  Uiso   1.00
H162   H     0.90201   0.07855   0.31546   0.00000  Uiso   1.00
H163   H     0.79352   0.09867   0.52988   0.00000  Uiso   1.00
H164   H     0.99218   0.96813   0.36244   0.00000  Uiso   1.00
H165   H     0.92659   0.19191   0.07292   0.00000  Uiso   1.00
H166   H     0.66344   0.08456   0.73789   0.00000  Uiso   1.00
H167   H     0.08233   0.80932   0.38479   0.00000  Uiso   1.00
H168   H     0.94404   0.28120   0.77429   0.00000  Uiso   1.00
H169   H     0.82645   0.79819   0.08637   0.00000  Uiso   1.00
H170   H     0.71381   0.80292   0.28821   0.00000  Uiso   1.00
H171   H     0.91247   0.67238   0.12078   0.00000  Uiso   1.00
H172   H     0.84688   0.89616   0.83127   0.00000  Uiso   1.00
H173   H     0.59874   0.84452   0.54175   0.00000  Uiso   1.00
H174   H     0.01764   0.56928   0.18865   0.00000  Uiso   1.00
H175   H     0.87934   0.04116   0.57816   0.00000  Uiso   1.00
O176   O     0.55836   0.97269   0.77676   0.00000  Uiso   1.00
O177   O     0.10794   0.61159   0.31348   0.00000  Uiso   1.00
O178   O     0.92649   0.23069   0.51254   0.00000  Uiso   1.00
N179   N     0.66367   0.02743   0.66401   0.00000  Uiso   1.00
N180   N     0.05530   0.77009   0.33391   0.00000  Uiso   1.00
N181   N     0.92602   0.21125   0.76313   0.00000  Uiso   1.00
N182   N     0.62886   0.89827   0.55847   0.00000  Uiso   1.00
N183   N     0.02049   0.64093   0.22837   0.00000  Uiso   1.00
N184   N     0.89121   0.08209   0.65759   0.00000  Uiso   1.00
