data_job_03533
_audit_creation_date              2018-12-19
_audit_creation_method            'Materials Studio'
_symmetry_space_group_name_H-M    'P1'
_symmetry_Int_Tables_number       1
_symmetry_cell_setting            triclinic
loop_
_symmetry_equiv_pos_as_xyz
  x,y,z
_cell_length_a                    18.2754
_cell_length_b                    18.2754
_cell_length_c                    13.7939
_cell_angle_alpha                 90.0000
_cell_angle_beta                  90.0000
_cell_angle_gamma                 90.0000
loop_
_atom_site_label
_atom_site_type_symbol
_atom_site_fract_x
_atom_site_fract_y
_atom_site_fract_z
_atom_site_U_iso_or_equiv
_atom_site_adp_type
_atom_site_occupancy
C1     C     0.67180   0.63247   0.41708   0.00000  Uiso   1.00
C2     C     0.62850   0.70002   0.38673   0.00000  Uiso   1.00
C3     C     0.58324   0.74108   0.44645   0.00000  Uiso   1.00
C4     C     0.54844   0.80089   0.40491   0.00000  Uiso   1.00
C5     C     0.47963   0.90301   0.37264   0.00000  Uiso   1.00
C6     C     0.64820   0.57135   0.34863   0.00000  Uiso   1.00
C7     C     0.61950   0.50422   0.37632   0.00000  Uiso   1.00
C8     C     0.60129   0.45571   0.30271   0.00000  Uiso   1.00
C9     C     0.56311   0.35805   0.21130   0.00000  Uiso   1.00
C10    C     0.75150   0.64880   0.39255   0.00000  Uiso   1.00
C11    C     0.80968   0.64677   0.45716   0.00000  Uiso   1.00
C12    C     0.87845   0.66346   0.42052   0.00000  Uiso   1.00
C13    C     0.00067   0.68605   0.39730   0.00000  Uiso   1.00
C14    C     0.69049   0.66569   0.23711   0.00000  Uiso   1.00
C15    C     0.63865   0.71806   0.28898   0.00000  Uiso   1.00
C16    C     0.60391   0.77783   0.24734   0.00000  Uiso   1.00
C17    C     0.55860   0.81897   0.30699   0.00000  Uiso   1.00
C18    C     0.65834   0.58939   0.25088   0.00000  Uiso   1.00
C19    C     0.64017   0.54097   0.17721   0.00000  Uiso   1.00
C20    C     0.61145   0.47378   0.20478   0.00000  Uiso   1.00
C21    C     0.76165   0.66684   0.29480   0.00000  Uiso   1.00
C22    C     0.83035   0.68353   0.25805   0.00000  Uiso   1.00
C23    C     0.88861   0.68153   0.32259   0.00000  Uiso   1.00
H24    H     0.66390   0.61843   0.49318   0.00000  Uiso   1.00
H25    H     0.57540   0.72710   0.52209   0.00000  Uiso   1.00
H26    H     0.61166   0.49027   0.45198   0.00000  Uiso   1.00
H27    H     0.80181   0.63281   0.53280   0.00000  Uiso   1.00
H28    H     0.48173   0.85552   0.51103   0.00000  Uiso   1.00
H29    H     0.55821   0.35615   0.36319   0.00000  Uiso   1.00
H30    H     0.95917   0.65672   0.53363   0.00000  Uiso   1.00
H31    H     0.69839   0.67973   0.16101   0.00000  Uiso   1.00
H32    H     0.61177   0.79177   0.17169   0.00000  Uiso   1.00
H33    H     0.64804   0.55494   0.10157   0.00000  Uiso   1.00
H34    H     0.83818   0.69748   0.18240   0.00000  Uiso   1.00
H35    H     0.51125   0.90801   0.22663   0.00000  Uiso   1.00
H36    H     0.58774   0.40864   0.07879   0.00000  Uiso   1.00
H37    H     0.98870   0.70921   0.24922   0.00000  Uiso   1.00
O38    O     0.43887   0.95435   0.38184   0.00000  Uiso   1.00
O39    O     0.53923   0.29919   0.18788   0.00000  Uiso   1.00
O40    O     0.06528   0.69353   0.41149   0.00000  Uiso   1.00
N41    N     0.50057   0.85251   0.44264   0.00000  Uiso   1.00
N42    N     0.57207   0.38563   0.30441   0.00000  Uiso   1.00
N43    N     0.94694   0.66662   0.46375   0.00000  Uiso   1.00
N44    N     0.51646   0.88075   0.28960   0.00000  Uiso   1.00
N45    N     0.58796   0.41388   0.15138   0.00000  Uiso   1.00
N46    N     0.96283   0.69486   0.31072   0.00000  Uiso   1.00
C47    C     0.17180   0.13247   0.91708   0.00000  Uiso   1.00
C48    C     0.12850   0.20002   0.88673   0.00000  Uiso   1.00
C49    C     0.08324   0.24108   0.94645   0.00000  Uiso   1.00
C50    C     0.04844   0.30089   0.90491   0.00000  Uiso   1.00
C51    C     0.97963   0.40301   0.87264   0.00000  Uiso   1.00
C52    C     0.14820   0.07135   0.84863   0.00000  Uiso   1.00
C53    C     0.11950   0.00422   0.87632   0.00000  Uiso   1.00
C54    C     0.10129   0.95571   0.80271   0.00000  Uiso   1.00
C55    C     0.06311   0.85805   0.71130   0.00000  Uiso   1.00
C56    C     0.25150   0.14880   0.89255   0.00000  Uiso   1.00
C57    C     0.30968   0.14677   0.95716   0.00000  Uiso   1.00
C58    C     0.37845   0.16346   0.92052   0.00000  Uiso   1.00
C59    C     0.50067   0.18605   0.89730   0.00000  Uiso   1.00
C60    C     0.19049   0.16569   0.73711   0.00000  Uiso   1.00
C61    C     0.13865   0.21806   0.78898   0.00000  Uiso   1.00
C62    C     0.10391   0.27783   0.74734   0.00000  Uiso   1.00
C63    C     0.05860   0.31897   0.80699   0.00000  Uiso   1.00
C64    C     0.15834   0.08939   0.75088   0.00000  Uiso   1.00
C65    C     0.14017   0.04097   0.67721   0.00000  Uiso   1.00
C66    C     0.11145   0.97378   0.70478   0.00000  Uiso   1.00
C67    C     0.26165   0.16684   0.79480   0.00000  Uiso   1.00
C68    C     0.33035   0.18353   0.75805   0.00000  Uiso   1.00
C69    C     0.38861   0.18153   0.82259   0.00000  Uiso   1.00
H70    H     0.16390   0.11843   0.99318   0.00000  Uiso   1.00
H71    H     0.07540   0.22710   0.02209   0.00000  Uiso   1.00
H72    H     0.11166   0.99027   0.95198   0.00000  Uiso   1.00
H73    H     0.30181   0.13281   0.03280   0.00000  Uiso   1.00
H74    H     0.98173   0.35552   0.01103   0.00000  Uiso   1.00
H75    H     0.05821   0.85615   0.86319   0.00000  Uiso   1.00
H76    H     0.45917   0.15672   0.03363   0.00000  Uiso   1.00
H77    H     0.19839   0.17973   0.66101   0.00000  Uiso   1.00
H78    H     0.11177   0.29177   0.67169   0.00000  Uiso   1.00
H79    H     0.14804   0.05494   0.60157   0.00000  Uiso   1.00
H80    H     0.33818   0.19748   0.68240   0.00000  Uiso   1.00
H81    H     0.01125   0.40801   0.72663   0.00000  Uiso   1.00
H82    H     0.08774   0.90864   0.57879   0.00000  Uiso   1.00
H83    H     0.48870   0.20921   0.74922   0.00000  Uiso   1.00
O84    O     0.93887   0.45435   0.88184   0.00000  Uiso   1.00
O85    O     0.03923   0.79919   0.68788   0.00000  Uiso   1.00
O86    O     0.56528   0.19353   0.91149   0.00000  Uiso   1.00
N87    N     0.00057   0.35251   0.94264   0.00000  Uiso   1.00
N88    N     0.07207   0.88563   0.80441   0.00000  Uiso   1.00
N89    N     0.44694   0.16662   0.96375   0.00000  Uiso   1.00
N90    N     0.01646   0.38075   0.78960   0.00000  Uiso   1.00
N91    N     0.08796   0.91388   0.65138   0.00000  Uiso   1.00
N92    N     0.46283   0.19486   0.81072   0.00000  Uiso   1.00
C93    C     0.32820   0.36753   0.41708   0.00000  Uiso   1.00
C94    C     0.37150   0.29998   0.38673   0.00000  Uiso   1.00
C95    C     0.41676   0.25892   0.44645   0.00000  Uiso   1.00
C96    C     0.45156   0.19911   0.40491   0.00000  Uiso   1.00
C97    C     0.52037   0.09699   0.37264   0.00000  Uiso   1.00
C98    C     0.35180   0.42865   0.34863   0.00000  Uiso   1.00
C99    C     0.38050   0.49578   0.37632   0.00000  Uiso   1.00
C100   C     0.39871   0.54429   0.30271   0.00000  Uiso   1.00
C101   C     0.43689   0.64195   0.21130   0.00000  Uiso   1.00
C102   C     0.24850   0.35120   0.39255   0.00000  Uiso   1.00
C103   C     0.19032   0.35323   0.45716   0.00000  Uiso   1.00
C104   C     0.12155   0.33654   0.42052   0.00000  Uiso   1.00
C105   C     0.99933   0.31395   0.39730   0.00000  Uiso   1.00
C106   C     0.30951   0.33431   0.23711   0.00000  Uiso   1.00
C107   C     0.36135   0.28194   0.28898   0.00000  Uiso   1.00
C108   C     0.39609   0.22217   0.24734   0.00000  Uiso   1.00
C109   C     0.44140   0.18103   0.30699   0.00000  Uiso   1.00
C110   C     0.34166   0.41061   0.25088   0.00000  Uiso   1.00
C111   C     0.35983   0.45903   0.17721   0.00000  Uiso   1.00
C112   C     0.38855   0.52622   0.20478   0.00000  Uiso   1.00
C113   C     0.23835   0.33316   0.29480   0.00000  Uiso   1.00
C114   C     0.16965   0.31647   0.25805   0.00000  Uiso   1.00
C115   C     0.11139   0.31847   0.32259   0.00000  Uiso   1.00
H116   H     0.33610   0.38157   0.49318   0.00000  Uiso   1.00
H117   H     0.42460   0.27290   0.52209   0.00000  Uiso   1.00
H118   H     0.38834   0.50973   0.45198   0.00000  Uiso   1.00
H119   H     0.19819   0.36719   0.53280   0.00000  Uiso   1.00
H120   H     0.51827   0.14448   0.51103   0.00000  Uiso   1.00
H121   H     0.44179   0.64385   0.36319   0.00000  Uiso   1.00
H122   H     0.04083   0.34328   0.53363   0.00000  Uiso   1.00
H123   H     0.30161   0.32027   0.16101   0.00000  Uiso   1.00
H124   H     0.38823   0.20823   0.17169   0.00000  Uiso   1.00
H125   H     0.35196   0.44506   0.10157   0.00000  Uiso   1.00
H126   H     0.16182   0.30252   0.18240   0.00000  Uiso   1.00
H127   H     0.48875   0.09199   0.22663   0.00000  Uiso   1.00
H128   H     0.41226   0.59136   0.07879   0.00000  Uiso   1.00
H129   H     0.01130   0.29079   0.24922   0.00000  Uiso   1.00
O130   O     0.56113   0.04565   0.38184   0.00000  Uiso   1.00
O131   O     0.46077   0.70081   0.18788   0.00000  Uiso   1.00
O132   O     0.93472   0.30647   0.41149   0.00000  Uiso   1.00
N133   N     0.49943   0.14749   0.44264   0.00000  Uiso   1.00
N134   N     0.42793   0.61437   0.30441   0.00000  Uiso   1.00
N135   N     0.05306   0.33338   0.46375   0.00000  Uiso   1.00
N136   N     0.48354   0.11925   0.28960   0.00000  Uiso   1.00
N137   N     0.41204   0.58612   0.15138   0.00000  Uiso   1.00
N138   N     0.03717   0.30514   0.31072   0.00000  Uiso   1.00
C139   C     0.82820   0.86753   0.91708   0.00000  Uiso   1.00
C140   C     0.87150   0.79998   0.88673   0.00000  Uiso   1.00
C141   C     0.91676   0.75892   0.94645   0.00000  Uiso   1.00
C142   C     0.95156   0.69911   0.90491   0.00000  Uiso   1.00
C143   C     0.02037   0.59699   0.87264   0.00000  Uiso   1.00
C144   C     0.85180   0.92865   0.84863   0.00000  Uiso   1.00
C145   C     0.88050   0.99578   0.87632   0.00000  Uiso   1.00
C146   C     0.89871   0.04429   0.80271   0.00000  Uiso   1.00
C147   C     0.93689   0.14195   0.71130   0.00000  Uiso   1.00
C148   C     0.74850   0.85120   0.89255   0.00000  Uiso   1.00
C149   C     0.69032   0.85323   0.95716   0.00000  Uiso   1.00
C150   C     0.62155   0.83654   0.92052   0.00000  Uiso   1.00
C151   C     0.49933   0.81395   0.89730   0.00000  Uiso   1.00
C152   C     0.80951   0.83431   0.73711   0.00000  Uiso   1.00
C153   C     0.86135   0.78194   0.78898   0.00000  Uiso   1.00
C154   C     0.89609   0.72217   0.74734   0.00000  Uiso   1.00
C155   C     0.94140   0.68103   0.80699   0.00000  Uiso   1.00
C156   C     0.84166   0.91061   0.75088   0.00000  Uiso   1.00
C157   C     0.85983   0.95903   0.67721   0.00000  Uiso   1.00
C158   C     0.88855   0.02622   0.70478   0.00000  Uiso   1.00
C159   C     0.73835   0.83316   0.79480   0.00000  Uiso   1.00
C160   C     0.66965   0.81647   0.75805   0.00000  Uiso   1.00
C161   C     0.61139   0.81847   0.82259   0.00000  Uiso   1.00
H162   H     0.83610   0.88157   0.99318   0.00000  Uiso   1.00
H163   H     0.92460   0.77290   0.02209   0.00000  Uiso   1.00
H164   H     0.88834   0.00973   0.95198   0.00000  Uiso   1.00
H165   H     0.69819   0.86719   0.03280   0.00000  Uiso   1.00
H166   H     0.01827   0.64448   0.01103   0.00000  Uiso   1.00
H167   H     0.94179   0.14385   0.86319   0.00000  Uiso   1.00
H168   H     0.54083   0.84328   0.03363   0.00000  Uiso   1.00
H169   H     0.80161   0.82027   0.66101   0.00000  Uiso   1.00
H170   H     0.88823   0.70823   0.67169   0.00000  Uiso   1.00
H171   H     0.85196   0.94506   0.60157   0.00000  Uiso   1.00
H172   H     0.66182   0.80252   0.68240   0.00000  Uiso   1.00
H173   H     0.98875   0.59199   0.72663   0.00000  Uiso   1.00
H174   H     0.91226   0.09136   0.57879   0.00000  Uiso   1.00
H175   H     0.51130   0.79079   0.74922   0.00000  Uiso   1.00
O176   O     0.06113   0.54565   0.88184   0.00000  Uiso   1.00
O177   O     0.96077   0.20081   0.68788   0.00000  Uiso   1.00
O178   O     0.43472   0.80647   0.91149   0.00000  Uiso   1.00
N179   N     0.99943   0.64749   0.94264   0.00000  Uiso   1.00
N180   N     0.92793   0.11437   0.80441   0.00000  Uiso   1.00
N181   N     0.55306   0.83338   0.96375   0.00000  Uiso   1.00
N182   N     0.98354   0.61925   0.78960   0.00000  Uiso   1.00
N183   N     0.91204   0.08612   0.65138   0.00000  Uiso   1.00
N184   N     0.53717   0.80514   0.81072   0.00000  Uiso   1.00
C185   C     0.63247   0.32820   0.58292   0.00000  Uiso   1.00
C186   C     0.70002   0.37150   0.61327   0.00000  Uiso   1.00
C187   C     0.74108   0.41676   0.55355   0.00000  Uiso   1.00
C188   C     0.80089   0.45156   0.59509   0.00000  Uiso   1.00
C189   C     0.90301   0.52037   0.62736   0.00000  Uiso   1.00
C190   C     0.57135   0.35180   0.65137   0.00000  Uiso   1.00
C191   C     0.50422   0.38050   0.62368   0.00000  Uiso   1.00
C192   C     0.45571   0.39871   0.69729   0.00000  Uiso   1.00
C193   C     0.35805   0.43689   0.78870   0.00000  Uiso   1.00
C194   C     0.64880   0.24850   0.60745   0.00000  Uiso   1.00
C195   C     0.64677   0.19032   0.54284   0.00000  Uiso   1.00
C196   C     0.66346   0.12155   0.57948   0.00000  Uiso   1.00
C197   C     0.68605   0.99933   0.60270   0.00000  Uiso   1.00
C198   C     0.66569   0.30951   0.76289   0.00000  Uiso   1.00
C199   C     0.71806   0.36135   0.71102   0.00000  Uiso   1.00
C200   C     0.77783   0.39609   0.75266   0.00000  Uiso   1.00
C201   C     0.81897   0.44140   0.69301   0.00000  Uiso   1.00
C202   C     0.58939   0.34166   0.74912   0.00000  Uiso   1.00
C203   C     0.54097   0.35983   0.82279   0.00000  Uiso   1.00
C204   C     0.47378   0.38855   0.79522   0.00000  Uiso   1.00
C205   C     0.66684   0.23835   0.70520   0.00000  Uiso   1.00
C206   C     0.68353   0.16965   0.74195   0.00000  Uiso   1.00
C207   C     0.68153   0.11139   0.67741   0.00000  Uiso   1.00
H208   H     0.61843   0.33610   0.50682   0.00000  Uiso   1.00
H209   H     0.72710   0.42460   0.47791   0.00000  Uiso   1.00
H210   H     0.49027   0.38834   0.54802   0.00000  Uiso   1.00
H211   H     0.63281   0.19819   0.46720   0.00000  Uiso   1.00
H212   H     0.85552   0.51827   0.48897   0.00000  Uiso   1.00
H213   H     0.35615   0.44179   0.63681   0.00000  Uiso   1.00
H214   H     0.65672   0.04083   0.46637   0.00000  Uiso   1.00
H215   H     0.67973   0.30161   0.83899   0.00000  Uiso   1.00
H216   H     0.79177   0.38823   0.82831   0.00000  Uiso   1.00
H217   H     0.55494   0.35196   0.89843   0.00000  Uiso   1.00
H218   H     0.69748   0.16182   0.81760   0.00000  Uiso   1.00
H219   H     0.90801   0.48875   0.77337   0.00000  Uiso   1.00
H220   H     0.40864   0.41226   0.92121   0.00000  Uiso   1.00
H221   H     0.70921   0.01130   0.75078   0.00000  Uiso   1.00
O222   O     0.95435   0.56113   0.61816   0.00000  Uiso   1.00
O223   O     0.29919   0.46077   0.81212   0.00000  Uiso   1.00
O224   O     0.69353   0.93472   0.58851   0.00000  Uiso   1.00
N225   N     0.85251   0.49943   0.55736   0.00000  Uiso   1.00
N226   N     0.38563   0.42793   0.69559   0.00000  Uiso   1.00
N227   N     0.66662   0.05306   0.53625   0.00000  Uiso   1.00
N228   N     0.88075   0.48354   0.71040   0.00000  Uiso   1.00
N229   N     0.41388   0.41204   0.84862   0.00000  Uiso   1.00
N230   N     0.69486   0.03717   0.68928   0.00000  Uiso   1.00
C231   C     0.13247   0.82820   0.08292   0.00000  Uiso   1.00
C232   C     0.20002   0.87150   0.11327   0.00000  Uiso   1.00
C233   C     0.24108   0.91676   0.05355   0.00000  Uiso   1.00
C234   C     0.30089   0.95156   0.09509   0.00000  Uiso   1.00
C235   C     0.40301   0.02037   0.12736   0.00000  Uiso   1.00
C236   C     0.07135   0.85180   0.15137   0.00000  Uiso   1.00
C237   C     0.00422   0.88050   0.12368   0.00000  Uiso   1.00
C238   C     0.95571   0.89871   0.19729   0.00000  Uiso   1.00
C239   C     0.85805   0.93689   0.28870   0.00000  Uiso   1.00
C240   C     0.14880   0.74850   0.10745   0.00000  Uiso   1.00
C241   C     0.14677   0.69032   0.04284   0.00000  Uiso   1.00
C242   C     0.16346   0.62155   0.07948   0.00000  Uiso   1.00
C243   C     0.18605   0.49933   0.10270   0.00000  Uiso   1.00
C244   C     0.16569   0.80951   0.26289   0.00000  Uiso   1.00
C245   C     0.21806   0.86135   0.21102   0.00000  Uiso   1.00
C246   C     0.27783   0.89609   0.25266   0.00000  Uiso   1.00
C247   C     0.31897   0.94140   0.19301   0.00000  Uiso   1.00
C248   C     0.08939   0.84166   0.24912   0.00000  Uiso   1.00
C249   C     0.04097   0.85983   0.32279   0.00000  Uiso   1.00
C250   C     0.97378   0.88855   0.29522   0.00000  Uiso   1.00
C251   C     0.16684   0.73835   0.20520   0.00000  Uiso   1.00
C252   C     0.18353   0.66965   0.24195   0.00000  Uiso   1.00
C253   C     0.18153   0.61139   0.17741   0.00000  Uiso   1.00
H254   H     0.11843   0.83610   0.00682   0.00000  Uiso   1.00
H255   H     0.22710   0.92460   0.97791   0.00000  Uiso   1.00
H256   H     0.99027   0.88834   0.04802   0.00000  Uiso   1.00
H257   H     0.13281   0.69819   0.96720   0.00000  Uiso   1.00
H258   H     0.35552   0.01827   0.98897   0.00000  Uiso   1.00
H259   H     0.85615   0.94179   0.13681   0.00000  Uiso   1.00
H260   H     0.15672   0.54083   0.96637   0.00000  Uiso   1.00
H261   H     0.17973   0.80161   0.33899   0.00000  Uiso   1.00
H262   H     0.29177   0.88823   0.32831   0.00000  Uiso   1.00
H263   H     0.05494   0.85196   0.39843   0.00000  Uiso   1.00
H264   H     0.19748   0.66182   0.31760   0.00000  Uiso   1.00
H265   H     0.40801   0.98875   0.27337   0.00000  Uiso   1.00
H266   H     0.90864   0.91226   0.42121   0.00000  Uiso   1.00
H267   H     0.20921   0.51130   0.25078   0.00000  Uiso   1.00
O268   O     0.45435   0.06113   0.11816   0.00000  Uiso   1.00
O269   O     0.79919   0.96077   0.31212   0.00000  Uiso   1.00
O270   O     0.19353   0.43472   0.08851   0.00000  Uiso   1.00
N271   N     0.35251   0.99943   0.05736   0.00000  Uiso   1.00
N272   N     0.88563   0.92793   0.19559   0.00000  Uiso   1.00
N273   N     0.16662   0.55306   0.03625   0.00000  Uiso   1.00
N274   N     0.38075   0.98354   0.21040   0.00000  Uiso   1.00
N275   N     0.91388   0.91204   0.34862   0.00000  Uiso   1.00
N276   N     0.19486   0.53717   0.18928   0.00000  Uiso   1.00
C277   C     0.36753   0.67180   0.58292   0.00000  Uiso   1.00
C278   C     0.29998   0.62850   0.61327   0.00000  Uiso   1.00
C279   C     0.25892   0.58324   0.55355   0.00000  Uiso   1.00
C280   C     0.19911   0.54844   0.59509   0.00000  Uiso   1.00
C281   C     0.09699   0.47963   0.62736   0.00000  Uiso   1.00
C282   C     0.42865   0.64820   0.65137   0.00000  Uiso   1.00
C283   C     0.49578   0.61950   0.62368   0.00000  Uiso   1.00
C284   C     0.54429   0.60129   0.69729   0.00000  Uiso   1.00
C285   C     0.64195   0.56311   0.78870   0.00000  Uiso   1.00
C286   C     0.35120   0.75150   0.60745   0.00000  Uiso   1.00
C287   C     0.35323   0.80968   0.54284   0.00000  Uiso   1.00
C288   C     0.33654   0.87845   0.57948   0.00000  Uiso   1.00
C289   C     0.31395   0.00067   0.60270   0.00000  Uiso   1.00
C290   C     0.33431   0.69049   0.76289   0.00000  Uiso   1.00
C291   C     0.28194   0.63865   0.71102   0.00000  Uiso   1.00
C292   C     0.22217   0.60391   0.75266   0.00000  Uiso   1.00
C293   C     0.18103   0.55860   0.69301   0.00000  Uiso   1.00
C294   C     0.41061   0.65834   0.74912   0.00000  Uiso   1.00
C295   C     0.45903   0.64017   0.82279   0.00000  Uiso   1.00
C296   C     0.52622   0.61145   0.79522   0.00000  Uiso   1.00
C297   C     0.33316   0.76165   0.70520   0.00000  Uiso   1.00
C298   C     0.31647   0.83035   0.74195   0.00000  Uiso   1.00
C299   C     0.31847   0.88861   0.67741   0.00000  Uiso   1.00
H300   H     0.38157   0.66390   0.50682   0.00000  Uiso   1.00
H301   H     0.27290   0.57540   0.47791   0.00000  Uiso   1.00
H302   H     0.50973   0.61166   0.54802   0.00000  Uiso   1.00
H303   H     0.36719   0.80181   0.46720   0.00000  Uiso   1.00
H304   H     0.14448   0.48173   0.48897   0.00000  Uiso   1.00
H305   H     0.64385   0.55821   0.63681   0.00000  Uiso   1.00
H306   H     0.34328   0.95917   0.46637   0.00000  Uiso   1.00
H307   H     0.32027   0.69839   0.83899   0.00000  Uiso   1.00
H308   H     0.20823   0.61177   0.82831   0.00000  Uiso   1.00
H309   H     0.44506   0.64804   0.89843   0.00000  Uiso   1.00
H310   H     0.30252   0.83818   0.81760   0.00000  Uiso   1.00
H311   H     0.09199   0.51125   0.77337   0.00000  Uiso   1.00
H312   H     0.59136   0.58774   0.92121   0.00000  Uiso   1.00
H313   H     0.29079   0.98870   0.75078   0.00000  Uiso   1.00
O314   O     0.04565   0.43887   0.61816   0.00000  Uiso   1.00
O315   O     0.70081   0.53923   0.81212   0.00000  Uiso   1.00
O316   O     0.30647   0.06528   0.58851   0.00000  Uiso   1.00
N317   N     0.14749   0.50057   0.55736   0.00000  Uiso   1.00
N318   N     0.61437   0.57207   0.69559   0.00000  Uiso   1.00
N319   N     0.33338   0.94694   0.53625   0.00000  Uiso   1.00
N320   N     0.11925   0.51646   0.71040   0.00000  Uiso   1.00
N321   N     0.58612   0.58796   0.84862   0.00000  Uiso   1.00
N322   N     0.30514   0.96283   0.68928   0.00000  Uiso   1.00
C323   C     0.86753   0.17180   0.08292   0.00000  Uiso   1.00
C324   C     0.79998   0.12850   0.11327   0.00000  Uiso   1.00
C325   C     0.75892   0.08324   0.05355   0.00000  Uiso   1.00
C326   C     0.69911   0.04844   0.09509   0.00000  Uiso   1.00
C327   C     0.59699   0.97963   0.12736   0.00000  Uiso   1.00
C328   C     0.92865   0.14820   0.15137   0.00000  Uiso   1.00
C329   C     0.99578   0.11950   0.12368   0.00000  Uiso   1.00
C330   C     0.04429   0.10129   0.19729   0.00000  Uiso   1.00
C331   C     0.14195   0.06311   0.28870   0.00000  Uiso   1.00
C332   C     0.85120   0.25150   0.10745   0.00000  Uiso   1.00
C333   C     0.85323   0.30968   0.04284   0.00000  Uiso   1.00
C334   C     0.83654   0.37845   0.07948   0.00000  Uiso   1.00
C335   C     0.81395   0.50067   0.10270   0.00000  Uiso   1.00
C336   C     0.83431   0.19049   0.26289   0.00000  Uiso   1.00
C337   C     0.78194   0.13865   0.21102   0.00000  Uiso   1.00
C338   C     0.72217   0.10391   0.25266   0.00000  Uiso   1.00
C339   C     0.68103   0.05860   0.19301   0.00000  Uiso   1.00
C340   C     0.91061   0.15834   0.24912   0.00000  Uiso   1.00
C341   C     0.95903   0.14017   0.32279   0.00000  Uiso   1.00
C342   C     0.02622   0.11145   0.29522   0.00000  Uiso   1.00
C343   C     0.83316   0.26165   0.20520   0.00000  Uiso   1.00
C344   C     0.81647   0.33035   0.24195   0.00000  Uiso   1.00
C345   C     0.81847   0.38861   0.17741   0.00000  Uiso   1.00
H346   H     0.88157   0.16390   0.00682   0.00000  Uiso   1.00
H347   H     0.77290   0.07540   0.97791   0.00000  Uiso   1.00
H348   H     0.00973   0.11166   0.04802   0.00000  Uiso   1.00
H349   H     0.86719   0.30181   0.96720   0.00000  Uiso   1.00
H350   H     0.64448   0.98173   0.98897   0.00000  Uiso   1.00
H351   H     0.14385   0.05821   0.13681   0.00000  Uiso   1.00
H352   H     0.84328   0.45917   0.96637   0.00000  Uiso   1.00
H353   H     0.82027   0.19839   0.33899   0.00000  Uiso   1.00
H354   H     0.70823   0.11177   0.32831   0.00000  Uiso   1.00
H355   H     0.94506   0.14804   0.39843   0.00000  Uiso   1.00
H356   H     0.80252   0.33818   0.31760   0.00000  Uiso   1.00
H357   H     0.59199   0.01125   0.27337   0.00000  Uiso   1.00
H358   H     0.09136   0.08774   0.42121   0.00000  Uiso   1.00
H359   H     0.79079   0.48870   0.25078   0.00000  Uiso   1.00
O360   O     0.54565   0.93887   0.11816   0.00000  Uiso   1.00
O361   O     0.20081   0.03923   0.31212   0.00000  Uiso   1.00
O362   O     0.80647   0.56528   0.08851   0.00000  Uiso   1.00
N363   N     0.64749   0.00057   0.05736   0.00000  Uiso   1.00
N364   N     0.11437   0.07207   0.19559   0.00000  Uiso   1.00
N365   N     0.83338   0.44694   0.03625   0.00000  Uiso   1.00
N366   N     0.61925   0.01646   0.21040   0.00000  Uiso   1.00
N367   N     0.08612   0.08796   0.34862   0.00000  Uiso   1.00
N368   N     0.80514   0.46283   0.18928   0.00000  Uiso   1.00
