data_job_04184
_audit_creation_date              2018-12-19
_audit_creation_method            'Materials Studio'
_symmetry_space_group_name_H-M    'P1'
_symmetry_Int_Tables_number       1
_symmetry_cell_setting            triclinic
loop_
_symmetry_equiv_pos_as_xyz
  x,y,z
_cell_length_a                    16.9740
_cell_length_b                    23.1959
_cell_length_c                    16.4709
_cell_angle_alpha                 90.0000
_cell_angle_beta                  90.0000
_cell_angle_gamma                 90.0000
loop_
_atom_site_label
_atom_site_type_symbol
_atom_site_fract_x
_atom_site_fract_y
_atom_site_fract_z
_atom_site_U_iso_or_equiv
_atom_site_adp_type
_atom_site_occupancy
C1     C     0.83035   0.64275   0.10247   0.00000  Uiso   1.00
C2     C     0.76557   0.60350   0.13504   0.00000  Uiso   1.00
C3     C     0.75874   0.58426   0.21450   0.00000  Uiso   1.00
C4     C     0.69528   0.54863   0.23215   0.00000  Uiso   1.00
C5     C     0.60302   0.49007   0.29179   0.00000  Uiso   1.00
C6     C     0.86807   0.61032   0.03193   0.00000  Uiso   1.00
C7     C     0.94741   0.59681   0.02471   0.00000  Uiso   1.00
C8     C     0.97023   0.56693   0.95556   0.00000  Uiso   1.00
C9     C     0.03710   0.51898   0.85510   0.00000  Uiso   1.00
C10    C     0.78852   0.69451   0.06508   0.00000  Uiso   1.00
C11    C     0.80100   0.75180   0.08571   0.00000  Uiso   1.00
C12    C     0.75686   0.79280   0.04445   0.00000  Uiso   1.00
C13    C     0.70023   0.87558   0.99546   0.00000  Uiso   1.00
C14    C     0.72980   0.61370   0.99250   0.00000  Uiso   1.00
C15    C     0.71096   0.58773   0.07530   0.00000  Uiso   1.00
C16    C     0.64749   0.55212   0.09283   0.00000  Uiso   1.00
C17    C     0.64056   0.53283   0.17232   0.00000  Uiso   1.00
C18    C     0.81345   0.59454   0.97220   0.00000  Uiso   1.00
C19    C     0.83616   0.56467   0.90304   0.00000  Uiso   1.00
C20    C     0.91552   0.55112   0.89572   0.00000  Uiso   1.00
C21    C     0.73390   0.67874   0.00535   0.00000  Uiso   1.00
C22    C     0.68974   0.71966   0.96404   0.00000  Uiso   1.00
C23    C     0.70215   0.77700   0.98461   0.00000  Uiso   1.00
H24    H     0.87288   0.65503   0.14897   0.00000  Uiso   1.00
H25    H     0.80102   0.59647   0.26071   0.00000  Uiso   1.00
H26    H     0.98966   0.60903   0.07094   0.00000  Uiso   1.00
H27    H     0.84327   0.76399   0.13193   0.00000  Uiso   1.00
H28    H     0.69729   0.52458   0.35824   0.00000  Uiso   1.00
H29    H     0.09505   0.55107   0.95809   0.00000  Uiso   1.00
H30    H     0.78635   0.87784   0.08671   0.00000  Uiso   1.00
H31    H     0.68728   0.60142   0.94599   0.00000  Uiso   1.00
H32    H     0.60524   0.53992   0.04660   0.00000  Uiso   1.00
H33    H     0.79388   0.55248   0.85683   0.00000  Uiso   1.00
H34    H     0.64749   0.70744   0.91782   0.00000  Uiso   1.00
H35    H     0.53838   0.47868   0.18446   0.00000  Uiso   1.00
H36    H     0.93615   0.50517   0.78431   0.00000  Uiso   1.00
H37    H     0.62744   0.83194   0.91293   0.00000  Uiso   1.00
O38    O     0.56723   0.46213   0.34119   0.00000  Uiso   1.00
O39    O     0.08908   0.49689   0.81620   0.00000  Uiso   1.00
O40    O     0.68407   0.92560   0.98494   0.00000  Uiso   1.00
N41    N     0.67114   0.52222   0.30354   0.00000  Uiso   1.00
N42    N     0.04302   0.54698   0.92943   0.00000  Uiso   1.00
N43    N     0.75443   0.85249   0.04966   0.00000  Uiso   1.00
N44    N     0.58563   0.49753   0.21003   0.00000  Uiso   1.00
N45    N     0.95752   0.52229   0.83592   0.00000  Uiso   1.00
N46    N     0.66892   0.82779   0.95615   0.00000  Uiso   1.00
C47    C     0.66965   0.85725   0.60247   0.00000  Uiso   1.00
C48    C     0.73443   0.89650   0.63504   0.00000  Uiso   1.00
C49    C     0.74126   0.91574   0.71450   0.00000  Uiso   1.00
C50    C     0.80472   0.95137   0.73215   0.00000  Uiso   1.00
C51    C     0.89698   0.00993   0.79179   0.00000  Uiso   1.00
C52    C     0.63193   0.88968   0.53193   0.00000  Uiso   1.00
C53    C     0.55259   0.90319   0.52471   0.00000  Uiso   1.00
C54    C     0.52977   0.93307   0.45556   0.00000  Uiso   1.00
C55    C     0.46290   0.98102   0.35510   0.00000  Uiso   1.00
C56    C     0.71148   0.80549   0.56508   0.00000  Uiso   1.00
C57    C     0.69900   0.74820   0.58571   0.00000  Uiso   1.00
C58    C     0.74314   0.70720   0.54445   0.00000  Uiso   1.00
C59    C     0.79977   0.62442   0.49546   0.00000  Uiso   1.00
C60    C     0.77020   0.88630   0.49250   0.00000  Uiso   1.00
C61    C     0.78904   0.91227   0.57530   0.00000  Uiso   1.00
C62    C     0.85251   0.94788   0.59283   0.00000  Uiso   1.00
C63    C     0.85944   0.96717   0.67232   0.00000  Uiso   1.00
C64    C     0.68655   0.90546   0.47220   0.00000  Uiso   1.00
C65    C     0.66384   0.93533   0.40304   0.00000  Uiso   1.00
C66    C     0.58448   0.94888   0.39572   0.00000  Uiso   1.00
C67    C     0.76610   0.82126   0.50535   0.00000  Uiso   1.00
C68    C     0.81026   0.78034   0.46404   0.00000  Uiso   1.00
C69    C     0.79785   0.72300   0.48461   0.00000  Uiso   1.00
H70    H     0.62712   0.84497   0.64897   0.00000  Uiso   1.00
H71    H     0.69898   0.90353   0.76071   0.00000  Uiso   1.00
H72    H     0.51034   0.89097   0.57094   0.00000  Uiso   1.00
H73    H     0.65673   0.73601   0.63193   0.00000  Uiso   1.00
H74    H     0.80271   0.97542   0.85824   0.00000  Uiso   1.00
H75    H     0.40495   0.94893   0.45809   0.00000  Uiso   1.00
H76    H     0.71365   0.62216   0.58671   0.00000  Uiso   1.00
H77    H     0.81272   0.89858   0.44599   0.00000  Uiso   1.00
H78    H     0.89476   0.96008   0.54660   0.00000  Uiso   1.00
H79    H     0.70612   0.94752   0.35683   0.00000  Uiso   1.00
H80    H     0.85251   0.79256   0.41782   0.00000  Uiso   1.00
H81    H     0.96162   0.02132   0.68446   0.00000  Uiso   1.00
H82    H     0.56385   0.99483   0.28431   0.00000  Uiso   1.00
H83    H     0.87256   0.66806   0.41293   0.00000  Uiso   1.00
O84    O     0.93277   0.03787   0.84119   0.00000  Uiso   1.00
O85    O     0.41092   0.00311   0.31620   0.00000  Uiso   1.00
O86    O     0.81593   0.57440   0.48494   0.00000  Uiso   1.00
N87    N     0.82886   0.97778   0.80354   0.00000  Uiso   1.00
N88    N     0.45698   0.95302   0.42943   0.00000  Uiso   1.00
N89    N     0.74557   0.64751   0.54966   0.00000  Uiso   1.00
N90    N     0.91437   0.00247   0.71003   0.00000  Uiso   1.00
N91    N     0.54248   0.97771   0.33592   0.00000  Uiso   1.00
N92    N     0.83108   0.67221   0.45615   0.00000  Uiso   1.00
C93    C     0.16965   0.64275   0.39753   0.00000  Uiso   1.00
C94    C     0.23443   0.60350   0.36496   0.00000  Uiso   1.00
C95    C     0.24126   0.58426   0.28550   0.00000  Uiso   1.00
C96    C     0.30472   0.54863   0.26785   0.00000  Uiso   1.00
C97    C     0.39698   0.49007   0.20821   0.00000  Uiso   1.00
C98    C     0.13193   0.61032   0.46807   0.00000  Uiso   1.00
C99    C     0.05259   0.59681   0.47529   0.00000  Uiso   1.00
C100   C     0.02977   0.56693   0.54444   0.00000  Uiso   1.00
C101   C     0.96290   0.51898   0.64490   0.00000  Uiso   1.00
C102   C     0.21148   0.69451   0.43492   0.00000  Uiso   1.00
C103   C     0.19900   0.75180   0.41429   0.00000  Uiso   1.00
C104   C     0.24314   0.79280   0.45555   0.00000  Uiso   1.00
C105   C     0.29977   0.87558   0.50454   0.00000  Uiso   1.00
C106   C     0.27020   0.61370   0.50750   0.00000  Uiso   1.00
C107   C     0.28904   0.58773   0.42470   0.00000  Uiso   1.00
C108   C     0.35251   0.55212   0.40717   0.00000  Uiso   1.00
C109   C     0.35944   0.53283   0.32768   0.00000  Uiso   1.00
C110   C     0.18655   0.59454   0.52780   0.00000  Uiso   1.00
C111   C     0.16384   0.56467   0.59696   0.00000  Uiso   1.00
C112   C     0.08448   0.55112   0.60428   0.00000  Uiso   1.00
C113   C     0.26610   0.67874   0.49465   0.00000  Uiso   1.00
C114   C     0.31026   0.71966   0.53596   0.00000  Uiso   1.00
C115   C     0.29785   0.77700   0.51539   0.00000  Uiso   1.00
H116   H     0.12712   0.65503   0.35103   0.00000  Uiso   1.00
H117   H     0.19898   0.59647   0.23929   0.00000  Uiso   1.00
H118   H     0.01034   0.60903   0.42906   0.00000  Uiso   1.00
H119   H     0.15673   0.76399   0.36807   0.00000  Uiso   1.00
H120   H     0.30271   0.52458   0.14176   0.00000  Uiso   1.00
H121   H     0.90495   0.55107   0.54191   0.00000  Uiso   1.00
H122   H     0.21365   0.87784   0.41329   0.00000  Uiso   1.00
H123   H     0.31272   0.60142   0.55401   0.00000  Uiso   1.00
H124   H     0.39476   0.53992   0.45340   0.00000  Uiso   1.00
H125   H     0.20612   0.55248   0.64317   0.00000  Uiso   1.00
H126   H     0.35251   0.70744   0.58218   0.00000  Uiso   1.00
H127   H     0.46162   0.47868   0.31554   0.00000  Uiso   1.00
H128   H     0.06385   0.50517   0.71569   0.00000  Uiso   1.00
H129   H     0.37256   0.83194   0.58707   0.00000  Uiso   1.00
O130   O     0.43277   0.46213   0.15881   0.00000  Uiso   1.00
O131   O     0.91092   0.49689   0.68380   0.00000  Uiso   1.00
O132   O     0.31593   0.92560   0.51506   0.00000  Uiso   1.00
N133   N     0.32886   0.52222   0.19646   0.00000  Uiso   1.00
N134   N     0.95698   0.54698   0.57057   0.00000  Uiso   1.00
N135   N     0.24557   0.85249   0.45034   0.00000  Uiso   1.00
N136   N     0.41437   0.49753   0.28997   0.00000  Uiso   1.00
N137   N     0.04248   0.52229   0.66408   0.00000  Uiso   1.00
N138   N     0.33108   0.82779   0.54385   0.00000  Uiso   1.00
C139   C     0.33035   0.85725   0.89753   0.00000  Uiso   1.00
C140   C     0.26557   0.89650   0.86496   0.00000  Uiso   1.00
C141   C     0.25874   0.91574   0.78550   0.00000  Uiso   1.00
C142   C     0.19528   0.95137   0.76785   0.00000  Uiso   1.00
C143   C     0.10302   0.00993   0.70821   0.00000  Uiso   1.00
C144   C     0.36807   0.88968   0.96807   0.00000  Uiso   1.00
C145   C     0.44741   0.90319   0.97529   0.00000  Uiso   1.00
C146   C     0.47023   0.93307   0.04444   0.00000  Uiso   1.00
C147   C     0.53710   0.98102   0.14490   0.00000  Uiso   1.00
C148   C     0.28852   0.80549   0.93492   0.00000  Uiso   1.00
C149   C     0.30100   0.74820   0.91429   0.00000  Uiso   1.00
C150   C     0.25686   0.70720   0.95555   0.00000  Uiso   1.00
C151   C     0.20023   0.62442   0.00454   0.00000  Uiso   1.00
C152   C     0.22980   0.88630   0.00750   0.00000  Uiso   1.00
C153   C     0.21096   0.91227   0.92470   0.00000  Uiso   1.00
C154   C     0.14749   0.94788   0.90717   0.00000  Uiso   1.00
C155   C     0.14056   0.96717   0.82768   0.00000  Uiso   1.00
C156   C     0.31345   0.90546   0.02780   0.00000  Uiso   1.00
C157   C     0.33616   0.93533   0.09696   0.00000  Uiso   1.00
C158   C     0.41552   0.94888   0.10428   0.00000  Uiso   1.00
C159   C     0.23390   0.82126   0.99465   0.00000  Uiso   1.00
C160   C     0.18974   0.78034   0.03596   0.00000  Uiso   1.00
C161   C     0.20215   0.72300   0.01539   0.00000  Uiso   1.00
H162   H     0.37288   0.84497   0.85103   0.00000  Uiso   1.00
H163   H     0.30102   0.90353   0.73929   0.00000  Uiso   1.00
H164   H     0.48966   0.89097   0.92906   0.00000  Uiso   1.00
H165   H     0.34327   0.73601   0.86807   0.00000  Uiso   1.00
H166   H     0.19729   0.97542   0.64176   0.00000  Uiso   1.00
H167   H     0.59505   0.94893   0.04191   0.00000  Uiso   1.00
H168   H     0.28635   0.62216   0.91329   0.00000  Uiso   1.00
H169   H     0.18728   0.89858   0.05401   0.00000  Uiso   1.00
H170   H     0.10524   0.96008   0.95340   0.00000  Uiso   1.00
H171   H     0.29388   0.94752   0.14317   0.00000  Uiso   1.00
H172   H     0.14749   0.79256   0.08218   0.00000  Uiso   1.00
H173   H     0.03838   0.02132   0.81554   0.00000  Uiso   1.00
H174   H     0.43615   0.99483   0.21569   0.00000  Uiso   1.00
H175   H     0.12744   0.66806   0.08707   0.00000  Uiso   1.00
O176   O     0.06723   0.03787   0.65881   0.00000  Uiso   1.00
O177   O     0.58908   0.00311   0.18380   0.00000  Uiso   1.00
O178   O     0.18407   0.57440   0.01506   0.00000  Uiso   1.00
N179   N     0.17114   0.97778   0.69646   0.00000  Uiso   1.00
N180   N     0.54302   0.95302   0.07057   0.00000  Uiso   1.00
N181   N     0.25443   0.64751   0.95034   0.00000  Uiso   1.00
N182   N     0.08563   0.00247   0.78997   0.00000  Uiso   1.00
N183   N     0.45752   0.97771   0.16408   0.00000  Uiso   1.00
N184   N     0.16892   0.67221   0.04385   0.00000  Uiso   1.00
C185   C     0.16965   0.35725   0.89753   0.00000  Uiso   1.00
C186   C     0.23443   0.39650   0.86496   0.00000  Uiso   1.00
C187   C     0.24126   0.41574   0.78550   0.00000  Uiso   1.00
C188   C     0.30472   0.45137   0.76785   0.00000  Uiso   1.00
C189   C     0.39698   0.50993   0.70821   0.00000  Uiso   1.00
C190   C     0.13193   0.38968   0.96807   0.00000  Uiso   1.00
C191   C     0.05259   0.40319   0.97529   0.00000  Uiso   1.00
C192   C     0.02977   0.43307   0.04444   0.00000  Uiso   1.00
C193   C     0.96290   0.48102   0.14490   0.00000  Uiso   1.00
C194   C     0.21148   0.30549   0.93492   0.00000  Uiso   1.00
C195   C     0.19900   0.24820   0.91429   0.00000  Uiso   1.00
C196   C     0.24314   0.20720   0.95555   0.00000  Uiso   1.00
C197   C     0.29977   0.12442   0.00454   0.00000  Uiso   1.00
C198   C     0.27020   0.38630   0.00750   0.00000  Uiso   1.00
C199   C     0.28904   0.41227   0.92470   0.00000  Uiso   1.00
C200   C     0.35251   0.44788   0.90717   0.00000  Uiso   1.00
C201   C     0.35944   0.46717   0.82768   0.00000  Uiso   1.00
C202   C     0.18655   0.40546   0.02780   0.00000  Uiso   1.00
C203   C     0.16384   0.43533   0.09696   0.00000  Uiso   1.00
C204   C     0.08448   0.44888   0.10428   0.00000  Uiso   1.00
C205   C     0.26610   0.32126   0.99465   0.00000  Uiso   1.00
C206   C     0.31026   0.28034   0.03596   0.00000  Uiso   1.00
C207   C     0.29785   0.22300   0.01539   0.00000  Uiso   1.00
H208   H     0.12712   0.34497   0.85103   0.00000  Uiso   1.00
H209   H     0.19898   0.40353   0.73929   0.00000  Uiso   1.00
H210   H     0.01034   0.39097   0.92906   0.00000  Uiso   1.00
H211   H     0.15673   0.23601   0.86807   0.00000  Uiso   1.00
H212   H     0.30271   0.47542   0.64176   0.00000  Uiso   1.00
H213   H     0.90495   0.44893   0.04191   0.00000  Uiso   1.00
H214   H     0.21365   0.12216   0.91329   0.00000  Uiso   1.00
H215   H     0.31272   0.39858   0.05401   0.00000  Uiso   1.00
H216   H     0.39476   0.46008   0.95340   0.00000  Uiso   1.00
H217   H     0.20612   0.44752   0.14317   0.00000  Uiso   1.00
H218   H     0.35251   0.29256   0.08218   0.00000  Uiso   1.00
H219   H     0.46162   0.52132   0.81554   0.00000  Uiso   1.00
H220   H     0.06385   0.49483   0.21569   0.00000  Uiso   1.00
H221   H     0.37256   0.16806   0.08707   0.00000  Uiso   1.00
O222   O     0.43277   0.53787   0.65881   0.00000  Uiso   1.00
O223   O     0.91092   0.50311   0.18380   0.00000  Uiso   1.00
O224   O     0.31593   0.07440   0.01506   0.00000  Uiso   1.00
N225   N     0.32886   0.47778   0.69646   0.00000  Uiso   1.00
N226   N     0.95698   0.45302   0.07057   0.00000  Uiso   1.00
N227   N     0.24557   0.14751   0.95034   0.00000  Uiso   1.00
N228   N     0.41437   0.50247   0.78997   0.00000  Uiso   1.00
N229   N     0.04248   0.47771   0.16408   0.00000  Uiso   1.00
N230   N     0.33108   0.17221   0.04385   0.00000  Uiso   1.00
C231   C     0.33035   0.14275   0.39753   0.00000  Uiso   1.00
C232   C     0.26557   0.10350   0.36496   0.00000  Uiso   1.00
C233   C     0.25874   0.08426   0.28550   0.00000  Uiso   1.00
C234   C     0.19528   0.04863   0.26785   0.00000  Uiso   1.00
C235   C     0.10302   0.99007   0.20821   0.00000  Uiso   1.00
C236   C     0.36807   0.11032   0.46807   0.00000  Uiso   1.00
C237   C     0.44741   0.09681   0.47529   0.00000  Uiso   1.00
C238   C     0.47023   0.06693   0.54444   0.00000  Uiso   1.00
C239   C     0.53710   0.01898   0.64490   0.00000  Uiso   1.00
C240   C     0.28852   0.19451   0.43492   0.00000  Uiso   1.00
C241   C     0.30100   0.25180   0.41429   0.00000  Uiso   1.00
C242   C     0.25686   0.29280   0.45555   0.00000  Uiso   1.00
C243   C     0.20023   0.37558   0.50454   0.00000  Uiso   1.00
C244   C     0.22980   0.11370   0.50750   0.00000  Uiso   1.00
C245   C     0.21096   0.08773   0.42470   0.00000  Uiso   1.00
C246   C     0.14749   0.05212   0.40717   0.00000  Uiso   1.00
C247   C     0.14056   0.03283   0.32768   0.00000  Uiso   1.00
C248   C     0.31345   0.09454   0.52780   0.00000  Uiso   1.00
C249   C     0.33616   0.06467   0.59696   0.00000  Uiso   1.00
C250   C     0.41552   0.05112   0.60428   0.00000  Uiso   1.00
C251   C     0.23390   0.17874   0.49465   0.00000  Uiso   1.00
C252   C     0.18974   0.21966   0.53596   0.00000  Uiso   1.00
C253   C     0.20215   0.27700   0.51539   0.00000  Uiso   1.00
H254   H     0.37288   0.15503   0.35103   0.00000  Uiso   1.00
H255   H     0.30102   0.09647   0.23929   0.00000  Uiso   1.00
H256   H     0.48966   0.10903   0.42906   0.00000  Uiso   1.00
H257   H     0.34327   0.26399   0.36807   0.00000  Uiso   1.00
H258   H     0.19729   0.02458   0.14176   0.00000  Uiso   1.00
H259   H     0.59505   0.05107   0.54191   0.00000  Uiso   1.00
H260   H     0.28635   0.37784   0.41329   0.00000  Uiso   1.00
H261   H     0.18728   0.10142   0.55401   0.00000  Uiso   1.00
H262   H     0.10524   0.03992   0.45340   0.00000  Uiso   1.00
H263   H     0.29388   0.05248   0.64317   0.00000  Uiso   1.00
H264   H     0.14749   0.20744   0.58218   0.00000  Uiso   1.00
H265   H     0.03838   0.97868   0.31554   0.00000  Uiso   1.00
H266   H     0.43615   0.00517   0.71569   0.00000  Uiso   1.00
H267   H     0.12744   0.33194   0.58707   0.00000  Uiso   1.00
O268   O     0.06723   0.96213   0.15881   0.00000  Uiso   1.00
O269   O     0.58908   0.99689   0.68380   0.00000  Uiso   1.00
O270   O     0.18407   0.42560   0.51506   0.00000  Uiso   1.00
N271   N     0.17114   0.02222   0.19646   0.00000  Uiso   1.00
N272   N     0.54302   0.04698   0.57057   0.00000  Uiso   1.00
N273   N     0.25443   0.35249   0.45034   0.00000  Uiso   1.00
N274   N     0.08563   0.99753   0.28997   0.00000  Uiso   1.00
N275   N     0.45752   0.02229   0.66408   0.00000  Uiso   1.00
N276   N     0.16892   0.32779   0.54385   0.00000  Uiso   1.00
C277   C     0.83035   0.35725   0.60247   0.00000  Uiso   1.00
C278   C     0.76557   0.39650   0.63504   0.00000  Uiso   1.00
C279   C     0.75874   0.41574   0.71450   0.00000  Uiso   1.00
C280   C     0.69528   0.45137   0.73215   0.00000  Uiso   1.00
C281   C     0.60302   0.50993   0.79179   0.00000  Uiso   1.00
C282   C     0.86807   0.38968   0.53193   0.00000  Uiso   1.00
C283   C     0.94741   0.40319   0.52471   0.00000  Uiso   1.00
C284   C     0.97023   0.43307   0.45556   0.00000  Uiso   1.00
C285   C     0.03710   0.48102   0.35510   0.00000  Uiso   1.00
C286   C     0.78852   0.30549   0.56508   0.00000  Uiso   1.00
C287   C     0.80100   0.24820   0.58571   0.00000  Uiso   1.00
C288   C     0.75686   0.20720   0.54445   0.00000  Uiso   1.00
C289   C     0.70023   0.12442   0.49546   0.00000  Uiso   1.00
C290   C     0.72980   0.38630   0.49250   0.00000  Uiso   1.00
C291   C     0.71096   0.41227   0.57530   0.00000  Uiso   1.00
C292   C     0.64749   0.44788   0.59283   0.00000  Uiso   1.00
C293   C     0.64056   0.46717   0.67232   0.00000  Uiso   1.00
C294   C     0.81345   0.40546   0.47220   0.00000  Uiso   1.00
C295   C     0.83616   0.43533   0.40304   0.00000  Uiso   1.00
C296   C     0.91552   0.44888   0.39572   0.00000  Uiso   1.00
C297   C     0.73390   0.32126   0.50535   0.00000  Uiso   1.00
C298   C     0.68974   0.28034   0.46404   0.00000  Uiso   1.00
C299   C     0.70215   0.22300   0.48461   0.00000  Uiso   1.00
H300   H     0.87288   0.34497   0.64897   0.00000  Uiso   1.00
H301   H     0.80102   0.40353   0.76071   0.00000  Uiso   1.00
H302   H     0.98966   0.39097   0.57094   0.00000  Uiso   1.00
H303   H     0.84327   0.23601   0.63193   0.00000  Uiso   1.00
H304   H     0.69729   0.47542   0.85824   0.00000  Uiso   1.00
H305   H     0.09505   0.44893   0.45809   0.00000  Uiso   1.00
H306   H     0.78635   0.12216   0.58671   0.00000  Uiso   1.00
H307   H     0.68728   0.39858   0.44599   0.00000  Uiso   1.00
H308   H     0.60524   0.46008   0.54660   0.00000  Uiso   1.00
H309   H     0.79388   0.44752   0.35683   0.00000  Uiso   1.00
H310   H     0.64749   0.29256   0.41782   0.00000  Uiso   1.00
H311   H     0.53838   0.52132   0.68446   0.00000  Uiso   1.00
H312   H     0.93615   0.49483   0.28431   0.00000  Uiso   1.00
H313   H     0.62744   0.16806   0.41293   0.00000  Uiso   1.00
O314   O     0.56723   0.53787   0.84119   0.00000  Uiso   1.00
O315   O     0.08908   0.50311   0.31620   0.00000  Uiso   1.00
O316   O     0.68407   0.07440   0.48494   0.00000  Uiso   1.00
N317   N     0.67114   0.47778   0.80354   0.00000  Uiso   1.00
N318   N     0.04302   0.45302   0.42943   0.00000  Uiso   1.00
N319   N     0.75443   0.14751   0.54966   0.00000  Uiso   1.00
N320   N     0.58563   0.50247   0.71003   0.00000  Uiso   1.00
N321   N     0.95752   0.47771   0.33592   0.00000  Uiso   1.00
N322   N     0.66892   0.17221   0.45615   0.00000  Uiso   1.00
C323   C     0.66965   0.14275   0.10247   0.00000  Uiso   1.00
C324   C     0.73443   0.10350   0.13504   0.00000  Uiso   1.00
C325   C     0.74126   0.08426   0.21450   0.00000  Uiso   1.00
C326   C     0.80472   0.04863   0.23215   0.00000  Uiso   1.00
C327   C     0.89698   0.99007   0.29179   0.00000  Uiso   1.00
C328   C     0.63193   0.11032   0.03193   0.00000  Uiso   1.00
C329   C     0.55259   0.09681   0.02471   0.00000  Uiso   1.00
C330   C     0.52977   0.06693   0.95556   0.00000  Uiso   1.00
C331   C     0.46290   0.01898   0.85510   0.00000  Uiso   1.00
C332   C     0.71148   0.19451   0.06508   0.00000  Uiso   1.00
C333   C     0.69900   0.25180   0.08571   0.00000  Uiso   1.00
C334   C     0.74314   0.29280   0.04445   0.00000  Uiso   1.00
C335   C     0.79977   0.37558   0.99546   0.00000  Uiso   1.00
C336   C     0.77020   0.11370   0.99250   0.00000  Uiso   1.00
C337   C     0.78904   0.08773   0.07530   0.00000  Uiso   1.00
C338   C     0.85251   0.05212   0.09283   0.00000  Uiso   1.00
C339   C     0.85944   0.03283   0.17232   0.00000  Uiso   1.00
C340   C     0.68655   0.09454   0.97220   0.00000  Uiso   1.00
C341   C     0.66384   0.06467   0.90304   0.00000  Uiso   1.00
C342   C     0.58448   0.05112   0.89572   0.00000  Uiso   1.00
C343   C     0.76610   0.17874   0.00535   0.00000  Uiso   1.00
C344   C     0.81026   0.21966   0.96404   0.00000  Uiso   1.00
C345   C     0.79785   0.27700   0.98461   0.00000  Uiso   1.00
H346   H     0.62712   0.15503   0.14897   0.00000  Uiso   1.00
H347   H     0.69898   0.09647   0.26071   0.00000  Uiso   1.00
H348   H     0.51034   0.10903   0.07094   0.00000  Uiso   1.00
H349   H     0.65673   0.26399   0.13193   0.00000  Uiso   1.00
H350   H     0.80271   0.02458   0.35824   0.00000  Uiso   1.00
H351   H     0.40495   0.05107   0.95809   0.00000  Uiso   1.00
H352   H     0.71365   0.37784   0.08671   0.00000  Uiso   1.00
H353   H     0.81272   0.10142   0.94599   0.00000  Uiso   1.00
H354   H     0.89476   0.03992   0.04660   0.00000  Uiso   1.00
H355   H     0.70612   0.05248   0.85683   0.00000  Uiso   1.00
H356   H     0.85251   0.20744   0.91782   0.00000  Uiso   1.00
H357   H     0.96162   0.97868   0.18446   0.00000  Uiso   1.00
H358   H     0.56385   0.00517   0.78431   0.00000  Uiso   1.00
H359   H     0.87256   0.33194   0.91293   0.00000  Uiso   1.00
O360   O     0.93277   0.96213   0.34119   0.00000  Uiso   1.00
O361   O     0.41092   0.99689   0.81620   0.00000  Uiso   1.00
O362   O     0.81593   0.42560   0.98494   0.00000  Uiso   1.00
N363   N     0.82886   0.02222   0.30354   0.00000  Uiso   1.00
N364   N     0.45698   0.04698   0.92943   0.00000  Uiso   1.00
N365   N     0.74557   0.35249   0.04966   0.00000  Uiso   1.00
N366   N     0.91437   0.99753   0.21003   0.00000  Uiso   1.00
N367   N     0.54248   0.02229   0.83592   0.00000  Uiso   1.00
N368   N     0.83108   0.32779   0.95615   0.00000  Uiso   1.00
