data_job_02410
_audit_creation_date              2018-12-19
_audit_creation_method            'Materials Studio'
_symmetry_space_group_name_H-M    'P1'
_symmetry_Int_Tables_number       1
_symmetry_cell_setting            triclinic
loop_
_symmetry_equiv_pos_as_xyz
  x,y,z
_cell_length_a                    40.3565
_cell_length_b                    24.2937
_cell_length_c                    13.3065
_cell_angle_alpha                 90.0000
_cell_angle_beta                  90.0000
_cell_angle_gamma                 90.0000
loop_
_atom_site_label
_atom_site_type_symbol
_atom_site_fract_x
_atom_site_fract_y
_atom_site_fract_z
_atom_site_U_iso_or_equiv
_atom_site_adp_type
_atom_site_occupancy
C1     C     0.16546   0.46164   0.49327   0.00000  Uiso   1.00
C2     C     0.18707   0.49929   0.55741   0.00000  Uiso   1.00
C3     C     0.20400   0.54542   0.52352   0.00000  Uiso   1.00
C4     C     0.22244   0.57438   0.59397   0.00000  Uiso   1.00
C5     C     0.25579   0.63534   0.67822   0.00000  Uiso   1.00
C6     C     0.17960   0.40385   0.50590   0.00000  Uiso   1.00
C7     C     0.19025   0.36974   0.42871   0.00000  Uiso   1.00
C8     C     0.20240   0.31837   0.45581   0.00000  Uiso   1.00
C9     C     0.22414   0.23116   0.46010   0.00000  Uiso   1.00
C10    C     0.13150   0.46083   0.54354   0.00000  Uiso   1.00
C11    C     0.10170   0.47461   0.49799   0.00000  Uiso   1.00
C12    C     0.07335   0.47120   0.55677   0.00000  Uiso   1.00
C13    C     0.02041   0.47245   0.61950   0.00000  Uiso   1.00
C14    C     0.16810   0.43106   0.67864   0.00000  Uiso   1.00
C15    C     0.18851   0.48267   0.65809   0.00000  Uiso   1.00
C16    C     0.20692   0.51158   0.72861   0.00000  Uiso   1.00
C17    C     0.22387   0.55774   0.69484   0.00000  Uiso   1.00
C18    C     0.18104   0.38724   0.60658   0.00000  Uiso   1.00
C19    C     0.19317   0.33591   0.63380   0.00000  Uiso   1.00
C20    C     0.20383   0.30173   0.55668   0.00000  Uiso   1.00
C21    C     0.13294   0.44422   0.64423   0.00000  Uiso   1.00
C22    C     0.10462   0.44078   0.70308   0.00000  Uiso   1.00
C23    C     0.07478   0.45456   0.65764   0.00000  Uiso   1.00
H24    H     0.16434   0.47457   0.41489   0.00000  Uiso   1.00
H25    H     0.20288   0.55826   0.44559   0.00000  Uiso   1.00
H26    H     0.18913   0.38261   0.35081   0.00000  Uiso   1.00
H27    H     0.10060   0.48747   0.42008   0.00000  Uiso   1.00
H28    H     0.24626   0.64369   0.52403   0.00000  Uiso   1.00
H29    H     0.21726   0.27333   0.32416   0.00000  Uiso   1.00
H30    H     0.03056   0.49444   0.47023   0.00000  Uiso   1.00
H31    H     0.16921   0.41812   0.75703   0.00000  Uiso   1.00
H32    H     0.20803   0.49871   0.80652   0.00000  Uiso   1.00
H33    H     0.19428   0.32306   0.71173   0.00000  Uiso   1.00
H34    H     0.10574   0.42792   0.78100   0.00000  Uiso   1.00
H35    H     0.25044   0.59536   0.81697   0.00000  Uiso   1.00
H36    H     0.22143   0.22500   0.61710   0.00000  Uiso   1.00
H37    H     0.03474   0.44611   0.76317   0.00000  Uiso   1.00
O38    O     0.27380   0.67355   0.69688   0.00000  Uiso   1.00
O39    O     0.23574   0.18764   0.43465   0.00000  Uiso   1.00
O40    O     0.99081   0.47774   0.62629   0.00000  Uiso   1.00
N41    N     0.24191   0.62127   0.58619   0.00000  Uiso   1.00
N42    N     0.21480   0.27500   0.39932   0.00000  Uiso   1.00
N43    N     0.04026   0.48171   0.53587   0.00000  Uiso   1.00
N44    N     0.24416   0.59526   0.74382   0.00000  Uiso   1.00
N45    N     0.21704   0.24899   0.55695   0.00000  Uiso   1.00
N46    N     0.04250   0.45570   0.69350   0.00000  Uiso   1.00
C47    C     0.33454   0.03836   0.99327   0.00000  Uiso   1.00
C48    C     0.31293   0.00071   0.05741   0.00000  Uiso   1.00
C49    C     0.29600   0.95458   0.02352   0.00000  Uiso   1.00
C50    C     0.27756   0.92562   0.09397   0.00000  Uiso   1.00
C51    C     0.24421   0.86466   0.17822   0.00000  Uiso   1.00
C52    C     0.32040   0.09615   0.00590   0.00000  Uiso   1.00
C53    C     0.30975   0.13026   0.92871   0.00000  Uiso   1.00
C54    C     0.29760   0.18163   0.95581   0.00000  Uiso   1.00
C55    C     0.27586   0.26884   0.96010   0.00000  Uiso   1.00
C56    C     0.36850   0.03917   0.04354   0.00000  Uiso   1.00
C57    C     0.39830   0.02539   0.99799   0.00000  Uiso   1.00
C58    C     0.42665   0.02880   0.05677   0.00000  Uiso   1.00
C59    C     0.47959   0.02755   0.11950   0.00000  Uiso   1.00
C60    C     0.33190   0.06894   0.17864   0.00000  Uiso   1.00
C61    C     0.31149   0.01733   0.15809   0.00000  Uiso   1.00
C62    C     0.29308   0.98842   0.22861   0.00000  Uiso   1.00
C63    C     0.27613   0.94226   0.19484   0.00000  Uiso   1.00
C64    C     0.31896   0.11276   0.10658   0.00000  Uiso   1.00
C65    C     0.30683   0.16409   0.13380   0.00000  Uiso   1.00
C66    C     0.29617   0.19827   0.05668   0.00000  Uiso   1.00
C67    C     0.36706   0.05578   0.14423   0.00000  Uiso   1.00
C68    C     0.39538   0.05922   0.20308   0.00000  Uiso   1.00
C69    C     0.42522   0.04544   0.15764   0.00000  Uiso   1.00
H70    H     0.33566   0.02543   0.91489   0.00000  Uiso   1.00
H71    H     0.29712   0.94174   0.94559   0.00000  Uiso   1.00
H72    H     0.31087   0.11739   0.85081   0.00000  Uiso   1.00
H73    H     0.39940   0.01253   0.92008   0.00000  Uiso   1.00
H74    H     0.25374   0.85631   0.02403   0.00000  Uiso   1.00
H75    H     0.28274   0.22667   0.82416   0.00000  Uiso   1.00
H76    H     0.46944   0.00556   0.97023   0.00000  Uiso   1.00
H77    H     0.33079   0.08188   0.25703   0.00000  Uiso   1.00
H78    H     0.29197   0.00129   0.30652   0.00000  Uiso   1.00
H79    H     0.30572   0.17694   0.21173   0.00000  Uiso   1.00
H80    H     0.39426   0.07208   0.28100   0.00000  Uiso   1.00
H81    H     0.24956   0.90464   0.31697   0.00000  Uiso   1.00
H82    H     0.27857   0.27500   0.11710   0.00000  Uiso   1.00
H83    H     0.46526   0.05389   0.26317   0.00000  Uiso   1.00
O84    O     0.22620   0.82645   0.19688   0.00000  Uiso   1.00
O85    O     0.26426   0.31236   0.93465   0.00000  Uiso   1.00
O86    O     0.50919   0.02226   0.12629   0.00000  Uiso   1.00
N87    N     0.25809   0.87873   0.08619   0.00000  Uiso   1.00
N88    N     0.28520   0.22500   0.89932   0.00000  Uiso   1.00
N89    N     0.45974   0.01829   0.03587   0.00000  Uiso   1.00
N90    N     0.25584   0.90474   0.24382   0.00000  Uiso   1.00
N91    N     0.28296   0.25101   0.05695   0.00000  Uiso   1.00
N92    N     0.45750   0.04430   0.19350   0.00000  Uiso   1.00
C93    C     0.83454   0.46164   0.00673   0.00000  Uiso   1.00
C94    C     0.81293   0.49929   0.94259   0.00000  Uiso   1.00
C95    C     0.79600   0.54542   0.97648   0.00000  Uiso   1.00
C96    C     0.77756   0.57438   0.90603   0.00000  Uiso   1.00
C97    C     0.74421   0.63534   0.82178   0.00000  Uiso   1.00
C98    C     0.82040   0.40385   0.99410   0.00000  Uiso   1.00
C99    C     0.80975   0.36974   0.07129   0.00000  Uiso   1.00
C100   C     0.79760   0.31837   0.04419   0.00000  Uiso   1.00
C101   C     0.77586   0.23116   0.03990   0.00000  Uiso   1.00
C102   C     0.86850   0.46083   0.95646   0.00000  Uiso   1.00
C103   C     0.89830   0.47461   0.00201   0.00000  Uiso   1.00
C104   C     0.92665   0.47120   0.94323   0.00000  Uiso   1.00
C105   C     0.97959   0.47245   0.88050   0.00000  Uiso   1.00
C106   C     0.83190   0.43106   0.82136   0.00000  Uiso   1.00
C107   C     0.81149   0.48267   0.84191   0.00000  Uiso   1.00
C108   C     0.79308   0.51158   0.77139   0.00000  Uiso   1.00
C109   C     0.77613   0.55774   0.80516   0.00000  Uiso   1.00
C110   C     0.81896   0.38724   0.89342   0.00000  Uiso   1.00
C111   C     0.80683   0.33591   0.86620   0.00000  Uiso   1.00
C112   C     0.79617   0.30173   0.94332   0.00000  Uiso   1.00
C113   C     0.86706   0.44422   0.85577   0.00000  Uiso   1.00
C114   C     0.89538   0.44078   0.79692   0.00000  Uiso   1.00
C115   C     0.92522   0.45456   0.84236   0.00000  Uiso   1.00
H116   H     0.83566   0.47457   0.08511   0.00000  Uiso   1.00
H117   H     0.79712   0.55826   0.05441   0.00000  Uiso   1.00
H118   H     0.81087   0.38261   0.14919   0.00000  Uiso   1.00
H119   H     0.89940   0.48747   0.07992   0.00000  Uiso   1.00
H120   H     0.75374   0.64369   0.97597   0.00000  Uiso   1.00
H121   H     0.78274   0.27333   0.17584   0.00000  Uiso   1.00
H122   H     0.96944   0.49444   0.02977   0.00000  Uiso   1.00
H123   H     0.83079   0.41812   0.74297   0.00000  Uiso   1.00
H124   H     0.79197   0.49871   0.69348   0.00000  Uiso   1.00
H125   H     0.80572   0.32306   0.78827   0.00000  Uiso   1.00
H126   H     0.89426   0.42792   0.71900   0.00000  Uiso   1.00
H127   H     0.74956   0.59536   0.68303   0.00000  Uiso   1.00
H128   H     0.77857   0.22500   0.88290   0.00000  Uiso   1.00
H129   H     0.96526   0.44611   0.73683   0.00000  Uiso   1.00
O130   O     0.72620   0.67355   0.80312   0.00000  Uiso   1.00
O131   O     0.76426   0.18764   0.06535   0.00000  Uiso   1.00
O132   O     0.00919   0.47774   0.87371   0.00000  Uiso   1.00
N133   N     0.75809   0.62127   0.91381   0.00000  Uiso   1.00
N134   N     0.78520   0.27500   0.10068   0.00000  Uiso   1.00
N135   N     0.95974   0.48171   0.96413   0.00000  Uiso   1.00
N136   N     0.75584   0.59526   0.75618   0.00000  Uiso   1.00
N137   N     0.78296   0.24899   0.94305   0.00000  Uiso   1.00
N138   N     0.95750   0.45570   0.80650   0.00000  Uiso   1.00
C139   C     0.66546   0.03836   0.50673   0.00000  Uiso   1.00
C140   C     0.68707   0.00071   0.44259   0.00000  Uiso   1.00
C141   C     0.70400   0.95458   0.47648   0.00000  Uiso   1.00
C142   C     0.72244   0.92562   0.40603   0.00000  Uiso   1.00
C143   C     0.75579   0.86466   0.32178   0.00000  Uiso   1.00
C144   C     0.67960   0.09615   0.49410   0.00000  Uiso   1.00
C145   C     0.69025   0.13026   0.57129   0.00000  Uiso   1.00
C146   C     0.70240   0.18163   0.54419   0.00000  Uiso   1.00
C147   C     0.72414   0.26884   0.53990   0.00000  Uiso   1.00
C148   C     0.63150   0.03917   0.45646   0.00000  Uiso   1.00
C149   C     0.60170   0.02539   0.50201   0.00000  Uiso   1.00
C150   C     0.57335   0.02880   0.44323   0.00000  Uiso   1.00
C151   C     0.52041   0.02755   0.38050   0.00000  Uiso   1.00
C152   C     0.66810   0.06894   0.32136   0.00000  Uiso   1.00
C153   C     0.68851   0.01733   0.34191   0.00000  Uiso   1.00
C154   C     0.70692   0.98842   0.27139   0.00000  Uiso   1.00
C155   C     0.72387   0.94226   0.30516   0.00000  Uiso   1.00
C156   C     0.68104   0.11276   0.39342   0.00000  Uiso   1.00
C157   C     0.69317   0.16409   0.36620   0.00000  Uiso   1.00
C158   C     0.70383   0.19827   0.44332   0.00000  Uiso   1.00
C159   C     0.63294   0.05578   0.35577   0.00000  Uiso   1.00
C160   C     0.60462   0.05922   0.29692   0.00000  Uiso   1.00
C161   C     0.57478   0.04544   0.34236   0.00000  Uiso   1.00
H162   H     0.66434   0.02543   0.58511   0.00000  Uiso   1.00
H163   H     0.70288   0.94174   0.55441   0.00000  Uiso   1.00
H164   H     0.68913   0.11739   0.64919   0.00000  Uiso   1.00
H165   H     0.60060   0.01253   0.57992   0.00000  Uiso   1.00
H166   H     0.74626   0.85631   0.47597   0.00000  Uiso   1.00
H167   H     0.71726   0.22667   0.67584   0.00000  Uiso   1.00
H168   H     0.53056   0.00556   0.52977   0.00000  Uiso   1.00
H169   H     0.66921   0.08188   0.24297   0.00000  Uiso   1.00
H170   H     0.70803   0.00129   0.19348   0.00000  Uiso   1.00
H171   H     0.69428   0.17694   0.28827   0.00000  Uiso   1.00
H172   H     0.60574   0.07208   0.21900   0.00000  Uiso   1.00
H173   H     0.75044   0.90464   0.18303   0.00000  Uiso   1.00
H174   H     0.72143   0.27500   0.38290   0.00000  Uiso   1.00
H175   H     0.53474   0.05389   0.23683   0.00000  Uiso   1.00
O176   O     0.77380   0.82645   0.30312   0.00000  Uiso   1.00
O177   O     0.73574   0.31236   0.56535   0.00000  Uiso   1.00
O178   O     0.49081   0.02226   0.37371   0.00000  Uiso   1.00
N179   N     0.74191   0.87873   0.41381   0.00000  Uiso   1.00
N180   N     0.71480   0.22500   0.60068   0.00000  Uiso   1.00
N181   N     0.54026   0.01829   0.46413   0.00000  Uiso   1.00
N182   N     0.74416   0.90474   0.25618   0.00000  Uiso   1.00
N183   N     0.71704   0.25101   0.44305   0.00000  Uiso   1.00
N184   N     0.54250   0.04430   0.30650   0.00000  Uiso   1.00
C185   C     0.83454   0.53836   0.50673   0.00000  Uiso   1.00
C186   C     0.81293   0.50071   0.44259   0.00000  Uiso   1.00
C187   C     0.79600   0.45458   0.47648   0.00000  Uiso   1.00
C188   C     0.77756   0.42562   0.40603   0.00000  Uiso   1.00
C189   C     0.74421   0.36466   0.32178   0.00000  Uiso   1.00
C190   C     0.82040   0.59615   0.49410   0.00000  Uiso   1.00
C191   C     0.80975   0.63026   0.57129   0.00000  Uiso   1.00
C192   C     0.79760   0.68163   0.54419   0.00000  Uiso   1.00
C193   C     0.77586   0.76884   0.53990   0.00000  Uiso   1.00
C194   C     0.86850   0.53917   0.45646   0.00000  Uiso   1.00
C195   C     0.89830   0.52539   0.50201   0.00000  Uiso   1.00
C196   C     0.92665   0.52880   0.44323   0.00000  Uiso   1.00
C197   C     0.97959   0.52755   0.38050   0.00000  Uiso   1.00
C198   C     0.83190   0.56894   0.32136   0.00000  Uiso   1.00
C199   C     0.81149   0.51733   0.34191   0.00000  Uiso   1.00
C200   C     0.79308   0.48842   0.27139   0.00000  Uiso   1.00
C201   C     0.77613   0.44226   0.30516   0.00000  Uiso   1.00
C202   C     0.81896   0.61276   0.39342   0.00000  Uiso   1.00
C203   C     0.80683   0.66409   0.36620   0.00000  Uiso   1.00
C204   C     0.79617   0.69827   0.44332   0.00000  Uiso   1.00
C205   C     0.86706   0.55578   0.35577   0.00000  Uiso   1.00
C206   C     0.89538   0.55922   0.29692   0.00000  Uiso   1.00
C207   C     0.92522   0.54544   0.34236   0.00000  Uiso   1.00
H208   H     0.83566   0.52543   0.58511   0.00000  Uiso   1.00
H209   H     0.79712   0.44174   0.55441   0.00000  Uiso   1.00
H210   H     0.81087   0.61739   0.64919   0.00000  Uiso   1.00
H211   H     0.89940   0.51253   0.57992   0.00000  Uiso   1.00
H212   H     0.75374   0.35631   0.47597   0.00000  Uiso   1.00
H213   H     0.78274   0.72667   0.67584   0.00000  Uiso   1.00
H214   H     0.96944   0.50556   0.52977   0.00000  Uiso   1.00
H215   H     0.83079   0.58188   0.24297   0.00000  Uiso   1.00
H216   H     0.79197   0.50129   0.19348   0.00000  Uiso   1.00
H217   H     0.80572   0.67694   0.28827   0.00000  Uiso   1.00
H218   H     0.89426   0.57208   0.21900   0.00000  Uiso   1.00
H219   H     0.74956   0.40464   0.18303   0.00000  Uiso   1.00
H220   H     0.77857   0.77500   0.38290   0.00000  Uiso   1.00
H221   H     0.96526   0.55389   0.23683   0.00000  Uiso   1.00
O222   O     0.72620   0.32645   0.30312   0.00000  Uiso   1.00
O223   O     0.76426   0.81236   0.56535   0.00000  Uiso   1.00
O224   O     0.00919   0.52226   0.37371   0.00000  Uiso   1.00
N225   N     0.75809   0.37873   0.41381   0.00000  Uiso   1.00
N226   N     0.78520   0.72500   0.60068   0.00000  Uiso   1.00
N227   N     0.95974   0.51829   0.46413   0.00000  Uiso   1.00
N228   N     0.75584   0.40474   0.25618   0.00000  Uiso   1.00
N229   N     0.78296   0.75101   0.44305   0.00000  Uiso   1.00
N230   N     0.95750   0.54430   0.30650   0.00000  Uiso   1.00
C231   C     0.66546   0.96164   0.00673   0.00000  Uiso   1.00
C232   C     0.68707   0.99929   0.94259   0.00000  Uiso   1.00
C233   C     0.70400   0.04542   0.97648   0.00000  Uiso   1.00
C234   C     0.72244   0.07438   0.90603   0.00000  Uiso   1.00
C235   C     0.75579   0.13534   0.82178   0.00000  Uiso   1.00
C236   C     0.67960   0.90385   0.99410   0.00000  Uiso   1.00
C237   C     0.69025   0.86974   0.07129   0.00000  Uiso   1.00
C238   C     0.70240   0.81837   0.04419   0.00000  Uiso   1.00
C239   C     0.72414   0.73116   0.03990   0.00000  Uiso   1.00
C240   C     0.63150   0.96083   0.95646   0.00000  Uiso   1.00
C241   C     0.60170   0.97461   0.00201   0.00000  Uiso   1.00
C242   C     0.57335   0.97120   0.94323   0.00000  Uiso   1.00
C243   C     0.52041   0.97245   0.88050   0.00000  Uiso   1.00
C244   C     0.66810   0.93106   0.82136   0.00000  Uiso   1.00
C245   C     0.68851   0.98267   0.84191   0.00000  Uiso   1.00
C246   C     0.70692   0.01158   0.77139   0.00000  Uiso   1.00
C247   C     0.72387   0.05774   0.80516   0.00000  Uiso   1.00
C248   C     0.68104   0.88724   0.89342   0.00000  Uiso   1.00
C249   C     0.69317   0.83591   0.86620   0.00000  Uiso   1.00
C250   C     0.70383   0.80173   0.94332   0.00000  Uiso   1.00
C251   C     0.63294   0.94422   0.85577   0.00000  Uiso   1.00
C252   C     0.60462   0.94078   0.79692   0.00000  Uiso   1.00
C253   C     0.57478   0.95456   0.84236   0.00000  Uiso   1.00
H254   H     0.66434   0.97457   0.08511   0.00000  Uiso   1.00
H255   H     0.70288   0.05826   0.05441   0.00000  Uiso   1.00
H256   H     0.68913   0.88261   0.14919   0.00000  Uiso   1.00
H257   H     0.60060   0.98747   0.07992   0.00000  Uiso   1.00
H258   H     0.74626   0.14369   0.97597   0.00000  Uiso   1.00
H259   H     0.71726   0.77333   0.17584   0.00000  Uiso   1.00
H260   H     0.53056   0.99444   0.02977   0.00000  Uiso   1.00
H261   H     0.66921   0.91812   0.74297   0.00000  Uiso   1.00
H262   H     0.70803   0.99871   0.69348   0.00000  Uiso   1.00
H263   H     0.69428   0.82306   0.78827   0.00000  Uiso   1.00
H264   H     0.60574   0.92792   0.71900   0.00000  Uiso   1.00
H265   H     0.75044   0.09536   0.68303   0.00000  Uiso   1.00
H266   H     0.72143   0.72500   0.88290   0.00000  Uiso   1.00
H267   H     0.53474   0.94611   0.73683   0.00000  Uiso   1.00
O268   O     0.77380   0.17355   0.80312   0.00000  Uiso   1.00
O269   O     0.73574   0.68764   0.06535   0.00000  Uiso   1.00
O270   O     0.49081   0.97774   0.87371   0.00000  Uiso   1.00
N271   N     0.74191   0.12127   0.91381   0.00000  Uiso   1.00
N272   N     0.71480   0.77500   0.10068   0.00000  Uiso   1.00
N273   N     0.54026   0.98171   0.96413   0.00000  Uiso   1.00
N274   N     0.74416   0.09526   0.75618   0.00000  Uiso   1.00
N275   N     0.71704   0.74899   0.94305   0.00000  Uiso   1.00
N276   N     0.54250   0.95570   0.80650   0.00000  Uiso   1.00
C277   C     0.16546   0.53836   0.99327   0.00000  Uiso   1.00
C278   C     0.18707   0.50071   0.05741   0.00000  Uiso   1.00
C279   C     0.20400   0.45458   0.02352   0.00000  Uiso   1.00
C280   C     0.22244   0.42562   0.09397   0.00000  Uiso   1.00
C281   C     0.25579   0.36466   0.17822   0.00000  Uiso   1.00
C282   C     0.17960   0.59615   0.00590   0.00000  Uiso   1.00
C283   C     0.19025   0.63026   0.92871   0.00000  Uiso   1.00
C284   C     0.20240   0.68163   0.95581   0.00000  Uiso   1.00
C285   C     0.22414   0.76884   0.96010   0.00000  Uiso   1.00
C286   C     0.13150   0.53917   0.04354   0.00000  Uiso   1.00
C287   C     0.10170   0.52539   0.99799   0.00000  Uiso   1.00
C288   C     0.07335   0.52880   0.05677   0.00000  Uiso   1.00
C289   C     0.02041   0.52755   0.11950   0.00000  Uiso   1.00
C290   C     0.16810   0.56894   0.17864   0.00000  Uiso   1.00
C291   C     0.18851   0.51733   0.15809   0.00000  Uiso   1.00
C292   C     0.20692   0.48842   0.22861   0.00000  Uiso   1.00
C293   C     0.22387   0.44226   0.19484   0.00000  Uiso   1.00
C294   C     0.18104   0.61276   0.10658   0.00000  Uiso   1.00
C295   C     0.19317   0.66409   0.13380   0.00000  Uiso   1.00
C296   C     0.20383   0.69827   0.05668   0.00000  Uiso   1.00
C297   C     0.13294   0.55578   0.14423   0.00000  Uiso   1.00
C298   C     0.10462   0.55922   0.20308   0.00000  Uiso   1.00
C299   C     0.07478   0.54544   0.15764   0.00000  Uiso   1.00
H300   H     0.16434   0.52543   0.91489   0.00000  Uiso   1.00
H301   H     0.20288   0.44174   0.94559   0.00000  Uiso   1.00
H302   H     0.18913   0.61739   0.85081   0.00000  Uiso   1.00
H303   H     0.10060   0.51253   0.92008   0.00000  Uiso   1.00
H304   H     0.24626   0.35631   0.02403   0.00000  Uiso   1.00
H305   H     0.21726   0.72667   0.82416   0.00000  Uiso   1.00
H306   H     0.03056   0.50556   0.97023   0.00000  Uiso   1.00
H307   H     0.16921   0.58188   0.25703   0.00000  Uiso   1.00
H308   H     0.20803   0.50129   0.30652   0.00000  Uiso   1.00
H309   H     0.19428   0.67694   0.21173   0.00000  Uiso   1.00
H310   H     0.10574   0.57208   0.28100   0.00000  Uiso   1.00
H311   H     0.25044   0.40464   0.31697   0.00000  Uiso   1.00
H312   H     0.22143   0.77500   0.11710   0.00000  Uiso   1.00
H313   H     0.03474   0.55389   0.26317   0.00000  Uiso   1.00
O314   O     0.27380   0.32645   0.19688   0.00000  Uiso   1.00
O315   O     0.23574   0.81236   0.93465   0.00000  Uiso   1.00
O316   O     0.99081   0.52226   0.12629   0.00000  Uiso   1.00
N317   N     0.24191   0.37873   0.08619   0.00000  Uiso   1.00
N318   N     0.21480   0.72500   0.89932   0.00000  Uiso   1.00
N319   N     0.04026   0.51829   0.03587   0.00000  Uiso   1.00
N320   N     0.24416   0.40474   0.24382   0.00000  Uiso   1.00
N321   N     0.21704   0.75101   0.05695   0.00000  Uiso   1.00
N322   N     0.04250   0.54430   0.19350   0.00000  Uiso   1.00
C323   C     0.33454   0.96164   0.49327   0.00000  Uiso   1.00
C324   C     0.31293   0.99929   0.55741   0.00000  Uiso   1.00
C325   C     0.29600   0.04542   0.52352   0.00000  Uiso   1.00
C326   C     0.27756   0.07438   0.59397   0.00000  Uiso   1.00
C327   C     0.24421   0.13534   0.67822   0.00000  Uiso   1.00
C328   C     0.32040   0.90385   0.50590   0.00000  Uiso   1.00
C329   C     0.30975   0.86974   0.42871   0.00000  Uiso   1.00
C330   C     0.29760   0.81837   0.45581   0.00000  Uiso   1.00
C331   C     0.27586   0.73116   0.46010   0.00000  Uiso   1.00
C332   C     0.36850   0.96083   0.54354   0.00000  Uiso   1.00
C333   C     0.39830   0.97461   0.49799   0.00000  Uiso   1.00
C334   C     0.42665   0.97120   0.55677   0.00000  Uiso   1.00
C335   C     0.47959   0.97245   0.61950   0.00000  Uiso   1.00
C336   C     0.33190   0.93106   0.67864   0.00000  Uiso   1.00
C337   C     0.31149   0.98267   0.65809   0.00000  Uiso   1.00
C338   C     0.29308   0.01158   0.72861   0.00000  Uiso   1.00
C339   C     0.27613   0.05774   0.69484   0.00000  Uiso   1.00
C340   C     0.31896   0.88724   0.60658   0.00000  Uiso   1.00
C341   C     0.30683   0.83591   0.63380   0.00000  Uiso   1.00
C342   C     0.29617   0.80173   0.55668   0.00000  Uiso   1.00
C343   C     0.36706   0.94422   0.64423   0.00000  Uiso   1.00
C344   C     0.39538   0.94078   0.70308   0.00000  Uiso   1.00
C345   C     0.42522   0.95456   0.65764   0.00000  Uiso   1.00
H346   H     0.33566   0.97457   0.41489   0.00000  Uiso   1.00
H347   H     0.29712   0.05826   0.44559   0.00000  Uiso   1.00
H348   H     0.31087   0.88261   0.35081   0.00000  Uiso   1.00
H349   H     0.39940   0.98747   0.42008   0.00000  Uiso   1.00
H350   H     0.25374   0.14369   0.52403   0.00000  Uiso   1.00
H351   H     0.28274   0.77333   0.32416   0.00000  Uiso   1.00
H352   H     0.46944   0.99444   0.47023   0.00000  Uiso   1.00
H353   H     0.33079   0.91812   0.75703   0.00000  Uiso   1.00
H354   H     0.29197   0.99871   0.80652   0.00000  Uiso   1.00
H355   H     0.30572   0.82306   0.71173   0.00000  Uiso   1.00
H356   H     0.39426   0.92792   0.78100   0.00000  Uiso   1.00
H357   H     0.24956   0.09536   0.81697   0.00000  Uiso   1.00
H358   H     0.27857   0.72500   0.61710   0.00000  Uiso   1.00
H359   H     0.46526   0.94611   0.76317   0.00000  Uiso   1.00
O360   O     0.22620   0.17355   0.69688   0.00000  Uiso   1.00
O361   O     0.26426   0.68764   0.43465   0.00000  Uiso   1.00
O362   O     0.50919   0.97774   0.62629   0.00000  Uiso   1.00
N363   N     0.25809   0.12127   0.58619   0.00000  Uiso   1.00
N364   N     0.28520   0.77500   0.39932   0.00000  Uiso   1.00
N365   N     0.45974   0.98171   0.53587   0.00000  Uiso   1.00
N366   N     0.25584   0.09526   0.74382   0.00000  Uiso   1.00
N367   N     0.28296   0.74899   0.55695   0.00000  Uiso   1.00
N368   N     0.45750   0.95570   0.69350   0.00000  Uiso   1.00
