data_job_03779
_audit_creation_date              2018-12-19
_audit_creation_method            'Materials Studio'
_symmetry_space_group_name_H-M    'P1'
_symmetry_Int_Tables_number       1
_symmetry_cell_setting            triclinic
loop_
_symmetry_equiv_pos_as_xyz
  x,y,z
_cell_length_a                    23.1710
_cell_length_b                    23.1710
_cell_length_c                    10.8765
_cell_angle_alpha                 90.0000
_cell_angle_beta                  90.0000
_cell_angle_gamma                 120.0000
loop_
_atom_site_label
_atom_site_type_symbol
_atom_site_fract_x
_atom_site_fract_y
_atom_site_fract_z
_atom_site_U_iso_or_equiv
_atom_site_adp_type
_atom_site_occupancy
C1     C     0.73254   0.08081   0.15805   0.00000  Uiso   1.00
C2     C     0.79437   0.08532   0.21705   0.00000  Uiso   1.00
C3     C     0.84852   0.08949   0.15446   0.00000  Uiso   1.00
C4     C     0.90015   0.09319   0.22517   0.00000  Uiso   1.00
C5     C     0.99652   0.10022   0.29721   0.00000  Uiso   1.00
C6     C     0.67331   0.01771   0.20928   0.00000  Uiso   1.00
C7     C     0.62567   0.96504   0.14015   0.00000  Uiso   1.00
C8     C     0.57539   0.91184   0.20432   0.00000  Uiso   1.00
C9     C     0.48378   0.81393   0.26429   0.00000  Uiso   1.00
C10    C     0.72680   0.13884   0.21014   0.00000  Uiso   1.00
C11    C     0.72413   0.18801   0.14174   0.00000  Uiso   1.00
C12    C     0.71887   0.23678   0.20664   0.00000  Uiso   1.00
C13    C     0.71033   0.32694   0.26795   0.00000  Uiso   1.00
C14    C     0.72795   0.07999   0.39493   0.00000  Uiso   1.00
C15    C     0.79187   0.08487   0.34572   0.00000  Uiso   1.00
C16    C     0.84344   0.08857   0.41654   0.00000  Uiso   1.00
C17    C     0.89766   0.09275   0.35406   0.00000  Uiso   1.00
C18    C     0.67081   0.01726   0.33794   0.00000  Uiso   1.00
C19    C     0.62059   0.96413   0.40223   0.00000  Uiso   1.00
C20    C     0.57289   0.91139   0.33321   0.00000  Uiso   1.00
C21    C     0.72431   0.13839   0.33881   0.00000  Uiso   1.00
C22    C     0.71906   0.18710   0.40382   0.00000  Uiso   1.00
C23    C     0.71638   0.23633   0.33553   0.00000  Uiso   1.00
H24    H     0.73448   0.08116   0.05788   0.00000  Uiso   1.00
H25    H     0.85042   0.08982   0.05489   0.00000  Uiso   1.00
H26    H     0.62760   0.96540   0.04058   0.00000  Uiso   1.00
H27    H     0.72605   0.18834   0.04217   0.00000  Uiso   1.00
H28    H     0.97786   0.09921   0.10831   0.00000  Uiso   1.00
H29    H     0.50802   0.83687   0.07814   0.00000  Uiso   1.00
H30    H     0.71562   0.30697   0.08150   0.00000  Uiso   1.00
H31    H     0.72601   0.07964   0.49510   0.00000  Uiso   1.00
H32    H     0.84150   0.08823   0.51611   0.00000  Uiso   1.00
H33    H     0.61868   0.96380   0.50180   0.00000  Uiso   1.00
H34    H     0.71713   0.18674   0.50339   0.00000  Uiso   1.00
H35    H     0.97062   0.09791   0.48265   0.00000  Uiso   1.00
H36    H     0.50078   0.83557   0.45248   0.00000  Uiso   1.00
H37    H     0.70838   0.30567   0.45585   0.00000  Uiso   1.00
O38    O     0.05035   0.10422   0.30141   0.00000  Uiso   1.00
O39    O     0.43394   0.76004   0.26183   0.00000  Uiso   1.00
O40    O     0.70631   0.37680   0.26623   0.00000  Uiso   1.00
N41    N     0.96031   0.09774   0.19353   0.00000  Uiso   1.00
N42    N     0.52105   0.85246   0.16532   0.00000  Uiso   1.00
N43    N     0.71512   0.29196   0.16846   0.00000  Uiso   1.00
N44    N     0.95642   0.09704   0.39496   0.00000  Uiso   1.00
N45    N     0.51715   0.85176   0.36676   0.00000  Uiso   1.00
N46    N     0.71122   0.29126   0.36989   0.00000  Uiso   1.00
C47    C     0.91919   0.65173   0.82471   0.00000  Uiso   1.00
C48    C     0.91468   0.70905   0.88372   0.00000  Uiso   1.00
C49    C     0.91051   0.75903   0.82113   0.00000  Uiso   1.00
C50    C     0.90681   0.80696   0.89183   0.00000  Uiso   1.00
C51    C     0.89978   0.89629   0.96388   0.00000  Uiso   1.00
C52    C     0.98229   0.65560   0.87595   0.00000  Uiso   1.00
C53    C     0.03496   0.66063   0.80681   0.00000  Uiso   1.00
C54    C     0.08816   0.66355   0.87098   0.00000  Uiso   1.00
C55    C     0.18607   0.66985   0.93096   0.00000  Uiso   1.00
C56    C     0.86116   0.58797   0.87681   0.00000  Uiso   1.00
C57    C     0.81199   0.53612   0.80841   0.00000  Uiso   1.00
C58    C     0.76322   0.48209   0.87330   0.00000  Uiso   1.00
C59    C     0.67306   0.38338   0.93462   0.00000  Uiso   1.00
C60    C     0.92001   0.64797   0.06160   0.00000  Uiso   1.00
C61    C     0.91513   0.70700   0.01238   0.00000  Uiso   1.00
C62    C     0.91143   0.75487   0.08321   0.00000  Uiso   1.00
C63    C     0.90725   0.80491   0.02073   0.00000  Uiso   1.00
C64    C     0.98274   0.65355   0.00461   0.00000  Uiso   1.00
C65    C     0.03587   0.65647   0.06890   0.00000  Uiso   1.00
C66    C     0.08861   0.66151   0.99988   0.00000  Uiso   1.00
C67    C     0.86161   0.58592   0.00548   0.00000  Uiso   1.00
C68    C     0.81290   0.53196   0.07049   0.00000  Uiso   1.00
C69    C     0.76367   0.48004   0.00220   0.00000  Uiso   1.00
H70    H     0.91884   0.65332   0.72454   0.00000  Uiso   1.00
H71    H     0.91018   0.76060   0.72155   0.00000  Uiso   1.00
H72    H     0.03460   0.66220   0.70725   0.00000  Uiso   1.00
H73    H     0.81166   0.53772   0.70884   0.00000  Uiso   1.00
H74    H     0.90079   0.87865   0.77498   0.00000  Uiso   1.00
H75    H     0.16313   0.67116   0.74481   0.00000  Uiso   1.00
H76    H     0.69303   0.40865   0.74817   0.00000  Uiso   1.00
H77    H     0.92036   0.64637   0.16177   0.00000  Uiso   1.00
H78    H     0.91177   0.75327   0.18277   0.00000  Uiso   1.00
H79    H     0.03620   0.65488   0.16846   0.00000  Uiso   1.00
H80    H     0.81326   0.53039   0.17006   0.00000  Uiso   1.00
H81    H     0.90209   0.87271   0.14932   0.00000  Uiso   1.00
H82    H     0.16443   0.66521   0.11915   0.00000  Uiso   1.00
H83    H     0.69433   0.40271   0.12251   0.00000  Uiso   1.00
O84    O     0.89578   0.94614   0.96808   0.00000  Uiso   1.00
O85    O     0.23996   0.67390   0.92849   0.00000  Uiso   1.00
O86    O     0.62320   0.32950   0.93290   0.00000  Uiso   1.00
N87    N     0.90226   0.86257   0.86020   0.00000  Uiso   1.00
N88    N     0.14754   0.66859   0.83199   0.00000  Uiso   1.00
N89    N     0.70804   0.42316   0.83513   0.00000  Uiso   1.00
N90    N     0.90296   0.85937   0.06163   0.00000  Uiso   1.00
N91    N     0.14824   0.66539   0.03342   0.00000  Uiso   1.00
N92    N     0.70874   0.41996   0.03656   0.00000  Uiso   1.00
C93    C     0.34827   0.26746   0.49138   0.00000  Uiso   1.00
C94    C     0.29095   0.20563   0.55039   0.00000  Uiso   1.00
C95    C     0.24097   0.15148   0.48779   0.00000  Uiso   1.00
C96    C     0.19304   0.09985   0.55850   0.00000  Uiso   1.00
C97    C     0.10371   0.00348   0.63055   0.00000  Uiso   1.00
C98    C     0.34440   0.32669   0.54261   0.00000  Uiso   1.00
C99    C     0.33937   0.37433   0.47348   0.00000  Uiso   1.00
C100   C     0.33645   0.42461   0.53765   0.00000  Uiso   1.00
C101   C     0.33015   0.51622   0.59763   0.00000  Uiso   1.00
C102   C     0.41203   0.27320   0.54348   0.00000  Uiso   1.00
C103   C     0.46388   0.27587   0.47507   0.00000  Uiso   1.00
C104   C     0.51791   0.28113   0.53997   0.00000  Uiso   1.00
C105   C     0.61662   0.28967   0.60129   0.00000  Uiso   1.00
C106   C     0.35203   0.27205   0.72826   0.00000  Uiso   1.00
C107   C     0.29300   0.20813   0.67905   0.00000  Uiso   1.00
C108   C     0.24513   0.15656   0.74987   0.00000  Uiso   1.00
C109   C     0.19509   0.10234   0.68740   0.00000  Uiso   1.00
C110   C     0.34645   0.32919   0.67127   0.00000  Uiso   1.00
C111   C     0.34353   0.37941   0.73556   0.00000  Uiso   1.00
C112   C     0.33849   0.42711   0.66655   0.00000  Uiso   1.00
C113   C     0.41408   0.27569   0.67214   0.00000  Uiso   1.00
C114   C     0.46804   0.28094   0.73716   0.00000  Uiso   1.00
C115   C     0.51996   0.28362   0.66887   0.00000  Uiso   1.00
H116   H     0.34668   0.26552   0.39121   0.00000  Uiso   1.00
H117   H     0.23940   0.14958   0.38822   0.00000  Uiso   1.00
H118   H     0.33780   0.37240   0.37391   0.00000  Uiso   1.00
H119   H     0.46228   0.27395   0.37551   0.00000  Uiso   1.00
H120   H     0.12135   0.02214   0.44164   0.00000  Uiso   1.00
H121   H     0.32884   0.49198   0.41148   0.00000  Uiso   1.00
H122   H     0.59135   0.28438   0.41483   0.00000  Uiso   1.00
H123   H     0.35363   0.27399   0.82844   0.00000  Uiso   1.00
H124   H     0.24673   0.15850   0.84944   0.00000  Uiso   1.00
H125   H     0.34512   0.38132   0.83513   0.00000  Uiso   1.00
H126   H     0.46961   0.28287   0.83672   0.00000  Uiso   1.00
H127   H     0.12729   0.02938   0.81599   0.00000  Uiso   1.00
H128   H     0.33479   0.49922   0.78582   0.00000  Uiso   1.00
H129   H     0.59729   0.29162   0.78918   0.00000  Uiso   1.00
O130   O     0.05386   0.94965   0.63474   0.00000  Uiso   1.00
O131   O     0.32610   0.56606   0.59516   0.00000  Uiso   1.00
O132   O     0.67050   0.29369   0.59957   0.00000  Uiso   1.00
N133   N     0.13743   0.03969   0.52686   0.00000  Uiso   1.00
N134   N     0.33141   0.47895   0.49866   0.00000  Uiso   1.00
N135   N     0.57684   0.28488   0.50180   0.00000  Uiso   1.00
N136   N     0.14063   0.04358   0.72830   0.00000  Uiso   1.00
N137   N     0.33461   0.48285   0.70009   0.00000  Uiso   1.00
N138   N     0.58004   0.28878   0.70323   0.00000  Uiso   1.00
C139   C     0.26746   0.91919   0.15805   0.00000  Uiso   1.00
C140   C     0.20563   0.91468   0.21705   0.00000  Uiso   1.00
C141   C     0.15148   0.91051   0.15446   0.00000  Uiso   1.00
C142   C     0.09985   0.90681   0.22517   0.00000  Uiso   1.00
C143   C     0.00348   0.89978   0.29721   0.00000  Uiso   1.00
C144   C     0.32669   0.98229   0.20928   0.00000  Uiso   1.00
C145   C     0.37433   0.03496   0.14015   0.00000  Uiso   1.00
C146   C     0.42461   0.08816   0.20432   0.00000  Uiso   1.00
C147   C     0.51622   0.18607   0.26429   0.00000  Uiso   1.00
C148   C     0.27320   0.86116   0.21014   0.00000  Uiso   1.00
C149   C     0.27587   0.81199   0.14174   0.00000  Uiso   1.00
C150   C     0.28113   0.76322   0.20664   0.00000  Uiso   1.00
C151   C     0.28967   0.67306   0.26795   0.00000  Uiso   1.00
C152   C     0.27205   0.92001   0.39493   0.00000  Uiso   1.00
C153   C     0.20813   0.91513   0.34572   0.00000  Uiso   1.00
C154   C     0.15656   0.91143   0.41654   0.00000  Uiso   1.00
C155   C     0.10234   0.90725   0.35406   0.00000  Uiso   1.00
C156   C     0.32919   0.98274   0.33794   0.00000  Uiso   1.00
C157   C     0.37941   0.03587   0.40223   0.00000  Uiso   1.00
C158   C     0.42711   0.08861   0.33321   0.00000  Uiso   1.00
C159   C     0.27569   0.86161   0.33881   0.00000  Uiso   1.00
C160   C     0.28094   0.81290   0.40382   0.00000  Uiso   1.00
C161   C     0.28362   0.76367   0.33553   0.00000  Uiso   1.00
H162   H     0.26552   0.91884   0.05788   0.00000  Uiso   1.00
H163   H     0.14958   0.91018   0.05489   0.00000  Uiso   1.00
H164   H     0.37240   0.03460   0.04058   0.00000  Uiso   1.00
H165   H     0.27395   0.81166   0.04217   0.00000  Uiso   1.00
H166   H     0.02214   0.90079   0.10831   0.00000  Uiso   1.00
H167   H     0.49198   0.16313   0.07814   0.00000  Uiso   1.00
H168   H     0.28438   0.69303   0.08150   0.00000  Uiso   1.00
H169   H     0.27399   0.92036   0.49510   0.00000  Uiso   1.00
H170   H     0.15850   0.91177   0.51611   0.00000  Uiso   1.00
H171   H     0.38132   0.03620   0.50180   0.00000  Uiso   1.00
H172   H     0.28287   0.81326   0.50339   0.00000  Uiso   1.00
H173   H     0.02938   0.90209   0.48265   0.00000  Uiso   1.00
H174   H     0.49922   0.16443   0.45248   0.00000  Uiso   1.00
H175   H     0.29162   0.69433   0.45585   0.00000  Uiso   1.00
O176   O     0.94965   0.89578   0.30141   0.00000  Uiso   1.00
O177   O     0.56606   0.23996   0.26183   0.00000  Uiso   1.00
O178   O     0.29369   0.62320   0.26623   0.00000  Uiso   1.00
N179   N     0.03969   0.90226   0.19353   0.00000  Uiso   1.00
N180   N     0.47895   0.14754   0.16532   0.00000  Uiso   1.00
N181   N     0.28488   0.70804   0.16846   0.00000  Uiso   1.00
N182   N     0.04358   0.90296   0.39496   0.00000  Uiso   1.00
N183   N     0.48285   0.14824   0.36676   0.00000  Uiso   1.00
N184   N     0.28878   0.70874   0.36989   0.00000  Uiso   1.00
C185   C     0.08081   0.34827   0.82471   0.00000  Uiso   1.00
C186   C     0.08532   0.29095   0.88372   0.00000  Uiso   1.00
C187   C     0.08949   0.24097   0.82113   0.00000  Uiso   1.00
C188   C     0.09319   0.19304   0.89183   0.00000  Uiso   1.00
C189   C     0.10022   0.10371   0.96388   0.00000  Uiso   1.00
C190   C     0.01771   0.34440   0.87595   0.00000  Uiso   1.00
C191   C     0.96504   0.33937   0.80681   0.00000  Uiso   1.00
C192   C     0.91184   0.33645   0.87098   0.00000  Uiso   1.00
C193   C     0.81393   0.33015   0.93096   0.00000  Uiso   1.00
C194   C     0.13884   0.41203   0.87681   0.00000  Uiso   1.00
C195   C     0.18801   0.46388   0.80841   0.00000  Uiso   1.00
C196   C     0.23678   0.51791   0.87330   0.00000  Uiso   1.00
C197   C     0.32694   0.61662   0.93462   0.00000  Uiso   1.00
C198   C     0.07999   0.35203   0.06160   0.00000  Uiso   1.00
C199   C     0.08487   0.29300   0.01238   0.00000  Uiso   1.00
C200   C     0.08857   0.24513   0.08321   0.00000  Uiso   1.00
C201   C     0.09275   0.19509   0.02073   0.00000  Uiso   1.00
C202   C     0.01726   0.34645   0.00461   0.00000  Uiso   1.00
C203   C     0.96413   0.34353   0.06890   0.00000  Uiso   1.00
C204   C     0.91139   0.33849   0.99988   0.00000  Uiso   1.00
C205   C     0.13839   0.41408   0.00548   0.00000  Uiso   1.00
C206   C     0.18710   0.46804   0.07049   0.00000  Uiso   1.00
C207   C     0.23633   0.51996   0.00220   0.00000  Uiso   1.00
H208   H     0.08116   0.34668   0.72454   0.00000  Uiso   1.00
H209   H     0.08982   0.23940   0.72155   0.00000  Uiso   1.00
H210   H     0.96540   0.33780   0.70725   0.00000  Uiso   1.00
H211   H     0.18834   0.46228   0.70884   0.00000  Uiso   1.00
H212   H     0.09921   0.12135   0.77498   0.00000  Uiso   1.00
H213   H     0.83687   0.32884   0.74481   0.00000  Uiso   1.00
H214   H     0.30697   0.59135   0.74817   0.00000  Uiso   1.00
H215   H     0.07964   0.35363   0.16177   0.00000  Uiso   1.00
H216   H     0.08823   0.24673   0.18277   0.00000  Uiso   1.00
H217   H     0.96380   0.34512   0.16846   0.00000  Uiso   1.00
H218   H     0.18674   0.46961   0.17006   0.00000  Uiso   1.00
H219   H     0.09791   0.12729   0.14932   0.00000  Uiso   1.00
H220   H     0.83557   0.33479   0.11915   0.00000  Uiso   1.00
H221   H     0.30567   0.59729   0.12251   0.00000  Uiso   1.00
O222   O     0.10422   0.05386   0.96808   0.00000  Uiso   1.00
O223   O     0.76004   0.32610   0.92849   0.00000  Uiso   1.00
O224   O     0.37680   0.67050   0.93290   0.00000  Uiso   1.00
N225   N     0.09774   0.13743   0.86020   0.00000  Uiso   1.00
N226   N     0.85246   0.33141   0.83199   0.00000  Uiso   1.00
N227   N     0.29196   0.57684   0.83513   0.00000  Uiso   1.00
N228   N     0.09704   0.14063   0.06163   0.00000  Uiso   1.00
N229   N     0.85176   0.33461   0.03342   0.00000  Uiso   1.00
N230   N     0.29126   0.58004   0.03656   0.00000  Uiso   1.00
C231   C     0.65173   0.73254   0.49138   0.00000  Uiso   1.00
C232   C     0.70905   0.79437   0.55039   0.00000  Uiso   1.00
C233   C     0.75903   0.84852   0.48779   0.00000  Uiso   1.00
C234   C     0.80696   0.90015   0.55850   0.00000  Uiso   1.00
C235   C     0.89629   0.99652   0.63055   0.00000  Uiso   1.00
C236   C     0.65560   0.67331   0.54261   0.00000  Uiso   1.00
C237   C     0.66063   0.62567   0.47348   0.00000  Uiso   1.00
C238   C     0.66355   0.57539   0.53765   0.00000  Uiso   1.00
C239   C     0.66985   0.48378   0.59763   0.00000  Uiso   1.00
C240   C     0.58797   0.72680   0.54348   0.00000  Uiso   1.00
C241   C     0.53612   0.72413   0.47507   0.00000  Uiso   1.00
C242   C     0.48209   0.71887   0.53997   0.00000  Uiso   1.00
C243   C     0.38338   0.71033   0.60129   0.00000  Uiso   1.00
C244   C     0.64797   0.72795   0.72826   0.00000  Uiso   1.00
C245   C     0.70700   0.79187   0.67905   0.00000  Uiso   1.00
C246   C     0.75487   0.84344   0.74987   0.00000  Uiso   1.00
C247   C     0.80491   0.89766   0.68740   0.00000  Uiso   1.00
C248   C     0.65355   0.67081   0.67127   0.00000  Uiso   1.00
C249   C     0.65647   0.62059   0.73556   0.00000  Uiso   1.00
C250   C     0.66151   0.57289   0.66655   0.00000  Uiso   1.00
C251   C     0.58592   0.72431   0.67214   0.00000  Uiso   1.00
C252   C     0.53196   0.71906   0.73716   0.00000  Uiso   1.00
C253   C     0.48004   0.71638   0.66887   0.00000  Uiso   1.00
H254   H     0.65332   0.73448   0.39121   0.00000  Uiso   1.00
H255   H     0.76060   0.85042   0.38822   0.00000  Uiso   1.00
H256   H     0.66220   0.62760   0.37391   0.00000  Uiso   1.00
H257   H     0.53772   0.72605   0.37551   0.00000  Uiso   1.00
H258   H     0.87865   0.97786   0.44164   0.00000  Uiso   1.00
H259   H     0.67116   0.50802   0.41148   0.00000  Uiso   1.00
H260   H     0.40865   0.71562   0.41483   0.00000  Uiso   1.00
H261   H     0.64637   0.72601   0.82844   0.00000  Uiso   1.00
H262   H     0.75327   0.84150   0.84944   0.00000  Uiso   1.00
H263   H     0.65488   0.61868   0.83513   0.00000  Uiso   1.00
H264   H     0.53039   0.71713   0.83672   0.00000  Uiso   1.00
H265   H     0.87271   0.97062   0.81599   0.00000  Uiso   1.00
H266   H     0.66521   0.50078   0.78582   0.00000  Uiso   1.00
H267   H     0.40271   0.70838   0.78918   0.00000  Uiso   1.00
O268   O     0.94614   0.05035   0.63474   0.00000  Uiso   1.00
O269   O     0.67390   0.43394   0.59516   0.00000  Uiso   1.00
O270   O     0.32950   0.70631   0.59957   0.00000  Uiso   1.00
N271   N     0.86257   0.96031   0.52686   0.00000  Uiso   1.00
N272   N     0.66859   0.52105   0.49866   0.00000  Uiso   1.00
N273   N     0.42316   0.71512   0.50180   0.00000  Uiso   1.00
N274   N     0.85937   0.95642   0.72830   0.00000  Uiso   1.00
N275   N     0.66539   0.51715   0.70009   0.00000  Uiso   1.00
N276   N     0.41996   0.71122   0.70323   0.00000  Uiso   1.00
