data_job_02538
_audit_creation_date              2018-12-19
_audit_creation_method            'Materials Studio'
_symmetry_space_group_name_H-M    'P1'
_symmetry_Int_Tables_number       1
_symmetry_cell_setting            triclinic
loop_
_symmetry_equiv_pos_as_xyz
  x,y,z
_cell_length_a                    27.4175
_cell_length_b                    12.4098
_cell_length_c                    23.3532
_cell_angle_alpha                 90.0000
_cell_angle_beta                  126.1422
_cell_angle_gamma                 90.0000
loop_
_atom_site_label
_atom_site_type_symbol
_atom_site_fract_x
_atom_site_fract_y
_atom_site_fract_z
_atom_site_U_iso_or_equiv
_atom_site_adp_type
_atom_site_occupancy
C1     C     0.86578   0.83970   0.96091   0.00000  Uiso   1.00
C2     C     0.89158   0.83769   0.91823   0.00000  Uiso   1.00
C3     C     0.94999   0.80818   0.94389   0.00000  Uiso   1.00
C4     C     0.96482   0.81172   0.89643   0.00000  Uiso   1.00
C5     C     0.01128   0.80379   0.84091   0.00000  Uiso   1.00
C6     C     0.84264   0.95404   0.95440   0.00000  Uiso   1.00
C7     C     0.85990   0.02235   0.01047   0.00000  Uiso   1.00
C8     C     0.83353   0.12384   0.99345   0.00000  Uiso   1.00
C9     C     0.80398   0.29652   0.99408   0.00000  Uiso   1.00
C10    C     0.81001   0.76765   0.92107   0.00000  Uiso   1.00
C11    C     0.79982   0.67926   0.94912   0.00000  Uiso   1.00
C12    C     0.74597   0.62383   0.90404   0.00000  Uiso   1.00
C13    C     0.66577   0.50711   0.85291   0.00000  Uiso   1.00
C14    C     0.78826   0.89846   0.83100   0.00000  Uiso   1.00
C15    C     0.84947   0.86961   0.84767   0.00000  Uiso   1.00
C16    C     0.86421   0.87319   0.80015   0.00000  Uiso   1.00
C17    C     0.92264   0.84368   0.82574   0.00000  Uiso   1.00
C18    C     0.80053   0.98596   0.88384   0.00000  Uiso   1.00
C19    C     0.77413   0.08736   0.86673   0.00000  Uiso   1.00
C20    C     0.79134   0.15581   0.92276   0.00000  Uiso   1.00
C21    C     0.76790   0.79957   0.85050   0.00000  Uiso   1.00
C22    C     0.71405   0.74427   0.80538   0.00000  Uiso   1.00
C23    C     0.70379   0.65580   0.83335   0.00000  Uiso   1.00
H24    H     0.89856   0.81486   0.01585   0.00000  Uiso   1.00
H25    H     0.98256   0.78349   0.99851   0.00000  Uiso   1.00
H26    H     0.89248   0.99763   0.06507   0.00000  Uiso   1.00
H27    H     0.83242   0.65459   0.00372   0.00000  Uiso   1.00
H28    H     0.05712   0.76283   0.94817   0.00000  Uiso   1.00
H29    H     0.86717   0.21433   0.08852   0.00000  Uiso   1.00
H30    H     0.74051   0.49096   0.95916   0.00000  Uiso   1.00
H31    H     0.75547   0.92331   0.77606   0.00000  Uiso   1.00
H32    H     0.83162   0.89789   0.74555   0.00000  Uiso   1.00
H33    H     0.74154   0.11203   0.81212   0.00000  Uiso   1.00
H34    H     0.68148   0.76899   0.75077   0.00000  Uiso   1.00
H35    H     0.93462   0.85568   0.74286   0.00000  Uiso   1.00
H36    H     0.74466   0.30719   0.88322   0.00000  Uiso   1.00
H37    H     0.61800   0.58382   0.75386   0.00000  Uiso   1.00
O38    O     0.04855   0.79061   0.82978   0.00000  Uiso   1.00
O39    O     0.79933   0.38296   0.01392   0.00000  Uiso   1.00
O40    O     0.63316   0.43391   0.84421   0.00000  Uiso   1.00
N41    N     0.01784   0.78815   0.90403   0.00000  Uiso   1.00
N42    N     0.84025   0.21029   0.03526   0.00000  Uiso   1.00
N43    N     0.72183   0.53401   0.91432   0.00000  Uiso   1.00
N44    N     0.95192   0.83811   0.79355   0.00000  Uiso   1.00
N45    N     0.77433   0.26025   0.92478   0.00000  Uiso   1.00
N46    N     0.65591   0.58397   0.80385   0.00000  Uiso   1.00
C47    C     0.36578   0.33970   0.96091   0.00000  Uiso   1.00
C48    C     0.39158   0.33769   0.91823   0.00000  Uiso   1.00
C49    C     0.44999   0.30818   0.94389   0.00000  Uiso   1.00
C50    C     0.46482   0.31172   0.89643   0.00000  Uiso   1.00
C51    C     0.51128   0.30379   0.84091   0.00000  Uiso   1.00
C52    C     0.34264   0.45404   0.95440   0.00000  Uiso   1.00
C53    C     0.35990   0.52235   0.01047   0.00000  Uiso   1.00
C54    C     0.33353   0.62384   0.99345   0.00000  Uiso   1.00
C55    C     0.30398   0.79652   0.99408   0.00000  Uiso   1.00
C56    C     0.31001   0.26765   0.92107   0.00000  Uiso   1.00
C57    C     0.29982   0.17926   0.94912   0.00000  Uiso   1.00
C58    C     0.24597   0.12383   0.90404   0.00000  Uiso   1.00
C59    C     0.16577   0.00711   0.85291   0.00000  Uiso   1.00
C60    C     0.28826   0.39846   0.83100   0.00000  Uiso   1.00
C61    C     0.34947   0.36961   0.84767   0.00000  Uiso   1.00
C62    C     0.36421   0.37319   0.80015   0.00000  Uiso   1.00
C63    C     0.42264   0.34368   0.82574   0.00000  Uiso   1.00
C64    C     0.30053   0.48596   0.88384   0.00000  Uiso   1.00
C65    C     0.27413   0.58736   0.86673   0.00000  Uiso   1.00
C66    C     0.29134   0.65581   0.92276   0.00000  Uiso   1.00
C67    C     0.26790   0.29957   0.85050   0.00000  Uiso   1.00
C68    C     0.21405   0.24427   0.80538   0.00000  Uiso   1.00
C69    C     0.20379   0.15580   0.83335   0.00000  Uiso   1.00
H70    H     0.39856   0.31486   0.01585   0.00000  Uiso   1.00
H71    H     0.48256   0.28349   0.99851   0.00000  Uiso   1.00
H72    H     0.39248   0.49763   0.06507   0.00000  Uiso   1.00
H73    H     0.33242   0.15459   0.00372   0.00000  Uiso   1.00
H74    H     0.55712   0.26283   0.94817   0.00000  Uiso   1.00
H75    H     0.36717   0.71433   0.08852   0.00000  Uiso   1.00
H76    H     0.24051   0.99096   0.95916   0.00000  Uiso   1.00
H77    H     0.25547   0.42331   0.77606   0.00000  Uiso   1.00
H78    H     0.33162   0.39789   0.74555   0.00000  Uiso   1.00
H79    H     0.24154   0.61203   0.81212   0.00000  Uiso   1.00
H80    H     0.18148   0.26899   0.75077   0.00000  Uiso   1.00
H81    H     0.43462   0.35568   0.74286   0.00000  Uiso   1.00
H82    H     0.24466   0.80719   0.88322   0.00000  Uiso   1.00
H83    H     0.11800   0.08382   0.75386   0.00000  Uiso   1.00
O84    O     0.54855   0.29061   0.82978   0.00000  Uiso   1.00
O85    O     0.29933   0.88296   0.01392   0.00000  Uiso   1.00
O86    O     0.13316   0.93391   0.84421   0.00000  Uiso   1.00
N87    N     0.51784   0.28815   0.90403   0.00000  Uiso   1.00
N88    N     0.34025   0.71029   0.03526   0.00000  Uiso   1.00
N89    N     0.22183   0.03401   0.91432   0.00000  Uiso   1.00
N90    N     0.45192   0.33811   0.79355   0.00000  Uiso   1.00
N91    N     0.27433   0.76025   0.92478   0.00000  Uiso   1.00
N92    N     0.15591   0.08397   0.80385   0.00000  Uiso   1.00
C93    C     0.13422   0.83970   0.53909   0.00000  Uiso   1.00
C94    C     0.10842   0.83769   0.58177   0.00000  Uiso   1.00
C95    C     0.05001   0.80818   0.55611   0.00000  Uiso   1.00
C96    C     0.03518   0.81172   0.60357   0.00000  Uiso   1.00
C97    C     0.98872   0.80379   0.65909   0.00000  Uiso   1.00
C98    C     0.15736   0.95404   0.54560   0.00000  Uiso   1.00
C99    C     0.14010   0.02235   0.48953   0.00000  Uiso   1.00
C100   C     0.16647   0.12384   0.50655   0.00000  Uiso   1.00
C101   C     0.19602   0.29652   0.50592   0.00000  Uiso   1.00
C102   C     0.18999   0.76765   0.57893   0.00000  Uiso   1.00
C103   C     0.20018   0.67926   0.55088   0.00000  Uiso   1.00
C104   C     0.25403   0.62383   0.59596   0.00000  Uiso   1.00
C105   C     0.33423   0.50711   0.64709   0.00000  Uiso   1.00
C106   C     0.21174   0.89846   0.66900   0.00000  Uiso   1.00
C107   C     0.15053   0.86961   0.65233   0.00000  Uiso   1.00
C108   C     0.13579   0.87319   0.69985   0.00000  Uiso   1.00
C109   C     0.07736   0.84368   0.67426   0.00000  Uiso   1.00
C110   C     0.19947   0.98596   0.61616   0.00000  Uiso   1.00
C111   C     0.22587   0.08736   0.63327   0.00000  Uiso   1.00
C112   C     0.20866   0.15581   0.57724   0.00000  Uiso   1.00
C113   C     0.23210   0.79957   0.64950   0.00000  Uiso   1.00
C114   C     0.28595   0.74427   0.69462   0.00000  Uiso   1.00
C115   C     0.29621   0.65580   0.66665   0.00000  Uiso   1.00
H116   H     0.10144   0.81486   0.48415   0.00000  Uiso   1.00
H117   H     0.01744   0.78349   0.50149   0.00000  Uiso   1.00
H118   H     0.10752   0.99763   0.43493   0.00000  Uiso   1.00
H119   H     0.16758   0.65459   0.49628   0.00000  Uiso   1.00
H120   H     0.94288   0.76283   0.55183   0.00000  Uiso   1.00
H121   H     0.13283   0.21433   0.41148   0.00000  Uiso   1.00
H122   H     0.25949   0.49096   0.54084   0.00000  Uiso   1.00
H123   H     0.24453   0.92331   0.72394   0.00000  Uiso   1.00
H124   H     0.16838   0.89789   0.75445   0.00000  Uiso   1.00
H125   H     0.25846   0.11203   0.68788   0.00000  Uiso   1.00
H126   H     0.31852   0.76899   0.74923   0.00000  Uiso   1.00
H127   H     0.06538   0.85568   0.75714   0.00000  Uiso   1.00
H128   H     0.25534   0.30719   0.61678   0.00000  Uiso   1.00
H129   H     0.38200   0.58382   0.74614   0.00000  Uiso   1.00
O130   O     0.95145   0.79061   0.67022   0.00000  Uiso   1.00
O131   O     0.20067   0.38296   0.48608   0.00000  Uiso   1.00
O132   O     0.36684   0.43391   0.65579   0.00000  Uiso   1.00
N133   N     0.98216   0.78815   0.59597   0.00000  Uiso   1.00
N134   N     0.15975   0.21029   0.46474   0.00000  Uiso   1.00
N135   N     0.27817   0.53401   0.58568   0.00000  Uiso   1.00
N136   N     0.04808   0.83811   0.70645   0.00000  Uiso   1.00
N137   N     0.22567   0.26025   0.57522   0.00000  Uiso   1.00
N138   N     0.34409   0.58397   0.69615   0.00000  Uiso   1.00
C139   C     0.63422   0.33970   0.53909   0.00000  Uiso   1.00
C140   C     0.60842   0.33769   0.58177   0.00000  Uiso   1.00
C141   C     0.55001   0.30818   0.55611   0.00000  Uiso   1.00
C142   C     0.53518   0.31172   0.60357   0.00000  Uiso   1.00
C143   C     0.48872   0.30379   0.65909   0.00000  Uiso   1.00
C144   C     0.65736   0.45404   0.54560   0.00000  Uiso   1.00
C145   C     0.64010   0.52235   0.48953   0.00000  Uiso   1.00
C146   C     0.66647   0.62384   0.50655   0.00000  Uiso   1.00
C147   C     0.69602   0.79652   0.50592   0.00000  Uiso   1.00
C148   C     0.68999   0.26765   0.57893   0.00000  Uiso   1.00
C149   C     0.70018   0.17926   0.55088   0.00000  Uiso   1.00
C150   C     0.75403   0.12383   0.59596   0.00000  Uiso   1.00
C151   C     0.83423   0.00711   0.64709   0.00000  Uiso   1.00
C152   C     0.71174   0.39846   0.66900   0.00000  Uiso   1.00
C153   C     0.65053   0.36961   0.65233   0.00000  Uiso   1.00
C154   C     0.63579   0.37319   0.69985   0.00000  Uiso   1.00
C155   C     0.57736   0.34368   0.67426   0.00000  Uiso   1.00
C156   C     0.69947   0.48596   0.61616   0.00000  Uiso   1.00
C157   C     0.72587   0.58736   0.63327   0.00000  Uiso   1.00
C158   C     0.70866   0.65581   0.57724   0.00000  Uiso   1.00
C159   C     0.73210   0.29957   0.64950   0.00000  Uiso   1.00
C160   C     0.78595   0.24427   0.69462   0.00000  Uiso   1.00
C161   C     0.79621   0.15580   0.66665   0.00000  Uiso   1.00
H162   H     0.60144   0.31486   0.48415   0.00000  Uiso   1.00
H163   H     0.51744   0.28349   0.50149   0.00000  Uiso   1.00
H164   H     0.60752   0.49763   0.43493   0.00000  Uiso   1.00
H165   H     0.66758   0.15459   0.49628   0.00000  Uiso   1.00
H166   H     0.44288   0.26283   0.55183   0.00000  Uiso   1.00
H167   H     0.63283   0.71433   0.41148   0.00000  Uiso   1.00
H168   H     0.75949   0.99096   0.54084   0.00000  Uiso   1.00
H169   H     0.74453   0.42331   0.72394   0.00000  Uiso   1.00
H170   H     0.66838   0.39789   0.75445   0.00000  Uiso   1.00
H171   H     0.75846   0.61203   0.68788   0.00000  Uiso   1.00
H172   H     0.81852   0.26899   0.74923   0.00000  Uiso   1.00
H173   H     0.56538   0.35568   0.75714   0.00000  Uiso   1.00
H174   H     0.75534   0.80719   0.61678   0.00000  Uiso   1.00
H175   H     0.88200   0.08382   0.74614   0.00000  Uiso   1.00
O176   O     0.45145   0.29061   0.67022   0.00000  Uiso   1.00
O177   O     0.70067   0.88296   0.48608   0.00000  Uiso   1.00
O178   O     0.86684   0.93391   0.65579   0.00000  Uiso   1.00
N179   N     0.48216   0.28815   0.59597   0.00000  Uiso   1.00
N180   N     0.65975   0.71029   0.46474   0.00000  Uiso   1.00
N181   N     0.77817   0.03401   0.58568   0.00000  Uiso   1.00
N182   N     0.54808   0.33811   0.70645   0.00000  Uiso   1.00
N183   N     0.72567   0.76025   0.57522   0.00000  Uiso   1.00
N184   N     0.84409   0.08397   0.69615   0.00000  Uiso   1.00
C185   C     0.13422   0.16030   0.03909   0.00000  Uiso   1.00
C186   C     0.10842   0.16231   0.08177   0.00000  Uiso   1.00
C187   C     0.05001   0.19182   0.05611   0.00000  Uiso   1.00
C188   C     0.03518   0.18828   0.10357   0.00000  Uiso   1.00
C189   C     0.98872   0.19621   0.15909   0.00000  Uiso   1.00
C190   C     0.15736   0.04596   0.04560   0.00000  Uiso   1.00
C191   C     0.14010   0.97765   0.98953   0.00000  Uiso   1.00
C192   C     0.16647   0.87616   0.00655   0.00000  Uiso   1.00
C193   C     0.19602   0.70348   0.00592   0.00000  Uiso   1.00
C194   C     0.18999   0.23235   0.07893   0.00000  Uiso   1.00
C195   C     0.20018   0.32074   0.05088   0.00000  Uiso   1.00
C196   C     0.25403   0.37617   0.09596   0.00000  Uiso   1.00
C197   C     0.33423   0.49289   0.14709   0.00000  Uiso   1.00
C198   C     0.21174   0.10154   0.16900   0.00000  Uiso   1.00
C199   C     0.15053   0.13039   0.15233   0.00000  Uiso   1.00
C200   C     0.13579   0.12681   0.19985   0.00000  Uiso   1.00
C201   C     0.07736   0.15632   0.17426   0.00000  Uiso   1.00
C202   C     0.19947   0.01404   0.11616   0.00000  Uiso   1.00
C203   C     0.22587   0.91264   0.13327   0.00000  Uiso   1.00
C204   C     0.20866   0.84419   0.07724   0.00000  Uiso   1.00
C205   C     0.23210   0.20043   0.14950   0.00000  Uiso   1.00
C206   C     0.28595   0.25573   0.19462   0.00000  Uiso   1.00
C207   C     0.29621   0.34420   0.16665   0.00000  Uiso   1.00
H208   H     0.10144   0.18514   0.98415   0.00000  Uiso   1.00
H209   H     0.01744   0.21651   0.00149   0.00000  Uiso   1.00
H210   H     0.10752   0.00237   0.93493   0.00000  Uiso   1.00
H211   H     0.16758   0.34541   0.99628   0.00000  Uiso   1.00
H212   H     0.94288   0.23717   0.05183   0.00000  Uiso   1.00
H213   H     0.13283   0.78567   0.91148   0.00000  Uiso   1.00
H214   H     0.25949   0.50904   0.04084   0.00000  Uiso   1.00
H215   H     0.24453   0.07669   0.22394   0.00000  Uiso   1.00
H216   H     0.16838   0.10211   0.25445   0.00000  Uiso   1.00
H217   H     0.25846   0.88797   0.18788   0.00000  Uiso   1.00
H218   H     0.31852   0.23101   0.24923   0.00000  Uiso   1.00
H219   H     0.06538   0.14432   0.25714   0.00000  Uiso   1.00
H220   H     0.25534   0.69281   0.11678   0.00000  Uiso   1.00
H221   H     0.38200   0.41618   0.24614   0.00000  Uiso   1.00
O222   O     0.95145   0.20939   0.17022   0.00000  Uiso   1.00
O223   O     0.20067   0.61704   0.98608   0.00000  Uiso   1.00
O224   O     0.36684   0.56609   0.15579   0.00000  Uiso   1.00
N225   N     0.98216   0.21185   0.09597   0.00000  Uiso   1.00
N226   N     0.15975   0.78971   0.96474   0.00000  Uiso   1.00
N227   N     0.27817   0.46599   0.08568   0.00000  Uiso   1.00
N228   N     0.04808   0.16189   0.20645   0.00000  Uiso   1.00
N229   N     0.22567   0.73975   0.07522   0.00000  Uiso   1.00
N230   N     0.34409   0.41603   0.19615   0.00000  Uiso   1.00
C231   C     0.63422   0.66030   0.03909   0.00000  Uiso   1.00
C232   C     0.60842   0.66231   0.08177   0.00000  Uiso   1.00
C233   C     0.55001   0.69182   0.05611   0.00000  Uiso   1.00
C234   C     0.53518   0.68828   0.10357   0.00000  Uiso   1.00
C235   C     0.48872   0.69621   0.15909   0.00000  Uiso   1.00
C236   C     0.65736   0.54596   0.04560   0.00000  Uiso   1.00
C237   C     0.64010   0.47765   0.98953   0.00000  Uiso   1.00
C238   C     0.66647   0.37616   0.00655   0.00000  Uiso   1.00
C239   C     0.69602   0.20348   0.00592   0.00000  Uiso   1.00
C240   C     0.68999   0.73235   0.07893   0.00000  Uiso   1.00
C241   C     0.70018   0.82074   0.05088   0.00000  Uiso   1.00
C242   C     0.75403   0.87617   0.09596   0.00000  Uiso   1.00
C243   C     0.83423   0.99289   0.14709   0.00000  Uiso   1.00
C244   C     0.71174   0.60154   0.16900   0.00000  Uiso   1.00
C245   C     0.65053   0.63039   0.15233   0.00000  Uiso   1.00
C246   C     0.63579   0.62681   0.19985   0.00000  Uiso   1.00
C247   C     0.57736   0.65632   0.17426   0.00000  Uiso   1.00
C248   C     0.69947   0.51404   0.11616   0.00000  Uiso   1.00
C249   C     0.72587   0.41264   0.13327   0.00000  Uiso   1.00
C250   C     0.70866   0.34419   0.07724   0.00000  Uiso   1.00
C251   C     0.73210   0.70043   0.14950   0.00000  Uiso   1.00
C252   C     0.78595   0.75573   0.19462   0.00000  Uiso   1.00
C253   C     0.79621   0.84420   0.16665   0.00000  Uiso   1.00
H254   H     0.60144   0.68514   0.98415   0.00000  Uiso   1.00
H255   H     0.51744   0.71651   0.00149   0.00000  Uiso   1.00
H256   H     0.60752   0.50237   0.93493   0.00000  Uiso   1.00
H257   H     0.66758   0.84541   0.99628   0.00000  Uiso   1.00
H258   H     0.44288   0.73717   0.05183   0.00000  Uiso   1.00
H259   H     0.63283   0.28567   0.91148   0.00000  Uiso   1.00
H260   H     0.75949   0.00904   0.04084   0.00000  Uiso   1.00
H261   H     0.74453   0.57669   0.22394   0.00000  Uiso   1.00
H262   H     0.66838   0.60211   0.25445   0.00000  Uiso   1.00
H263   H     0.75846   0.38797   0.18788   0.00000  Uiso   1.00
H264   H     0.81852   0.73101   0.24923   0.00000  Uiso   1.00
H265   H     0.56538   0.64432   0.25714   0.00000  Uiso   1.00
H266   H     0.75534   0.19281   0.11678   0.00000  Uiso   1.00
H267   H     0.88200   0.91618   0.24614   0.00000  Uiso   1.00
O268   O     0.45145   0.70939   0.17022   0.00000  Uiso   1.00
O269   O     0.70067   0.11704   0.98608   0.00000  Uiso   1.00
O270   O     0.86684   0.06609   0.15579   0.00000  Uiso   1.00
N271   N     0.48216   0.71185   0.09597   0.00000  Uiso   1.00
N272   N     0.65975   0.28971   0.96474   0.00000  Uiso   1.00
N273   N     0.77817   0.96599   0.08568   0.00000  Uiso   1.00
N274   N     0.54808   0.66189   0.20645   0.00000  Uiso   1.00
N275   N     0.72567   0.23975   0.07522   0.00000  Uiso   1.00
N276   N     0.84409   0.91603   0.19615   0.00000  Uiso   1.00
C277   C     0.86578   0.16030   0.46091   0.00000  Uiso   1.00
C278   C     0.89158   0.16231   0.41823   0.00000  Uiso   1.00
C279   C     0.94999   0.19182   0.44389   0.00000  Uiso   1.00
C280   C     0.96482   0.18828   0.39643   0.00000  Uiso   1.00
C281   C     0.01128   0.19621   0.34091   0.00000  Uiso   1.00
C282   C     0.84264   0.04596   0.45440   0.00000  Uiso   1.00
C283   C     0.85990   0.97765   0.51047   0.00000  Uiso   1.00
C284   C     0.83353   0.87616   0.49345   0.00000  Uiso   1.00
C285   C     0.80398   0.70348   0.49408   0.00000  Uiso   1.00
C286   C     0.81001   0.23235   0.42107   0.00000  Uiso   1.00
C287   C     0.79982   0.32074   0.44912   0.00000  Uiso   1.00
C288   C     0.74597   0.37617   0.40404   0.00000  Uiso   1.00
C289   C     0.66577   0.49289   0.35291   0.00000  Uiso   1.00
C290   C     0.78826   0.10154   0.33100   0.00000  Uiso   1.00
C291   C     0.84947   0.13039   0.34767   0.00000  Uiso   1.00
C292   C     0.86421   0.12681   0.30015   0.00000  Uiso   1.00
C293   C     0.92264   0.15632   0.32574   0.00000  Uiso   1.00
C294   C     0.80053   0.01404   0.38384   0.00000  Uiso   1.00
C295   C     0.77413   0.91264   0.36673   0.00000  Uiso   1.00
C296   C     0.79134   0.84419   0.42276   0.00000  Uiso   1.00
C297   C     0.76790   0.20043   0.35050   0.00000  Uiso   1.00
C298   C     0.71405   0.25573   0.30538   0.00000  Uiso   1.00
C299   C     0.70379   0.34420   0.33335   0.00000  Uiso   1.00
H300   H     0.89856   0.18514   0.51585   0.00000  Uiso   1.00
H301   H     0.98256   0.21651   0.49851   0.00000  Uiso   1.00
H302   H     0.89248   0.00237   0.56507   0.00000  Uiso   1.00
H303   H     0.83242   0.34541   0.50372   0.00000  Uiso   1.00
H304   H     0.05712   0.23717   0.44817   0.00000  Uiso   1.00
H305   H     0.86717   0.78567   0.58852   0.00000  Uiso   1.00
H306   H     0.74051   0.50904   0.45916   0.00000  Uiso   1.00
H307   H     0.75547   0.07669   0.27606   0.00000  Uiso   1.00
H308   H     0.83162   0.10211   0.24555   0.00000  Uiso   1.00
H309   H     0.74154   0.88797   0.31212   0.00000  Uiso   1.00
H310   H     0.68148   0.23101   0.25077   0.00000  Uiso   1.00
H311   H     0.93462   0.14432   0.24286   0.00000  Uiso   1.00
H312   H     0.74466   0.69281   0.38322   0.00000  Uiso   1.00
H313   H     0.61800   0.41618   0.25386   0.00000  Uiso   1.00
O314   O     0.04855   0.20939   0.32978   0.00000  Uiso   1.00
O315   O     0.79933   0.61704   0.51392   0.00000  Uiso   1.00
O316   O     0.63316   0.56609   0.34421   0.00000  Uiso   1.00
N317   N     0.01784   0.21185   0.40403   0.00000  Uiso   1.00
N318   N     0.84025   0.78971   0.53526   0.00000  Uiso   1.00
N319   N     0.72183   0.46599   0.41432   0.00000  Uiso   1.00
N320   N     0.95192   0.16189   0.29355   0.00000  Uiso   1.00
N321   N     0.77433   0.73975   0.42478   0.00000  Uiso   1.00
N322   N     0.65591   0.41603   0.30385   0.00000  Uiso   1.00
C323   C     0.36578   0.66030   0.46091   0.00000  Uiso   1.00
C324   C     0.39158   0.66231   0.41823   0.00000  Uiso   1.00
C325   C     0.44999   0.69182   0.44389   0.00000  Uiso   1.00
C326   C     0.46482   0.68828   0.39643   0.00000  Uiso   1.00
C327   C     0.51128   0.69621   0.34091   0.00000  Uiso   1.00
C328   C     0.34264   0.54596   0.45440   0.00000  Uiso   1.00
C329   C     0.35990   0.47765   0.51047   0.00000  Uiso   1.00
C330   C     0.33353   0.37616   0.49345   0.00000  Uiso   1.00
C331   C     0.30398   0.20348   0.49408   0.00000  Uiso   1.00
C332   C     0.31001   0.73235   0.42107   0.00000  Uiso   1.00
C333   C     0.29982   0.82074   0.44912   0.00000  Uiso   1.00
C334   C     0.24597   0.87617   0.40404   0.00000  Uiso   1.00
C335   C     0.16577   0.99289   0.35291   0.00000  Uiso   1.00
C336   C     0.28826   0.60154   0.33100   0.00000  Uiso   1.00
C337   C     0.34947   0.63039   0.34767   0.00000  Uiso   1.00
C338   C     0.36421   0.62681   0.30015   0.00000  Uiso   1.00
C339   C     0.42264   0.65632   0.32574   0.00000  Uiso   1.00
C340   C     0.30053   0.51404   0.38384   0.00000  Uiso   1.00
C341   C     0.27413   0.41264   0.36673   0.00000  Uiso   1.00
C342   C     0.29134   0.34419   0.42276   0.00000  Uiso   1.00
C343   C     0.26790   0.70043   0.35050   0.00000  Uiso   1.00
C344   C     0.21405   0.75573   0.30538   0.00000  Uiso   1.00
C345   C     0.20379   0.84420   0.33335   0.00000  Uiso   1.00
H346   H     0.39856   0.68514   0.51585   0.00000  Uiso   1.00
H347   H     0.48256   0.71651   0.49851   0.00000  Uiso   1.00
H348   H     0.39248   0.50237   0.56507   0.00000  Uiso   1.00
H349   H     0.33242   0.84541   0.50372   0.00000  Uiso   1.00
H350   H     0.55712   0.73717   0.44817   0.00000  Uiso   1.00
H351   H     0.36717   0.28567   0.58852   0.00000  Uiso   1.00
H352   H     0.24051   0.00904   0.45916   0.00000  Uiso   1.00
H353   H     0.25547   0.57669   0.27606   0.00000  Uiso   1.00
H354   H     0.33162   0.60211   0.24555   0.00000  Uiso   1.00
H355   H     0.24154   0.38797   0.31212   0.00000  Uiso   1.00
H356   H     0.18148   0.73101   0.25077   0.00000  Uiso   1.00
H357   H     0.43462   0.64432   0.24286   0.00000  Uiso   1.00
H358   H     0.24466   0.19281   0.38322   0.00000  Uiso   1.00
H359   H     0.11800   0.91618   0.25386   0.00000  Uiso   1.00
O360   O     0.54855   0.70939   0.32978   0.00000  Uiso   1.00
O361   O     0.29933   0.11704   0.51392   0.00000  Uiso   1.00
O362   O     0.13316   0.06609   0.34421   0.00000  Uiso   1.00
N363   N     0.51784   0.71185   0.40403   0.00000  Uiso   1.00
N364   N     0.34025   0.28971   0.53526   0.00000  Uiso   1.00
N365   N     0.22183   0.96599   0.41432   0.00000  Uiso   1.00
N366   N     0.45192   0.66189   0.29355   0.00000  Uiso   1.00
N367   N     0.27433   0.23975   0.42478   0.00000  Uiso   1.00
N368   N     0.15591   0.91603   0.30385   0.00000  Uiso   1.00
