data_job_01939
_audit_creation_date              2018-12-19
_audit_creation_method            'Materials Studio'
_symmetry_space_group_name_H-M    'P1'
_symmetry_Int_Tables_number       1
_symmetry_cell_setting            triclinic
loop_
_symmetry_equiv_pos_as_xyz
  x,y,z
_cell_length_a                    30.8231
_cell_length_b                    12.5124
_cell_length_c                    29.5064
_cell_angle_alpha                 90.0000
_cell_angle_beta                  135.3750
_cell_angle_gamma                 90.0000
loop_
_atom_site_label
_atom_site_type_symbol
_atom_site_fract_x
_atom_site_fract_y
_atom_site_fract_z
_atom_site_U_iso_or_equiv
_atom_site_adp_type
_atom_site_occupancy
C1     C     0.79544   0.96231   0.17406   0.00000  Uiso   1.00
C2     C     0.85934   0.98169   0.24169   0.00000  Uiso   1.00
C3     C     0.87508   0.97165   0.29878   0.00000  Uiso   1.00
C4     C     0.93600   0.99293   0.35567   0.00000  Uiso   1.00
C5     C     0.02859   0.01849   0.46071   0.00000  Uiso   1.00
C6     C     0.77789   0.06524   0.13652   0.00000  Uiso   1.00
C7     C     0.72513   0.12544   0.10519   0.00000  Uiso   1.00
C8     C     0.71748   0.21704   0.07354   0.00000  Uiso   1.00
C9     C     0.68359   0.37226   0.01528   0.00000  Uiso   1.00
C10    C     0.80405   0.87812   0.14363   0.00000  Uiso   1.00
C11    C     0.77328   0.78100   0.11826   0.00000  Uiso   1.00
C12    C     0.78764   0.71507   0.09258   0.00000  Uiso   1.00
C13    C     0.79437   0.57977   0.04536   0.00000  Uiso   1.00
C14    C     0.87564   0.01794   0.17356   0.00000  Uiso   1.00
C15    C     0.90290   0.01191   0.24141   0.00000  Uiso   1.00
C16    C     0.96381   0.03320   0.29822   0.00000  Uiso   1.00
C17    C     0.97964   0.02320   0.35539   0.00000  Uiso   1.00
C18    C     0.82144   0.09546   0.13625   0.00000  Uiso   1.00
C19    C     0.81386   0.18699   0.10463   0.00000  Uiso   1.00
C20    C     0.76112   0.24731   0.07327   0.00000  Uiso   1.00
C21    C     0.84761   0.90834   0.14336   0.00000  Uiso   1.00
C22    C     0.86201   0.84255   0.11771   0.00000  Uiso   1.00
C23    C     0.83128   0.74534   0.09231   0.00000  Uiso   1.00
H24    H     0.76152   0.93879   0.17427   0.00000  Uiso   1.00
H25    H     0.84135   0.94828   0.29897   0.00000  Uiso   1.00
H26    H     0.69143   0.10203   0.10541   0.00000  Uiso   1.00
H27    H     0.73957   0.75764   0.11848   0.00000  Uiso   1.00
H28    H     0.94907   0.97216   0.43710   0.00000  Uiso   1.00
H29    H     0.63293   0.29634   0.02894   0.00000  Uiso   1.00
H30    H     0.73445   0.57014   0.05651   0.00000  Uiso   1.00
H31    H     0.90955   0.04147   0.17334   0.00000  Uiso   1.00
H32    H     0.99751   0.05659   0.29800   0.00000  Uiso   1.00
H33    H     0.84758   0.21034   0.10443   0.00000  Uiso   1.00
H34    H     0.89573   0.86596   0.11750   0.00000  Uiso   1.00
H35    H     0.07581   0.06008   0.43631   0.00000  Uiso   1.00
H36    H     0.75967   0.38425   0.02815   0.00000  Uiso   1.00
H37    H     0.86119   0.65805   0.05571   0.00000  Uiso   1.00
O38    O     0.06762   0.02425   0.51872   0.00000  Uiso   1.00
O39    O     0.65286   0.44954   0.98322   0.00000  Uiso   1.00
O40    O     0.78605   0.49678   0.01939   0.00000  Uiso   1.00
N41    N     0.96683   0.99076   0.41981   0.00000  Uiso   1.00
N42    N     0.67127   0.29385   0.03821   0.00000  Uiso   1.00
N43    N     0.76616   0.61493   0.06397   0.00000  Uiso   1.00
N44    N     0.03502   0.03806   0.41938   0.00000  Uiso   1.00
N45    N     0.73946   0.34116   0.03779   0.00000  Uiso   1.00
N46    N     0.83436   0.66223   0.06354   0.00000  Uiso   1.00
C47    C     0.29544   0.46231   0.17406   0.00000  Uiso   1.00
C48    C     0.35934   0.48169   0.24169   0.00000  Uiso   1.00
C49    C     0.37508   0.47165   0.29878   0.00000  Uiso   1.00
C50    C     0.43600   0.49293   0.35567   0.00000  Uiso   1.00
C51    C     0.52859   0.51849   0.46071   0.00000  Uiso   1.00
C52    C     0.27789   0.56524   0.13652   0.00000  Uiso   1.00
C53    C     0.22513   0.62544   0.10519   0.00000  Uiso   1.00
C54    C     0.21748   0.71704   0.07354   0.00000  Uiso   1.00
C55    C     0.18359   0.87226   0.01528   0.00000  Uiso   1.00
C56    C     0.30405   0.37812   0.14363   0.00000  Uiso   1.00
C57    C     0.27328   0.28100   0.11826   0.00000  Uiso   1.00
C58    C     0.28764   0.21507   0.09258   0.00000  Uiso   1.00
C59    C     0.29437   0.07977   0.04536   0.00000  Uiso   1.00
C60    C     0.37564   0.51794   0.17356   0.00000  Uiso   1.00
C61    C     0.40290   0.51191   0.24141   0.00000  Uiso   1.00
C62    C     0.46381   0.53320   0.29822   0.00000  Uiso   1.00
C63    C     0.47964   0.52320   0.35539   0.00000  Uiso   1.00
C64    C     0.32144   0.59546   0.13625   0.00000  Uiso   1.00
C65    C     0.31386   0.68699   0.10463   0.00000  Uiso   1.00
C66    C     0.26112   0.74731   0.07327   0.00000  Uiso   1.00
C67    C     0.34761   0.40834   0.14336   0.00000  Uiso   1.00
C68    C     0.36201   0.34255   0.11771   0.00000  Uiso   1.00
C69    C     0.33128   0.24534   0.09231   0.00000  Uiso   1.00
H70    H     0.26152   0.43879   0.17427   0.00000  Uiso   1.00
H71    H     0.34135   0.44828   0.29897   0.00000  Uiso   1.00
H72    H     0.19143   0.60203   0.10541   0.00000  Uiso   1.00
H73    H     0.23957   0.25764   0.11848   0.00000  Uiso   1.00
H74    H     0.44907   0.47216   0.43710   0.00000  Uiso   1.00
H75    H     0.13293   0.79634   0.02894   0.00000  Uiso   1.00
H76    H     0.23445   0.07014   0.05651   0.00000  Uiso   1.00
H77    H     0.40955   0.54147   0.17334   0.00000  Uiso   1.00
H78    H     0.49751   0.55659   0.29800   0.00000  Uiso   1.00
H79    H     0.34758   0.71034   0.10443   0.00000  Uiso   1.00
H80    H     0.39573   0.36596   0.11750   0.00000  Uiso   1.00
H81    H     0.57581   0.56008   0.43631   0.00000  Uiso   1.00
H82    H     0.25967   0.88425   0.02815   0.00000  Uiso   1.00
H83    H     0.36119   0.15805   0.05571   0.00000  Uiso   1.00
O84    O     0.56762   0.52425   0.51872   0.00000  Uiso   1.00
O85    O     0.15286   0.94954   0.98322   0.00000  Uiso   1.00
O86    O     0.28605   0.99678   0.01939   0.00000  Uiso   1.00
N87    N     0.46683   0.49076   0.41981   0.00000  Uiso   1.00
N88    N     0.17127   0.79385   0.03821   0.00000  Uiso   1.00
N89    N     0.26616   0.11493   0.06397   0.00000  Uiso   1.00
N90    N     0.53502   0.53806   0.41938   0.00000  Uiso   1.00
N91    N     0.23946   0.84116   0.03779   0.00000  Uiso   1.00
N92    N     0.33436   0.16223   0.06354   0.00000  Uiso   1.00
C93    C     0.20456   0.96231   0.32594   0.00000  Uiso   1.00
C94    C     0.14066   0.98169   0.25831   0.00000  Uiso   1.00
C95    C     0.12492   0.97165   0.20122   0.00000  Uiso   1.00
C96    C     0.06400   0.99293   0.14433   0.00000  Uiso   1.00
C97    C     0.97141   0.01849   0.03929   0.00000  Uiso   1.00
C98    C     0.22211   0.06524   0.36348   0.00000  Uiso   1.00
C99    C     0.27487   0.12544   0.39481   0.00000  Uiso   1.00
C100   C     0.28252   0.21704   0.42646   0.00000  Uiso   1.00
C101   C     0.31641   0.37226   0.48472   0.00000  Uiso   1.00
C102   C     0.19595   0.87812   0.35637   0.00000  Uiso   1.00
C103   C     0.22672   0.78100   0.38174   0.00000  Uiso   1.00
C104   C     0.21236   0.71507   0.40742   0.00000  Uiso   1.00
C105   C     0.20563   0.57977   0.45464   0.00000  Uiso   1.00
C106   C     0.12436   0.01794   0.32644   0.00000  Uiso   1.00
C107   C     0.09710   0.01191   0.25859   0.00000  Uiso   1.00
C108   C     0.03619   0.03320   0.20178   0.00000  Uiso   1.00
C109   C     0.02036   0.02320   0.14461   0.00000  Uiso   1.00
C110   C     0.17856   0.09546   0.36375   0.00000  Uiso   1.00
C111   C     0.18614   0.18699   0.39537   0.00000  Uiso   1.00
C112   C     0.23888   0.24731   0.42673   0.00000  Uiso   1.00
C113   C     0.15239   0.90834   0.35664   0.00000  Uiso   1.00
C114   C     0.13799   0.84255   0.38229   0.00000  Uiso   1.00
C115   C     0.16872   0.74534   0.40769   0.00000  Uiso   1.00
H116   H     0.23848   0.93879   0.32573   0.00000  Uiso   1.00
H117   H     0.15865   0.94828   0.20103   0.00000  Uiso   1.00
H118   H     0.30857   0.10203   0.39459   0.00000  Uiso   1.00
H119   H     0.26043   0.75764   0.38152   0.00000  Uiso   1.00
H120   H     0.05093   0.97216   0.06290   0.00000  Uiso   1.00
H121   H     0.36707   0.29634   0.47106   0.00000  Uiso   1.00
H122   H     0.26555   0.57014   0.44349   0.00000  Uiso   1.00
H123   H     0.09045   0.04147   0.32666   0.00000  Uiso   1.00
H124   H     0.00249   0.05659   0.20200   0.00000  Uiso   1.00
H125   H     0.15242   0.21034   0.39557   0.00000  Uiso   1.00
H126   H     0.10427   0.86596   0.38250   0.00000  Uiso   1.00
H127   H     0.92419   0.06008   0.06369   0.00000  Uiso   1.00
H128   H     0.24033   0.38425   0.47185   0.00000  Uiso   1.00
H129   H     0.13881   0.65805   0.44429   0.00000  Uiso   1.00
O130   O     0.93238   0.02425   0.98128   0.00000  Uiso   1.00
O131   O     0.34714   0.44954   0.51678   0.00000  Uiso   1.00
O132   O     0.21395   0.49678   0.48061   0.00000  Uiso   1.00
N133   N     0.03317   0.99076   0.08019   0.00000  Uiso   1.00
N134   N     0.32873   0.29385   0.46179   0.00000  Uiso   1.00
N135   N     0.23384   0.61493   0.43603   0.00000  Uiso   1.00
N136   N     0.96498   0.03806   0.08062   0.00000  Uiso   1.00
N137   N     0.26054   0.34116   0.46221   0.00000  Uiso   1.00
N138   N     0.16564   0.66223   0.43646   0.00000  Uiso   1.00
C139   C     0.70456   0.46231   0.32594   0.00000  Uiso   1.00
C140   C     0.64066   0.48169   0.25831   0.00000  Uiso   1.00
C141   C     0.62492   0.47165   0.20122   0.00000  Uiso   1.00
C142   C     0.56400   0.49293   0.14433   0.00000  Uiso   1.00
C143   C     0.47141   0.51849   0.03929   0.00000  Uiso   1.00
C144   C     0.72211   0.56524   0.36348   0.00000  Uiso   1.00
C145   C     0.77487   0.62544   0.39481   0.00000  Uiso   1.00
C146   C     0.78252   0.71704   0.42646   0.00000  Uiso   1.00
C147   C     0.81641   0.87226   0.48472   0.00000  Uiso   1.00
C148   C     0.69595   0.37812   0.35637   0.00000  Uiso   1.00
C149   C     0.72672   0.28100   0.38174   0.00000  Uiso   1.00
C150   C     0.71236   0.21507   0.40742   0.00000  Uiso   1.00
C151   C     0.70563   0.07977   0.45464   0.00000  Uiso   1.00
C152   C     0.62436   0.51794   0.32644   0.00000  Uiso   1.00
C153   C     0.59710   0.51191   0.25859   0.00000  Uiso   1.00
C154   C     0.53619   0.53320   0.20178   0.00000  Uiso   1.00
C155   C     0.52036   0.52320   0.14461   0.00000  Uiso   1.00
C156   C     0.67856   0.59546   0.36375   0.00000  Uiso   1.00
C157   C     0.68614   0.68699   0.39537   0.00000  Uiso   1.00
C158   C     0.73888   0.74731   0.42673   0.00000  Uiso   1.00
C159   C     0.65239   0.40834   0.35664   0.00000  Uiso   1.00
C160   C     0.63799   0.34255   0.38229   0.00000  Uiso   1.00
C161   C     0.66872   0.24534   0.40769   0.00000  Uiso   1.00
H162   H     0.73848   0.43879   0.32573   0.00000  Uiso   1.00
H163   H     0.65865   0.44828   0.20103   0.00000  Uiso   1.00
H164   H     0.80857   0.60203   0.39459   0.00000  Uiso   1.00
H165   H     0.76043   0.25764   0.38152   0.00000  Uiso   1.00
H166   H     0.55093   0.47216   0.06290   0.00000  Uiso   1.00
H167   H     0.86707   0.79634   0.47106   0.00000  Uiso   1.00
H168   H     0.76555   0.07014   0.44349   0.00000  Uiso   1.00
H169   H     0.59045   0.54147   0.32666   0.00000  Uiso   1.00
H170   H     0.50249   0.55659   0.20200   0.00000  Uiso   1.00
H171   H     0.65242   0.71034   0.39557   0.00000  Uiso   1.00
H172   H     0.60427   0.36596   0.38250   0.00000  Uiso   1.00
H173   H     0.42419   0.56008   0.06369   0.00000  Uiso   1.00
H174   H     0.74033   0.88425   0.47185   0.00000  Uiso   1.00
H175   H     0.63881   0.15805   0.44429   0.00000  Uiso   1.00
O176   O     0.43238   0.52425   0.98128   0.00000  Uiso   1.00
O177   O     0.84714   0.94954   0.51678   0.00000  Uiso   1.00
O178   O     0.71395   0.99678   0.48061   0.00000  Uiso   1.00
N179   N     0.53317   0.49076   0.08019   0.00000  Uiso   1.00
N180   N     0.82873   0.79385   0.46179   0.00000  Uiso   1.00
N181   N     0.73384   0.11493   0.43603   0.00000  Uiso   1.00
N182   N     0.46498   0.53806   0.08062   0.00000  Uiso   1.00
N183   N     0.76054   0.84116   0.46221   0.00000  Uiso   1.00
N184   N     0.66564   0.16223   0.43646   0.00000  Uiso   1.00
C185   C     0.20456   0.03769   0.82594   0.00000  Uiso   1.00
C186   C     0.14066   0.01831   0.75831   0.00000  Uiso   1.00
C187   C     0.12492   0.02835   0.70122   0.00000  Uiso   1.00
C188   C     0.06400   0.00707   0.64433   0.00000  Uiso   1.00
C189   C     0.97141   0.98151   0.53929   0.00000  Uiso   1.00
C190   C     0.22211   0.93476   0.86348   0.00000  Uiso   1.00
C191   C     0.27487   0.87456   0.89481   0.00000  Uiso   1.00
C192   C     0.28252   0.78296   0.92646   0.00000  Uiso   1.00
C193   C     0.31641   0.62774   0.98472   0.00000  Uiso   1.00
C194   C     0.19595   0.12188   0.85637   0.00000  Uiso   1.00
C195   C     0.22672   0.21900   0.88174   0.00000  Uiso   1.00
C196   C     0.21236   0.28493   0.90742   0.00000  Uiso   1.00
C197   C     0.20563   0.42023   0.95464   0.00000  Uiso   1.00
C198   C     0.12436   0.98206   0.82644   0.00000  Uiso   1.00
C199   C     0.09710   0.98809   0.75859   0.00000  Uiso   1.00
C200   C     0.03619   0.96680   0.70178   0.00000  Uiso   1.00
C201   C     0.02036   0.97680   0.64461   0.00000  Uiso   1.00
C202   C     0.17856   0.90454   0.86375   0.00000  Uiso   1.00
C203   C     0.18614   0.81301   0.89537   0.00000  Uiso   1.00
C204   C     0.23888   0.75269   0.92673   0.00000  Uiso   1.00
C205   C     0.15239   0.09166   0.85664   0.00000  Uiso   1.00
C206   C     0.13799   0.15745   0.88229   0.00000  Uiso   1.00
C207   C     0.16872   0.25466   0.90769   0.00000  Uiso   1.00
H208   H     0.23848   0.06121   0.82573   0.00000  Uiso   1.00
H209   H     0.15865   0.05172   0.70103   0.00000  Uiso   1.00
H210   H     0.30857   0.89797   0.89459   0.00000  Uiso   1.00
H211   H     0.26043   0.24236   0.88152   0.00000  Uiso   1.00
H212   H     0.05093   0.02784   0.56290   0.00000  Uiso   1.00
H213   H     0.36707   0.70366   0.97106   0.00000  Uiso   1.00
H214   H     0.26555   0.42986   0.94349   0.00000  Uiso   1.00
H215   H     0.09045   0.95853   0.82666   0.00000  Uiso   1.00
H216   H     0.00249   0.94341   0.70200   0.00000  Uiso   1.00
H217   H     0.15242   0.78966   0.89557   0.00000  Uiso   1.00
H218   H     0.10427   0.13404   0.88250   0.00000  Uiso   1.00
H219   H     0.92419   0.93992   0.56369   0.00000  Uiso   1.00
H220   H     0.24033   0.61575   0.97185   0.00000  Uiso   1.00
H221   H     0.13881   0.34195   0.94429   0.00000  Uiso   1.00
O222   O     0.93238   0.97575   0.48128   0.00000  Uiso   1.00
O223   O     0.34714   0.55046   0.01678   0.00000  Uiso   1.00
O224   O     0.21395   0.50322   0.98061   0.00000  Uiso   1.00
N225   N     0.03317   0.00924   0.58019   0.00000  Uiso   1.00
N226   N     0.32873   0.70615   0.96179   0.00000  Uiso   1.00
N227   N     0.23384   0.38507   0.93603   0.00000  Uiso   1.00
N228   N     0.96498   0.96194   0.58062   0.00000  Uiso   1.00
N229   N     0.26054   0.65884   0.96221   0.00000  Uiso   1.00
N230   N     0.16564   0.33777   0.93646   0.00000  Uiso   1.00
C231   C     0.70456   0.53769   0.82594   0.00000  Uiso   1.00
C232   C     0.64066   0.51831   0.75831   0.00000  Uiso   1.00
C233   C     0.62492   0.52835   0.70122   0.00000  Uiso   1.00
C234   C     0.56400   0.50707   0.64433   0.00000  Uiso   1.00
C235   C     0.47141   0.48151   0.53929   0.00000  Uiso   1.00
C236   C     0.72211   0.43476   0.86348   0.00000  Uiso   1.00
C237   C     0.77487   0.37456   0.89481   0.00000  Uiso   1.00
C238   C     0.78252   0.28296   0.92646   0.00000  Uiso   1.00
C239   C     0.81641   0.12774   0.98472   0.00000  Uiso   1.00
C240   C     0.69595   0.62188   0.85637   0.00000  Uiso   1.00
C241   C     0.72672   0.71900   0.88174   0.00000  Uiso   1.00
C242   C     0.71236   0.78493   0.90742   0.00000  Uiso   1.00
C243   C     0.70563   0.92023   0.95464   0.00000  Uiso   1.00
C244   C     0.62436   0.48206   0.82644   0.00000  Uiso   1.00
C245   C     0.59710   0.48809   0.75859   0.00000  Uiso   1.00
C246   C     0.53619   0.46680   0.70178   0.00000  Uiso   1.00
C247   C     0.52036   0.47680   0.64461   0.00000  Uiso   1.00
C248   C     0.67856   0.40454   0.86375   0.00000  Uiso   1.00
C249   C     0.68614   0.31301   0.89537   0.00000  Uiso   1.00
C250   C     0.73888   0.25269   0.92673   0.00000  Uiso   1.00
C251   C     0.65239   0.59166   0.85664   0.00000  Uiso   1.00
C252   C     0.63799   0.65745   0.88229   0.00000  Uiso   1.00
C253   C     0.66872   0.75466   0.90769   0.00000  Uiso   1.00
H254   H     0.73848   0.56121   0.82573   0.00000  Uiso   1.00
H255   H     0.65865   0.55172   0.70103   0.00000  Uiso   1.00
H256   H     0.80857   0.39797   0.89459   0.00000  Uiso   1.00
H257   H     0.76043   0.74236   0.88152   0.00000  Uiso   1.00
H258   H     0.55093   0.52784   0.56290   0.00000  Uiso   1.00
H259   H     0.86707   0.20366   0.97106   0.00000  Uiso   1.00
H260   H     0.76555   0.92986   0.94349   0.00000  Uiso   1.00
H261   H     0.59045   0.45853   0.82666   0.00000  Uiso   1.00
H262   H     0.50249   0.44341   0.70200   0.00000  Uiso   1.00
H263   H     0.65242   0.28966   0.89557   0.00000  Uiso   1.00
H264   H     0.60427   0.63404   0.88250   0.00000  Uiso   1.00
H265   H     0.42419   0.43992   0.56369   0.00000  Uiso   1.00
H266   H     0.74033   0.11575   0.97185   0.00000  Uiso   1.00
H267   H     0.63881   0.84195   0.94429   0.00000  Uiso   1.00
O268   O     0.43238   0.47575   0.48128   0.00000  Uiso   1.00
O269   O     0.84714   0.05046   0.01678   0.00000  Uiso   1.00
O270   O     0.71395   0.00322   0.98061   0.00000  Uiso   1.00
N271   N     0.53317   0.50924   0.58019   0.00000  Uiso   1.00
N272   N     0.82873   0.20615   0.96179   0.00000  Uiso   1.00
N273   N     0.73384   0.88507   0.93603   0.00000  Uiso   1.00
N274   N     0.46498   0.46194   0.58062   0.00000  Uiso   1.00
N275   N     0.76054   0.15884   0.96221   0.00000  Uiso   1.00
N276   N     0.66564   0.83777   0.93646   0.00000  Uiso   1.00
C277   C     0.79544   0.03769   0.67406   0.00000  Uiso   1.00
C278   C     0.85934   0.01831   0.74169   0.00000  Uiso   1.00
C279   C     0.87508   0.02835   0.79878   0.00000  Uiso   1.00
C280   C     0.93600   0.00707   0.85567   0.00000  Uiso   1.00
C281   C     0.02859   0.98151   0.96071   0.00000  Uiso   1.00
C282   C     0.77789   0.93476   0.63652   0.00000  Uiso   1.00
C283   C     0.72513   0.87456   0.60519   0.00000  Uiso   1.00
C284   C     0.71748   0.78296   0.57354   0.00000  Uiso   1.00
C285   C     0.68359   0.62774   0.51528   0.00000  Uiso   1.00
C286   C     0.80405   0.12188   0.64363   0.00000  Uiso   1.00
C287   C     0.77328   0.21900   0.61826   0.00000  Uiso   1.00
C288   C     0.78764   0.28493   0.59258   0.00000  Uiso   1.00
C289   C     0.79437   0.42023   0.54536   0.00000  Uiso   1.00
C290   C     0.87564   0.98206   0.67356   0.00000  Uiso   1.00
C291   C     0.90290   0.98809   0.74141   0.00000  Uiso   1.00
C292   C     0.96381   0.96680   0.79822   0.00000  Uiso   1.00
C293   C     0.97964   0.97680   0.85539   0.00000  Uiso   1.00
C294   C     0.82144   0.90454   0.63625   0.00000  Uiso   1.00
C295   C     0.81386   0.81301   0.60463   0.00000  Uiso   1.00
C296   C     0.76112   0.75269   0.57327   0.00000  Uiso   1.00
C297   C     0.84761   0.09166   0.64336   0.00000  Uiso   1.00
C298   C     0.86201   0.15745   0.61771   0.00000  Uiso   1.00
C299   C     0.83128   0.25466   0.59231   0.00000  Uiso   1.00
H300   H     0.76152   0.06121   0.67427   0.00000  Uiso   1.00
H301   H     0.84135   0.05172   0.79897   0.00000  Uiso   1.00
H302   H     0.69143   0.89797   0.60541   0.00000  Uiso   1.00
H303   H     0.73957   0.24236   0.61848   0.00000  Uiso   1.00
H304   H     0.94907   0.02784   0.93710   0.00000  Uiso   1.00
H305   H     0.63293   0.70366   0.52894   0.00000  Uiso   1.00
H306   H     0.73445   0.42986   0.55651   0.00000  Uiso   1.00
H307   H     0.90955   0.95853   0.67334   0.00000  Uiso   1.00
H308   H     0.99751   0.94341   0.79800   0.00000  Uiso   1.00
H309   H     0.84758   0.78966   0.60443   0.00000  Uiso   1.00
H310   H     0.89573   0.13404   0.61750   0.00000  Uiso   1.00
H311   H     0.07581   0.93992   0.93631   0.00000  Uiso   1.00
H312   H     0.75967   0.61575   0.52815   0.00000  Uiso   1.00
H313   H     0.86119   0.34195   0.55571   0.00000  Uiso   1.00
O314   O     0.06762   0.97575   0.01872   0.00000  Uiso   1.00
O315   O     0.65286   0.55046   0.48322   0.00000  Uiso   1.00
O316   O     0.78605   0.50322   0.51939   0.00000  Uiso   1.00
N317   N     0.96683   0.00924   0.91981   0.00000  Uiso   1.00
N318   N     0.67127   0.70615   0.53821   0.00000  Uiso   1.00
N319   N     0.76616   0.38507   0.56397   0.00000  Uiso   1.00
N320   N     0.03502   0.96194   0.91938   0.00000  Uiso   1.00
N321   N     0.73946   0.65884   0.53779   0.00000  Uiso   1.00
N322   N     0.83436   0.33777   0.56354   0.00000  Uiso   1.00
C323   C     0.29544   0.53769   0.67406   0.00000  Uiso   1.00
C324   C     0.35934   0.51831   0.74169   0.00000  Uiso   1.00
C325   C     0.37508   0.52835   0.79878   0.00000  Uiso   1.00
C326   C     0.43600   0.50707   0.85567   0.00000  Uiso   1.00
C327   C     0.52859   0.48151   0.96071   0.00000  Uiso   1.00
C328   C     0.27789   0.43476   0.63652   0.00000  Uiso   1.00
C329   C     0.22513   0.37456   0.60519   0.00000  Uiso   1.00
C330   C     0.21748   0.28296   0.57354   0.00000  Uiso   1.00
C331   C     0.18359   0.12774   0.51528   0.00000  Uiso   1.00
C332   C     0.30405   0.62188   0.64363   0.00000  Uiso   1.00
C333   C     0.27328   0.71900   0.61826   0.00000  Uiso   1.00
C334   C     0.28764   0.78493   0.59258   0.00000  Uiso   1.00
C335   C     0.29437   0.92023   0.54536   0.00000  Uiso   1.00
C336   C     0.37564   0.48206   0.67356   0.00000  Uiso   1.00
C337   C     0.40290   0.48809   0.74141   0.00000  Uiso   1.00
C338   C     0.46381   0.46680   0.79822   0.00000  Uiso   1.00
C339   C     0.47964   0.47680   0.85539   0.00000  Uiso   1.00
C340   C     0.32144   0.40454   0.63625   0.00000  Uiso   1.00
C341   C     0.31386   0.31301   0.60463   0.00000  Uiso   1.00
C342   C     0.26112   0.25269   0.57327   0.00000  Uiso   1.00
C343   C     0.34761   0.59166   0.64336   0.00000  Uiso   1.00
C344   C     0.36201   0.65745   0.61771   0.00000  Uiso   1.00
C345   C     0.33128   0.75466   0.59231   0.00000  Uiso   1.00
H346   H     0.26152   0.56121   0.67427   0.00000  Uiso   1.00
H347   H     0.34135   0.55172   0.79897   0.00000  Uiso   1.00
H348   H     0.19143   0.39797   0.60541   0.00000  Uiso   1.00
H349   H     0.23957   0.74236   0.61848   0.00000  Uiso   1.00
H350   H     0.44907   0.52784   0.93710   0.00000  Uiso   1.00
H351   H     0.13293   0.20366   0.52894   0.00000  Uiso   1.00
H352   H     0.23445   0.92986   0.55651   0.00000  Uiso   1.00
H353   H     0.40955   0.45853   0.67334   0.00000  Uiso   1.00
H354   H     0.49751   0.44341   0.79800   0.00000  Uiso   1.00
H355   H     0.34758   0.28966   0.60443   0.00000  Uiso   1.00
H356   H     0.39573   0.63404   0.61750   0.00000  Uiso   1.00
H357   H     0.57581   0.43992   0.93631   0.00000  Uiso   1.00
H358   H     0.25967   0.11575   0.52815   0.00000  Uiso   1.00
H359   H     0.36119   0.84195   0.55571   0.00000  Uiso   1.00
O360   O     0.56762   0.47575   0.01872   0.00000  Uiso   1.00
O361   O     0.15286   0.05046   0.48322   0.00000  Uiso   1.00
O362   O     0.28605   0.00322   0.51939   0.00000  Uiso   1.00
N363   N     0.46683   0.50924   0.91981   0.00000  Uiso   1.00
N364   N     0.17127   0.20615   0.53821   0.00000  Uiso   1.00
N365   N     0.26616   0.88507   0.56397   0.00000  Uiso   1.00
N366   N     0.53502   0.46194   0.91938   0.00000  Uiso   1.00
N367   N     0.23946   0.15884   0.53779   0.00000  Uiso   1.00
N368   N     0.33436   0.83777   0.56354   0.00000  Uiso   1.00
