data_job_04439
_audit_creation_date              2018-12-19
_audit_creation_method            'Materials Studio'
_symmetry_space_group_name_H-M    'P1'
_symmetry_Int_Tables_number       1
_symmetry_cell_setting            triclinic
loop_
_symmetry_equiv_pos_as_xyz
  x,y,z
_cell_length_a                    12.3680
_cell_length_b                    18.4745
_cell_length_c                    12.2923
_cell_angle_alpha                 90.0000
_cell_angle_beta                  113.8525
_cell_angle_gamma                 90.0000
loop_
_atom_site_label
_atom_site_type_symbol
_atom_site_fract_x
_atom_site_fract_y
_atom_site_fract_z
_atom_site_U_iso_or_equiv
_atom_site_adp_type
_atom_site_occupancy
C1     C     0.02469   0.18326   0.37225   0.00000  Uiso   1.00
C2     C     0.93824   0.15365   0.42123   0.00000  Uiso   1.00
C3     C     0.91373   0.18452   0.51168   0.00000  Uiso   1.00
C4     C     0.83195   0.14913   0.54369   0.00000  Uiso   1.00
C5     C     0.70617   0.11286   0.62838   0.00000  Uiso   1.00
C6     C     0.11239   0.12240   0.38534   0.00000  Uiso   1.00
C7     C     0.23430   0.12701   0.44560   0.00000  Uiso   1.00
C8     C     0.29911   0.06532   0.44739   0.00000  Uiso   1.00
C9     C     0.44371   0.98055   0.47629   0.00000  Uiso   1.00
C10    C     0.95376   0.19302   0.23892   0.00000  Uiso   1.00
C11    C     0.94232   0.25701   0.17606   0.00000  Uiso   1.00
C12    C     0.87359   0.25477   0.05457   0.00000  Uiso   1.00
C13    C     0.77189   0.27966   0.85613   0.00000  Uiso   1.00
C14    C     0.92302   0.06550   0.26827   0.00000  Uiso   1.00
C15    C     0.88303   0.08968   0.36475   0.00000  Uiso   1.00
C16    C     0.80125   0.05424   0.39664   0.00000  Uiso   1.00
C17    C     0.77662   0.08506   0.48711   0.00000  Uiso   1.00
C18    C     0.05717   0.05844   0.32887   0.00000  Uiso   1.00
C19    C     0.12182   0.99673   0.33056   0.00000  Uiso   1.00
C20    C     0.24379   0.00124   0.39081   0.00000  Uiso   1.00
C21    C     0.89853   0.12906   0.18244   0.00000  Uiso   1.00
C22    C     0.82982   0.12672   0.06102   0.00000  Uiso   1.00
C23    C     0.81827   0.19069   0.99799   0.00000  Uiso   1.00
H24    H     0.06769   0.23305   0.41622   0.00000  Uiso   1.00
H25    H     0.95650   0.23401   0.55537   0.00000  Uiso   1.00
H26    H     0.27701   0.17651   0.48929   0.00000  Uiso   1.00
H27    H     0.98506   0.30649   0.21979   0.00000  Uiso   1.00
H28    H     0.80890   0.20686   0.68477   0.00000  Uiso   1.00
H29    H     0.48473   0.08563   0.54540   0.00000  Uiso   1.00
H30    H     0.86910   0.35971   0.97711   0.00000  Uiso   1.00
H31    H     0.88002   0.01570   0.22430   0.00000  Uiso   1.00
H32    H     0.75853   0.00474   0.35292   0.00000  Uiso   1.00
H33    H     0.07905   0.94724   0.28684   0.00000  Uiso   1.00
H34    H     0.78710   0.07722   0.01735   0.00000  Uiso   1.00
H35    H     0.64823   0.02078   0.52045   0.00000  Uiso   1.00
H36    H     0.32407   0.89954   0.38109   0.00000  Uiso   1.00
H37    H     0.70843   0.17363   0.81280   0.00000  Uiso   1.00
O38    O     0.65206   0.11052   0.69071   0.00000  Uiso   1.00
O39    O     0.53872   0.95147   0.50785   0.00000  Uiso   1.00
O40    O     0.73103   0.31106   0.76228   0.00000  Uiso   1.00
N41    N     0.78774   0.16458   0.62843   0.00000  Uiso   1.00
N42    N     0.41960   0.05123   0.49815   0.00000  Uiso   1.00
N43    N     0.84407   0.30747   0.96684   0.00000  Uiso   1.00
N44    N     0.70128   0.06445   0.54001   0.00000  Uiso   1.00
N45    N     0.33315   0.95110   0.40973   0.00000  Uiso   1.00
N46    N     0.75761   0.20734   0.87842   0.00000  Uiso   1.00
C47    C     0.36225   0.68355   0.92065   0.00000  Uiso   1.00
C48    C     0.27748   0.65340   0.97132   0.00000  Uiso   1.00
C49    C     0.25457   0.68380   0.06306   0.00000  Uiso   1.00
C50    C     0.17416   0.64796   0.09651   0.00000  Uiso   1.00
C51    C     0.05101   0.61085   0.18380   0.00000  Uiso   1.00
C52    C     0.44990   0.62298   0.93184   0.00000  Uiso   1.00
C53    C     0.57196   0.62782   0.99038   0.00000  Uiso   1.00
C54    C     0.63668   0.56638   0.99059   0.00000  Uiso   1.00
C55    C     0.78122   0.48207   0.01651   0.00000  Uiso   1.00
C56    C     0.28943   0.69358   0.78772   0.00000  Uiso   1.00
C57    C     0.27658   0.75778   0.72507   0.00000  Uiso   1.00
C58    C     0.20622   0.75577   0.60394   0.00000  Uiso   1.00
C59    C     0.10161   0.78108   0.40609   0.00000  Uiso   1.00
C60    C     0.26017   0.56582   0.81693   0.00000  Uiso   1.00
C61    C     0.22204   0.58945   0.91498   0.00000  Uiso   1.00
C62    C     0.14164   0.55355   0.94830   0.00000  Uiso   1.00
C63    C     0.11861   0.58390   0.04007   0.00000  Uiso   1.00
C64    C     0.39446   0.55904   0.87551   0.00000  Uiso   1.00
C65    C     0.45902   0.49758   0.87563   0.00000  Uiso   1.00
C66    C     0.58114   0.50232   0.93415   0.00000  Uiso   1.00
C67    C     0.23398   0.62964   0.73138   0.00000  Uiso   1.00
C68    C     0.16364   0.62753   0.61032   0.00000  Uiso   1.00
C69    C     0.15068   0.69172   0.54750   0.00000  Uiso   1.00
H70    H     0.40542   0.73333   0.96451   0.00000  Uiso   1.00
H71    H     0.29750   0.73328   0.10664   0.00000  Uiso   1.00
H72    H     0.61483   0.67731   0.03396   0.00000  Uiso   1.00
H73    H     0.31950   0.80725   0.76870   0.00000  Uiso   1.00
H74    H     0.15344   0.70502   0.23940   0.00000  Uiso   1.00
H75    H     0.82255   0.58702   0.08611   0.00000  Uiso   1.00
H76    H     0.19979   0.86102   0.52675   0.00000  Uiso   1.00
H77    H     0.21701   0.51604   0.77307   0.00000  Uiso   1.00
H78    H     0.09875   0.50407   0.90469   0.00000  Uiso   1.00
H79    H     0.41609   0.44811   0.83201   0.00000  Uiso   1.00
H80    H     0.12075   0.57804   0.56675   0.00000  Uiso   1.00
H81    H     0.99213   0.51898   0.07549   0.00000  Uiso   1.00
H82    H     0.66125   0.40098   0.92221   0.00000  Uiso   1.00
H83    H     0.03847   0.67498   0.36285   0.00000  Uiso   1.00
O84    O     0.99842   0.60803   0.24751   0.00000  Uiso   1.00
O85    O     0.87627   0.45323   0.04639   0.00000  Uiso   1.00
O86    O     0.05921   0.81271   0.31253   0.00000  Uiso   1.00
N87    N     0.13169   0.66289   0.18274   0.00000  Uiso   1.00
N88    N     0.75727   0.55256   0.03945   0.00000  Uiso   1.00
N89    N     0.17506   0.80872   0.51649   0.00000  Uiso   1.00
N90    N     0.04488   0.56278   0.09455   0.00000  Uiso   1.00
N91    N     0.67047   0.45245   0.95125   0.00000  Uiso   1.00
N92    N     0.08826   0.70862   0.42829   0.00000  Uiso   1.00
C93    C     0.02469   0.81674   0.87225   0.00000  Uiso   1.00
C94    C     0.93824   0.84635   0.92123   0.00000  Uiso   1.00
C95    C     0.91373   0.81548   0.01168   0.00000  Uiso   1.00
C96    C     0.83195   0.85087   0.04369   0.00000  Uiso   1.00
C97    C     0.70617   0.88714   0.12838   0.00000  Uiso   1.00
C98    C     0.11239   0.87760   0.88534   0.00000  Uiso   1.00
C99    C     0.23430   0.87299   0.94560   0.00000  Uiso   1.00
C100   C     0.29911   0.93468   0.94739   0.00000  Uiso   1.00
C101   C     0.44371   0.01945   0.97629   0.00000  Uiso   1.00
C102   C     0.95376   0.80698   0.73892   0.00000  Uiso   1.00
C103   C     0.94232   0.74299   0.67606   0.00000  Uiso   1.00
C104   C     0.87359   0.74523   0.55457   0.00000  Uiso   1.00
C105   C     0.77189   0.72034   0.35613   0.00000  Uiso   1.00
C106   C     0.92302   0.93450   0.76827   0.00000  Uiso   1.00
C107   C     0.88303   0.91032   0.86475   0.00000  Uiso   1.00
C108   C     0.80125   0.94576   0.89664   0.00000  Uiso   1.00
C109   C     0.77662   0.91494   0.98711   0.00000  Uiso   1.00
C110   C     0.05717   0.94156   0.82887   0.00000  Uiso   1.00
C111   C     0.12182   0.00327   0.83056   0.00000  Uiso   1.00
C112   C     0.24379   0.99876   0.89081   0.00000  Uiso   1.00
C113   C     0.89853   0.87094   0.68244   0.00000  Uiso   1.00
C114   C     0.82982   0.87328   0.56102   0.00000  Uiso   1.00
C115   C     0.81827   0.80931   0.49799   0.00000  Uiso   1.00
H116   H     0.06769   0.76695   0.91622   0.00000  Uiso   1.00
H117   H     0.95650   0.76599   0.05537   0.00000  Uiso   1.00
H118   H     0.27701   0.82349   0.98929   0.00000  Uiso   1.00
H119   H     0.98506   0.69351   0.71979   0.00000  Uiso   1.00
H120   H     0.80890   0.79314   0.18477   0.00000  Uiso   1.00
H121   H     0.48473   0.91437   0.04540   0.00000  Uiso   1.00
H122   H     0.86910   0.64029   0.47711   0.00000  Uiso   1.00
H123   H     0.88002   0.98430   0.72430   0.00000  Uiso   1.00
H124   H     0.75853   0.99526   0.85292   0.00000  Uiso   1.00
H125   H     0.07905   0.05276   0.78684   0.00000  Uiso   1.00
H126   H     0.78710   0.92278   0.51735   0.00000  Uiso   1.00
H127   H     0.64823   0.97922   0.02045   0.00000  Uiso   1.00
H128   H     0.32407   0.10046   0.88109   0.00000  Uiso   1.00
H129   H     0.70843   0.82637   0.31280   0.00000  Uiso   1.00
O130   O     0.65206   0.88948   0.19071   0.00000  Uiso   1.00
O131   O     0.53872   0.04853   0.00785   0.00000  Uiso   1.00
O132   O     0.73103   0.68894   0.26228   0.00000  Uiso   1.00
N133   N     0.78774   0.83542   0.12843   0.00000  Uiso   1.00
N134   N     0.41960   0.94877   0.99815   0.00000  Uiso   1.00
N135   N     0.84407   0.69253   0.46684   0.00000  Uiso   1.00
N136   N     0.70128   0.93555   0.04001   0.00000  Uiso   1.00
N137   N     0.33315   0.04890   0.90973   0.00000  Uiso   1.00
N138   N     0.75761   0.79266   0.37842   0.00000  Uiso   1.00
C139   C     0.36225   0.31645   0.42065   0.00000  Uiso   1.00
C140   C     0.27748   0.34660   0.47132   0.00000  Uiso   1.00
C141   C     0.25457   0.31620   0.56306   0.00000  Uiso   1.00
C142   C     0.17416   0.35204   0.59651   0.00000  Uiso   1.00
C143   C     0.05101   0.38915   0.68380   0.00000  Uiso   1.00
C144   C     0.44990   0.37702   0.43184   0.00000  Uiso   1.00
C145   C     0.57196   0.37218   0.49038   0.00000  Uiso   1.00
C146   C     0.63668   0.43362   0.49059   0.00000  Uiso   1.00
C147   C     0.78122   0.51793   0.51651   0.00000  Uiso   1.00
C148   C     0.28943   0.30642   0.28772   0.00000  Uiso   1.00
C149   C     0.27658   0.24222   0.22507   0.00000  Uiso   1.00
C150   C     0.20622   0.24423   0.10394   0.00000  Uiso   1.00
C151   C     0.10161   0.21892   0.90609   0.00000  Uiso   1.00
C152   C     0.26017   0.43418   0.31693   0.00000  Uiso   1.00
C153   C     0.22204   0.41055   0.41498   0.00000  Uiso   1.00
C154   C     0.14164   0.44645   0.44830   0.00000  Uiso   1.00
C155   C     0.11861   0.41610   0.54007   0.00000  Uiso   1.00
C156   C     0.39446   0.44096   0.37551   0.00000  Uiso   1.00
C157   C     0.45902   0.50242   0.37563   0.00000  Uiso   1.00
C158   C     0.58114   0.49768   0.43415   0.00000  Uiso   1.00
C159   C     0.23398   0.37036   0.23138   0.00000  Uiso   1.00
C160   C     0.16364   0.37247   0.11032   0.00000  Uiso   1.00
C161   C     0.15068   0.30828   0.04750   0.00000  Uiso   1.00
H162   H     0.40542   0.26667   0.46451   0.00000  Uiso   1.00
H163   H     0.29750   0.26672   0.60664   0.00000  Uiso   1.00
H164   H     0.61483   0.32269   0.53396   0.00000  Uiso   1.00
H165   H     0.31950   0.19275   0.26870   0.00000  Uiso   1.00
H166   H     0.15344   0.29498   0.73940   0.00000  Uiso   1.00
H167   H     0.82255   0.41298   0.58611   0.00000  Uiso   1.00
H168   H     0.19979   0.13898   0.02675   0.00000  Uiso   1.00
H169   H     0.21701   0.48396   0.27307   0.00000  Uiso   1.00
H170   H     0.09875   0.49593   0.40469   0.00000  Uiso   1.00
H171   H     0.41609   0.55189   0.33201   0.00000  Uiso   1.00
H172   H     0.12075   0.42196   0.06675   0.00000  Uiso   1.00
H173   H     0.99213   0.48102   0.57549   0.00000  Uiso   1.00
H174   H     0.66125   0.59902   0.42221   0.00000  Uiso   1.00
H175   H     0.03847   0.32502   0.86285   0.00000  Uiso   1.00
O176   O     0.99842   0.39197   0.74751   0.00000  Uiso   1.00
O177   O     0.87627   0.54677   0.54639   0.00000  Uiso   1.00
O178   O     0.05921   0.18729   0.81253   0.00000  Uiso   1.00
N179   N     0.13169   0.33711   0.68274   0.00000  Uiso   1.00
N180   N     0.75727   0.44744   0.53945   0.00000  Uiso   1.00
N181   N     0.17506   0.19128   0.01649   0.00000  Uiso   1.00
N182   N     0.04488   0.43722   0.59455   0.00000  Uiso   1.00
N183   N     0.67047   0.54755   0.45125   0.00000  Uiso   1.00
N184   N     0.08826   0.29138   0.92829   0.00000  Uiso   1.00
