data_job_03389
_audit_creation_date              2018-12-19
_audit_creation_method            'Materials Studio'
_symmetry_space_group_name_H-M    'P1'
_symmetry_Int_Tables_number       1
_symmetry_cell_setting            triclinic
loop_
_symmetry_equiv_pos_as_xyz
  x,y,z
_cell_length_a                    20.4940
_cell_length_b                    14.7027
_cell_length_c                    17.9545
_cell_angle_alpha                 90.0000
_cell_angle_beta                  90.0000
_cell_angle_gamma                 90.0000
loop_
_atom_site_label
_atom_site_type_symbol
_atom_site_fract_x
_atom_site_fract_y
_atom_site_fract_z
_atom_site_U_iso_or_equiv
_atom_site_adp_type
_atom_site_occupancy
C1     C     0.02653   0.13936   0.51302   0.00000  Uiso   1.00
C2     C     0.04915   0.19934   0.44871   0.00000  Uiso   1.00
C3     C     0.04915   0.17520   0.37399   0.00000  Uiso   1.00
C4     C     0.07177   0.23966   0.32373   0.00000  Uiso   1.00
C5     C     0.10361   0.31976   0.22028   0.00000  Uiso   1.00
C6     C     0.08410   0.13331   0.56660   0.00000  Uiso   1.00
C7     C     0.11347   0.05365   0.59100   0.00000  Uiso   1.00
C8     C     0.16551   0.06253   0.63999   0.00000  Uiso   1.00
C9     C     0.25157   0.04012   0.71960   0.00000  Uiso   1.00
C10    C     0.97388   0.19331   0.55363   0.00000  Uiso   1.00
C11    C     0.91058   0.16410   0.56714   0.00000  Uiso   1.00
C12    C     0.86982   0.22350   0.60522   0.00000  Uiso   1.00
C13    C     0.78475   0.29425   0.66469   0.00000  Uiso   1.00
C14    C     0.06670   0.29678   0.55663   0.00000  Uiso   1.00
C15    C     0.07097   0.28484   0.47241   0.00000  Uiso   1.00
C16    C     0.09360   0.34936   0.42224   0.00000  Uiso   1.00
C17    C     0.09363   0.32532   0.34746   0.00000  Uiso   1.00
C18    C     0.10592   0.21881   0.59029   0.00000  Uiso   1.00
C19    C     0.15792   0.22781   0.63925   0.00000  Uiso   1.00
C20    C     0.18737   0.14819   0.66372   0.00000  Uiso   1.00
C21    C     0.99570   0.27882   0.57731   0.00000  Uiso   1.00
C22    C     0.95503   0.33827   0.61539   0.00000  Uiso   1.00
C23    C     0.89168   0.30915   0.62895   0.00000  Uiso   1.00
H24    H     0.00955   0.07279   0.49458   0.00000  Uiso   1.00
H25    H     0.03227   0.10902   0.35568   0.00000  Uiso   1.00
H26    H     0.09657   0.98749   0.57267   0.00000  Uiso   1.00
H27    H     0.89371   0.09793   0.54880   0.00000  Uiso   1.00
H28    H     0.06710   0.18687   0.21214   0.00000  Uiso   1.00
H29    H     0.20268   0.93063   0.66968   0.00000  Uiso   1.00
H30    H     0.77491   0.16351   0.61936   0.00000  Uiso   1.00
H31    H     0.08369   0.36335   0.57508   0.00000  Uiso   1.00
H32    H     0.11048   0.41552   0.44059   0.00000  Uiso   1.00
H33    H     0.17479   0.29399   0.65758   0.00000  Uiso   1.00
H34    H     0.97193   0.40443   0.63371   0.00000  Uiso   1.00
H35    H     0.13059   0.43564   0.28106   0.00000  Uiso   1.00
H36    H     0.26616   0.17939   0.73860   0.00000  Uiso   1.00
H37    H     0.83839   0.41227   0.68827   0.00000  Uiso   1.00
O38    O     0.11515   0.34032   0.15668   0.00000  Uiso   1.00
O39    O     0.29301   0.00413   0.75697   0.00000  Uiso   1.00
O40    O     0.73179   0.30967   0.69094   0.00000  Uiso   1.00
N41    N     0.07836   0.23827   0.24681   0.00000  Uiso   1.00
N42    N     0.20512   0.99869   0.67458   0.00000  Uiso   1.00
N43    N     0.80520   0.21640   0.62755   0.00000  Uiso   1.00
N44    N     0.11251   0.37212   0.28390   0.00000  Uiso   1.00
N45    N     0.23928   0.13255   0.71166   0.00000  Uiso   1.00
N46    N     0.83935   0.35026   0.66463   0.00000  Uiso   1.00
C47    C     0.52653   0.63936   0.51302   0.00000  Uiso   1.00
C48    C     0.54915   0.69934   0.44871   0.00000  Uiso   1.00
C49    C     0.54915   0.67520   0.37399   0.00000  Uiso   1.00
C50    C     0.57177   0.73966   0.32373   0.00000  Uiso   1.00
C51    C     0.60361   0.81976   0.22028   0.00000  Uiso   1.00
C52    C     0.58410   0.63331   0.56660   0.00000  Uiso   1.00
C53    C     0.61347   0.55365   0.59100   0.00000  Uiso   1.00
C54    C     0.66551   0.56253   0.63999   0.00000  Uiso   1.00
C55    C     0.75157   0.54012   0.71960   0.00000  Uiso   1.00
C56    C     0.47388   0.69331   0.55363   0.00000  Uiso   1.00
C57    C     0.41058   0.66410   0.56714   0.00000  Uiso   1.00
C58    C     0.36982   0.72350   0.60522   0.00000  Uiso   1.00
C59    C     0.28475   0.79425   0.66469   0.00000  Uiso   1.00
C60    C     0.56670   0.79678   0.55663   0.00000  Uiso   1.00
C61    C     0.57097   0.78484   0.47241   0.00000  Uiso   1.00
C62    C     0.59360   0.84936   0.42224   0.00000  Uiso   1.00
C63    C     0.59363   0.82532   0.34746   0.00000  Uiso   1.00
C64    C     0.60592   0.71881   0.59029   0.00000  Uiso   1.00
C65    C     0.65792   0.72781   0.63925   0.00000  Uiso   1.00
C66    C     0.68737   0.64819   0.66372   0.00000  Uiso   1.00
C67    C     0.49570   0.77882   0.57731   0.00000  Uiso   1.00
C68    C     0.45503   0.83827   0.61539   0.00000  Uiso   1.00
C69    C     0.39168   0.80915   0.62895   0.00000  Uiso   1.00
H70    H     0.50955   0.57279   0.49458   0.00000  Uiso   1.00
H71    H     0.53227   0.60902   0.35568   0.00000  Uiso   1.00
H72    H     0.59657   0.48749   0.57267   0.00000  Uiso   1.00
H73    H     0.39371   0.59793   0.54880   0.00000  Uiso   1.00
H74    H     0.56710   0.68687   0.21214   0.00000  Uiso   1.00
H75    H     0.70268   0.43063   0.66968   0.00000  Uiso   1.00
H76    H     0.27491   0.66351   0.61936   0.00000  Uiso   1.00
H77    H     0.58369   0.86335   0.57508   0.00000  Uiso   1.00
H78    H     0.61048   0.91552   0.44059   0.00000  Uiso   1.00
H79    H     0.67479   0.79399   0.65758   0.00000  Uiso   1.00
H80    H     0.47193   0.90443   0.63371   0.00000  Uiso   1.00
H81    H     0.63059   0.93564   0.28106   0.00000  Uiso   1.00
H82    H     0.76616   0.67939   0.73860   0.00000  Uiso   1.00
H83    H     0.33839   0.91227   0.68827   0.00000  Uiso   1.00
O84    O     0.61515   0.84032   0.15668   0.00000  Uiso   1.00
O85    O     0.79301   0.50413   0.75697   0.00000  Uiso   1.00
O86    O     0.23179   0.80967   0.69094   0.00000  Uiso   1.00
N87    N     0.57836   0.73827   0.24681   0.00000  Uiso   1.00
N88    N     0.70512   0.49869   0.67458   0.00000  Uiso   1.00
N89    N     0.30520   0.71640   0.62755   0.00000  Uiso   1.00
N90    N     0.61251   0.87212   0.28390   0.00000  Uiso   1.00
N91    N     0.73928   0.63255   0.71166   0.00000  Uiso   1.00
N92    N     0.33935   0.85026   0.66463   0.00000  Uiso   1.00
C93    C     0.97347   0.86064   0.01302   0.00000  Uiso   1.00
C94    C     0.95085   0.80066   0.94871   0.00000  Uiso   1.00
C95    C     0.95085   0.82480   0.87399   0.00000  Uiso   1.00
C96    C     0.92823   0.76034   0.82373   0.00000  Uiso   1.00
C97    C     0.89639   0.68024   0.72028   0.00000  Uiso   1.00
C98    C     0.91590   0.86669   0.06660   0.00000  Uiso   1.00
C99    C     0.88653   0.94635   0.09100   0.00000  Uiso   1.00
C100   C     0.83449   0.93747   0.13999   0.00000  Uiso   1.00
C101   C     0.74843   0.95988   0.21960   0.00000  Uiso   1.00
C102   C     0.02612   0.80669   0.05363   0.00000  Uiso   1.00
C103   C     0.08942   0.83590   0.06714   0.00000  Uiso   1.00
C104   C     0.13018   0.77650   0.10522   0.00000  Uiso   1.00
C105   C     0.21525   0.70575   0.16469   0.00000  Uiso   1.00
C106   C     0.93330   0.70322   0.05663   0.00000  Uiso   1.00
C107   C     0.92903   0.71516   0.97241   0.00000  Uiso   1.00
C108   C     0.90640   0.65064   0.92224   0.00000  Uiso   1.00
C109   C     0.90637   0.67468   0.84746   0.00000  Uiso   1.00
C110   C     0.89408   0.78119   0.09029   0.00000  Uiso   1.00
C111   C     0.84208   0.77219   0.13925   0.00000  Uiso   1.00
C112   C     0.81263   0.85181   0.16372   0.00000  Uiso   1.00
C113   C     0.00430   0.72118   0.07731   0.00000  Uiso   1.00
C114   C     0.04497   0.66173   0.11539   0.00000  Uiso   1.00
C115   C     0.10832   0.69085   0.12895   0.00000  Uiso   1.00
H116   H     0.99045   0.92721   0.99458   0.00000  Uiso   1.00
H117   H     0.96773   0.89098   0.85568   0.00000  Uiso   1.00
H118   H     0.90343   0.01251   0.07267   0.00000  Uiso   1.00
H119   H     0.10629   0.90207   0.04880   0.00000  Uiso   1.00
H120   H     0.93290   0.81313   0.71214   0.00000  Uiso   1.00
H121   H     0.79732   0.06937   0.16968   0.00000  Uiso   1.00
H122   H     0.22509   0.83649   0.11936   0.00000  Uiso   1.00
H123   H     0.91631   0.63665   0.07508   0.00000  Uiso   1.00
H124   H     0.88952   0.58448   0.94059   0.00000  Uiso   1.00
H125   H     0.82521   0.70601   0.15758   0.00000  Uiso   1.00
H126   H     0.02807   0.59557   0.13371   0.00000  Uiso   1.00
H127   H     0.86941   0.56436   0.78106   0.00000  Uiso   1.00
H128   H     0.73384   0.82061   0.23860   0.00000  Uiso   1.00
H129   H     0.16161   0.58773   0.18827   0.00000  Uiso   1.00
O130   O     0.88485   0.65968   0.65668   0.00000  Uiso   1.00
O131   O     0.70699   0.99587   0.25697   0.00000  Uiso   1.00
O132   O     0.26821   0.69033   0.19094   0.00000  Uiso   1.00
N133   N     0.92164   0.76173   0.74681   0.00000  Uiso   1.00
N134   N     0.79488   0.00131   0.17458   0.00000  Uiso   1.00
N135   N     0.19480   0.78360   0.12755   0.00000  Uiso   1.00
N136   N     0.88749   0.62788   0.78390   0.00000  Uiso   1.00
N137   N     0.76072   0.86745   0.21166   0.00000  Uiso   1.00
N138   N     0.16065   0.64974   0.16463   0.00000  Uiso   1.00
C139   C     0.47347   0.36064   0.01302   0.00000  Uiso   1.00
C140   C     0.45085   0.30066   0.94871   0.00000  Uiso   1.00
C141   C     0.45085   0.32480   0.87399   0.00000  Uiso   1.00
C142   C     0.42823   0.26034   0.82373   0.00000  Uiso   1.00
C143   C     0.39639   0.18024   0.72028   0.00000  Uiso   1.00
C144   C     0.41590   0.36669   0.06660   0.00000  Uiso   1.00
C145   C     0.38653   0.44635   0.09100   0.00000  Uiso   1.00
C146   C     0.33449   0.43747   0.13999   0.00000  Uiso   1.00
C147   C     0.24843   0.45988   0.21960   0.00000  Uiso   1.00
C148   C     0.52612   0.30669   0.05363   0.00000  Uiso   1.00
C149   C     0.58942   0.33590   0.06714   0.00000  Uiso   1.00
C150   C     0.63018   0.27650   0.10522   0.00000  Uiso   1.00
C151   C     0.71525   0.20575   0.16469   0.00000  Uiso   1.00
C152   C     0.43330   0.20322   0.05663   0.00000  Uiso   1.00
C153   C     0.42903   0.21516   0.97241   0.00000  Uiso   1.00
C154   C     0.40640   0.15064   0.92224   0.00000  Uiso   1.00
C155   C     0.40637   0.17468   0.84746   0.00000  Uiso   1.00
C156   C     0.39408   0.28119   0.09029   0.00000  Uiso   1.00
C157   C     0.34208   0.27219   0.13925   0.00000  Uiso   1.00
C158   C     0.31263   0.35181   0.16372   0.00000  Uiso   1.00
C159   C     0.50430   0.22118   0.07731   0.00000  Uiso   1.00
C160   C     0.54497   0.16173   0.11539   0.00000  Uiso   1.00
C161   C     0.60832   0.19085   0.12895   0.00000  Uiso   1.00
H162   H     0.49045   0.42721   0.99458   0.00000  Uiso   1.00
H163   H     0.46773   0.39098   0.85568   0.00000  Uiso   1.00
H164   H     0.40343   0.51251   0.07267   0.00000  Uiso   1.00
H165   H     0.60629   0.40207   0.04880   0.00000  Uiso   1.00
H166   H     0.43290   0.31313   0.71214   0.00000  Uiso   1.00
H167   H     0.29732   0.56937   0.16968   0.00000  Uiso   1.00
H168   H     0.72509   0.33649   0.11936   0.00000  Uiso   1.00
H169   H     0.41631   0.13665   0.07508   0.00000  Uiso   1.00
H170   H     0.38952   0.08448   0.94059   0.00000  Uiso   1.00
H171   H     0.32521   0.20601   0.15758   0.00000  Uiso   1.00
H172   H     0.52807   0.09557   0.13371   0.00000  Uiso   1.00
H173   H     0.36941   0.06436   0.78106   0.00000  Uiso   1.00
H174   H     0.23384   0.32061   0.23860   0.00000  Uiso   1.00
H175   H     0.66161   0.08773   0.18827   0.00000  Uiso   1.00
O176   O     0.38485   0.15968   0.65668   0.00000  Uiso   1.00
O177   O     0.20699   0.49587   0.25697   0.00000  Uiso   1.00
O178   O     0.76821   0.19033   0.19094   0.00000  Uiso   1.00
N179   N     0.42164   0.26173   0.74681   0.00000  Uiso   1.00
N180   N     0.29488   0.50131   0.17458   0.00000  Uiso   1.00
N181   N     0.69480   0.28360   0.12755   0.00000  Uiso   1.00
N182   N     0.38749   0.12788   0.78390   0.00000  Uiso   1.00
N183   N     0.26072   0.36745   0.21166   0.00000  Uiso   1.00
N184   N     0.66065   0.14974   0.16463   0.00000  Uiso   1.00
C185   C     0.97347   0.13936   0.98698   0.00000  Uiso   1.00
C186   C     0.95085   0.19934   0.05129   0.00000  Uiso   1.00
C187   C     0.95085   0.17520   0.12601   0.00000  Uiso   1.00
C188   C     0.92823   0.23966   0.17627   0.00000  Uiso   1.00
C189   C     0.89639   0.31976   0.27972   0.00000  Uiso   1.00
C190   C     0.91590   0.13331   0.93340   0.00000  Uiso   1.00
C191   C     0.88653   0.05365   0.90900   0.00000  Uiso   1.00
C192   C     0.83449   0.06253   0.86001   0.00000  Uiso   1.00
C193   C     0.74843   0.04012   0.78040   0.00000  Uiso   1.00
C194   C     0.02612   0.19331   0.94637   0.00000  Uiso   1.00
C195   C     0.08942   0.16410   0.93286   0.00000  Uiso   1.00
C196   C     0.13018   0.22350   0.89478   0.00000  Uiso   1.00
C197   C     0.21525   0.29425   0.83531   0.00000  Uiso   1.00
C198   C     0.93330   0.29678   0.94337   0.00000  Uiso   1.00
C199   C     0.92903   0.28484   0.02759   0.00000  Uiso   1.00
C200   C     0.90640   0.34936   0.07776   0.00000  Uiso   1.00
C201   C     0.90637   0.32532   0.15254   0.00000  Uiso   1.00
C202   C     0.89408   0.21881   0.90971   0.00000  Uiso   1.00
C203   C     0.84208   0.22781   0.86075   0.00000  Uiso   1.00
C204   C     0.81263   0.14819   0.83628   0.00000  Uiso   1.00
C205   C     0.00430   0.27882   0.92269   0.00000  Uiso   1.00
C206   C     0.04497   0.33827   0.88461   0.00000  Uiso   1.00
C207   C     0.10832   0.30915   0.87105   0.00000  Uiso   1.00
H208   H     0.99045   0.07279   0.00542   0.00000  Uiso   1.00
H209   H     0.96773   0.10902   0.14432   0.00000  Uiso   1.00
H210   H     0.90343   0.98749   0.92733   0.00000  Uiso   1.00
H211   H     0.10629   0.09793   0.95120   0.00000  Uiso   1.00
H212   H     0.93290   0.18687   0.28786   0.00000  Uiso   1.00
H213   H     0.79732   0.93063   0.83032   0.00000  Uiso   1.00
H214   H     0.22509   0.16351   0.88064   0.00000  Uiso   1.00
H215   H     0.91631   0.36335   0.92492   0.00000  Uiso   1.00
H216   H     0.88952   0.41552   0.05941   0.00000  Uiso   1.00
H217   H     0.82521   0.29399   0.84242   0.00000  Uiso   1.00
H218   H     0.02807   0.40443   0.86629   0.00000  Uiso   1.00
H219   H     0.86941   0.43564   0.21894   0.00000  Uiso   1.00
H220   H     0.73384   0.17939   0.76140   0.00000  Uiso   1.00
H221   H     0.16161   0.41227   0.81173   0.00000  Uiso   1.00
O222   O     0.88485   0.34032   0.34332   0.00000  Uiso   1.00
O223   O     0.70699   0.00413   0.74303   0.00000  Uiso   1.00
O224   O     0.26821   0.30967   0.80906   0.00000  Uiso   1.00
N225   N     0.92164   0.23827   0.25319   0.00000  Uiso   1.00
N226   N     0.79488   0.99869   0.82542   0.00000  Uiso   1.00
N227   N     0.19480   0.21640   0.87245   0.00000  Uiso   1.00
N228   N     0.88749   0.37212   0.21610   0.00000  Uiso   1.00
N229   N     0.76072   0.13255   0.78834   0.00000  Uiso   1.00
N230   N     0.16065   0.35026   0.83537   0.00000  Uiso   1.00
C231   C     0.47347   0.63936   0.98698   0.00000  Uiso   1.00
C232   C     0.45085   0.69934   0.05129   0.00000  Uiso   1.00
C233   C     0.45085   0.67520   0.12601   0.00000  Uiso   1.00
C234   C     0.42823   0.73966   0.17627   0.00000  Uiso   1.00
C235   C     0.39639   0.81976   0.27972   0.00000  Uiso   1.00
C236   C     0.41590   0.63331   0.93340   0.00000  Uiso   1.00
C237   C     0.38653   0.55365   0.90900   0.00000  Uiso   1.00
C238   C     0.33449   0.56253   0.86001   0.00000  Uiso   1.00
C239   C     0.24843   0.54012   0.78040   0.00000  Uiso   1.00
C240   C     0.52612   0.69331   0.94637   0.00000  Uiso   1.00
C241   C     0.58942   0.66410   0.93286   0.00000  Uiso   1.00
C242   C     0.63018   0.72350   0.89478   0.00000  Uiso   1.00
C243   C     0.71525   0.79425   0.83531   0.00000  Uiso   1.00
C244   C     0.43330   0.79678   0.94337   0.00000  Uiso   1.00
C245   C     0.42903   0.78484   0.02759   0.00000  Uiso   1.00
C246   C     0.40640   0.84936   0.07776   0.00000  Uiso   1.00
C247   C     0.40637   0.82532   0.15254   0.00000  Uiso   1.00
C248   C     0.39408   0.71881   0.90971   0.00000  Uiso   1.00
C249   C     0.34208   0.72781   0.86075   0.00000  Uiso   1.00
C250   C     0.31263   0.64819   0.83628   0.00000  Uiso   1.00
C251   C     0.50430   0.77882   0.92269   0.00000  Uiso   1.00
C252   C     0.54497   0.83827   0.88461   0.00000  Uiso   1.00
C253   C     0.60832   0.80915   0.87105   0.00000  Uiso   1.00
H254   H     0.49045   0.57279   0.00542   0.00000  Uiso   1.00
H255   H     0.46773   0.60902   0.14432   0.00000  Uiso   1.00
H256   H     0.40343   0.48749   0.92733   0.00000  Uiso   1.00
H257   H     0.60629   0.59793   0.95120   0.00000  Uiso   1.00
H258   H     0.43290   0.68687   0.28786   0.00000  Uiso   1.00
H259   H     0.29732   0.43063   0.83032   0.00000  Uiso   1.00
H260   H     0.72509   0.66351   0.88064   0.00000  Uiso   1.00
H261   H     0.41631   0.86335   0.92492   0.00000  Uiso   1.00
H262   H     0.38952   0.91552   0.05941   0.00000  Uiso   1.00
H263   H     0.32521   0.79399   0.84242   0.00000  Uiso   1.00
H264   H     0.52807   0.90443   0.86629   0.00000  Uiso   1.00
H265   H     0.36941   0.93564   0.21894   0.00000  Uiso   1.00
H266   H     0.23384   0.67939   0.76140   0.00000  Uiso   1.00
H267   H     0.66161   0.91227   0.81173   0.00000  Uiso   1.00
O268   O     0.38485   0.84032   0.34332   0.00000  Uiso   1.00
O269   O     0.20699   0.50413   0.74303   0.00000  Uiso   1.00
O270   O     0.76821   0.80967   0.80906   0.00000  Uiso   1.00
N271   N     0.42164   0.73827   0.25319   0.00000  Uiso   1.00
N272   N     0.29488   0.49869   0.82542   0.00000  Uiso   1.00
N273   N     0.69480   0.71640   0.87245   0.00000  Uiso   1.00
N274   N     0.38749   0.87212   0.21610   0.00000  Uiso   1.00
N275   N     0.26072   0.63255   0.78834   0.00000  Uiso   1.00
N276   N     0.66065   0.85026   0.83537   0.00000  Uiso   1.00
C277   C     0.02653   0.86064   0.48698   0.00000  Uiso   1.00
C278   C     0.04915   0.80066   0.55129   0.00000  Uiso   1.00
C279   C     0.04915   0.82480   0.62601   0.00000  Uiso   1.00
C280   C     0.07177   0.76034   0.67627   0.00000  Uiso   1.00
C281   C     0.10361   0.68024   0.77972   0.00000  Uiso   1.00
C282   C     0.08410   0.86669   0.43340   0.00000  Uiso   1.00
C283   C     0.11347   0.94635   0.40900   0.00000  Uiso   1.00
C284   C     0.16551   0.93747   0.36001   0.00000  Uiso   1.00
C285   C     0.25157   0.95988   0.28040   0.00000  Uiso   1.00
C286   C     0.97388   0.80669   0.44637   0.00000  Uiso   1.00
C287   C     0.91058   0.83590   0.43286   0.00000  Uiso   1.00
C288   C     0.86982   0.77650   0.39478   0.00000  Uiso   1.00
C289   C     0.78475   0.70575   0.33531   0.00000  Uiso   1.00
C290   C     0.06670   0.70322   0.44337   0.00000  Uiso   1.00
C291   C     0.07097   0.71516   0.52759   0.00000  Uiso   1.00
C292   C     0.09360   0.65064   0.57776   0.00000  Uiso   1.00
C293   C     0.09363   0.67468   0.65254   0.00000  Uiso   1.00
C294   C     0.10592   0.78119   0.40971   0.00000  Uiso   1.00
C295   C     0.15792   0.77219   0.36075   0.00000  Uiso   1.00
C296   C     0.18737   0.85181   0.33628   0.00000  Uiso   1.00
C297   C     0.99570   0.72118   0.42269   0.00000  Uiso   1.00
C298   C     0.95503   0.66173   0.38461   0.00000  Uiso   1.00
C299   C     0.89168   0.69085   0.37105   0.00000  Uiso   1.00
H300   H     0.00955   0.92721   0.50542   0.00000  Uiso   1.00
H301   H     0.03227   0.89098   0.64432   0.00000  Uiso   1.00
H302   H     0.09657   0.01251   0.42733   0.00000  Uiso   1.00
H303   H     0.89371   0.90207   0.45120   0.00000  Uiso   1.00
H304   H     0.06710   0.81313   0.78786   0.00000  Uiso   1.00
H305   H     0.20268   0.06937   0.33032   0.00000  Uiso   1.00
H306   H     0.77491   0.83649   0.38064   0.00000  Uiso   1.00
H307   H     0.08369   0.63665   0.42492   0.00000  Uiso   1.00
H308   H     0.11048   0.58448   0.55941   0.00000  Uiso   1.00
H309   H     0.17479   0.70601   0.34242   0.00000  Uiso   1.00
H310   H     0.97193   0.59557   0.36629   0.00000  Uiso   1.00
H311   H     0.13059   0.56436   0.71894   0.00000  Uiso   1.00
H312   H     0.26616   0.82061   0.26140   0.00000  Uiso   1.00
H313   H     0.83839   0.58773   0.31173   0.00000  Uiso   1.00
O314   O     0.11515   0.65968   0.84332   0.00000  Uiso   1.00
O315   O     0.29301   0.99587   0.24303   0.00000  Uiso   1.00
O316   O     0.73179   0.69033   0.30906   0.00000  Uiso   1.00
N317   N     0.07836   0.76173   0.75319   0.00000  Uiso   1.00
N318   N     0.20512   0.00131   0.32542   0.00000  Uiso   1.00
N319   N     0.80520   0.78360   0.37245   0.00000  Uiso   1.00
N320   N     0.11251   0.62788   0.71610   0.00000  Uiso   1.00
N321   N     0.23928   0.86745   0.28834   0.00000  Uiso   1.00
N322   N     0.83935   0.64974   0.33537   0.00000  Uiso   1.00
C323   C     0.52653   0.36064   0.48698   0.00000  Uiso   1.00
C324   C     0.54915   0.30066   0.55129   0.00000  Uiso   1.00
C325   C     0.54915   0.32480   0.62601   0.00000  Uiso   1.00
C326   C     0.57177   0.26034   0.67627   0.00000  Uiso   1.00
C327   C     0.60361   0.18024   0.77972   0.00000  Uiso   1.00
C328   C     0.58410   0.36669   0.43340   0.00000  Uiso   1.00
C329   C     0.61347   0.44635   0.40900   0.00000  Uiso   1.00
C330   C     0.66551   0.43747   0.36001   0.00000  Uiso   1.00
C331   C     0.75157   0.45988   0.28040   0.00000  Uiso   1.00
C332   C     0.47388   0.30669   0.44637   0.00000  Uiso   1.00
C333   C     0.41058   0.33590   0.43286   0.00000  Uiso   1.00
C334   C     0.36982   0.27650   0.39478   0.00000  Uiso   1.00
C335   C     0.28475   0.20575   0.33531   0.00000  Uiso   1.00
C336   C     0.56670   0.20322   0.44337   0.00000  Uiso   1.00
C337   C     0.57097   0.21516   0.52759   0.00000  Uiso   1.00
C338   C     0.59360   0.15064   0.57776   0.00000  Uiso   1.00
C339   C     0.59363   0.17468   0.65254   0.00000  Uiso   1.00
C340   C     0.60592   0.28119   0.40971   0.00000  Uiso   1.00
C341   C     0.65792   0.27219   0.36075   0.00000  Uiso   1.00
C342   C     0.68737   0.35181   0.33628   0.00000  Uiso   1.00
C343   C     0.49570   0.22118   0.42269   0.00000  Uiso   1.00
C344   C     0.45503   0.16173   0.38461   0.00000  Uiso   1.00
C345   C     0.39168   0.19085   0.37105   0.00000  Uiso   1.00
H346   H     0.50955   0.42721   0.50542   0.00000  Uiso   1.00
H347   H     0.53227   0.39098   0.64432   0.00000  Uiso   1.00
H348   H     0.59657   0.51251   0.42733   0.00000  Uiso   1.00
H349   H     0.39371   0.40207   0.45120   0.00000  Uiso   1.00
H350   H     0.56710   0.31313   0.78786   0.00000  Uiso   1.00
H351   H     0.70268   0.56937   0.33032   0.00000  Uiso   1.00
H352   H     0.27491   0.33649   0.38064   0.00000  Uiso   1.00
H353   H     0.58369   0.13665   0.42492   0.00000  Uiso   1.00
H354   H     0.61048   0.08448   0.55941   0.00000  Uiso   1.00
H355   H     0.67479   0.20601   0.34242   0.00000  Uiso   1.00
H356   H     0.47193   0.09557   0.36629   0.00000  Uiso   1.00
H357   H     0.63059   0.06436   0.71894   0.00000  Uiso   1.00
H358   H     0.76616   0.32061   0.26140   0.00000  Uiso   1.00
H359   H     0.33839   0.08773   0.31173   0.00000  Uiso   1.00
O360   O     0.61515   0.15968   0.84332   0.00000  Uiso   1.00
O361   O     0.79301   0.49587   0.24303   0.00000  Uiso   1.00
O362   O     0.23179   0.19033   0.30906   0.00000  Uiso   1.00
N363   N     0.57836   0.26173   0.75319   0.00000  Uiso   1.00
N364   N     0.70512   0.50131   0.32542   0.00000  Uiso   1.00
N365   N     0.30520   0.28360   0.37245   0.00000  Uiso   1.00
N366   N     0.61251   0.12788   0.71610   0.00000  Uiso   1.00
N367   N     0.73928   0.36745   0.28834   0.00000  Uiso   1.00
N368   N     0.33935   0.14974   0.33537   0.00000  Uiso   1.00
