data_job_00596
_audit_creation_date              2018-12-19
_audit_creation_method            'Materials Studio'
_symmetry_space_group_name_H-M    'P1'
_symmetry_Int_Tables_number       1
_symmetry_cell_setting            triclinic
loop_
_symmetry_equiv_pos_as_xyz
  x,y,z
_cell_length_a                    14.9234
_cell_length_b                    20.4789
_cell_length_c                    19.0280
_cell_angle_alpha                 90.0000
_cell_angle_beta                  90.0000
_cell_angle_gamma                 90.0000
loop_
_atom_site_label
_atom_site_type_symbol
_atom_site_fract_x
_atom_site_fract_y
_atom_site_fract_z
_atom_site_U_iso_or_equiv
_atom_site_adp_type
_atom_site_occupancy
C1     C     0.24118   0.63260   0.97546   0.00000  Uiso   1.00
C2     C     0.32851   0.60057   0.95215   0.00000  Uiso   1.00
C3     C     0.33845   0.55859   0.89543   0.00000  Uiso   1.00
C4     C     0.42387   0.53444   0.88277   0.00000  Uiso   1.00
C5     C     0.54839   0.48206   0.84011   0.00000  Uiso   1.00
C6     C     0.22793   0.61306   0.05210   0.00000  Uiso   1.00
C7     C     0.15329   0.58159   0.07941   0.00000  Uiso   1.00
C8     C     0.15403   0.56797   0.15089   0.00000  Uiso   1.00
C9     C     0.12236   0.53502   0.26341   0.00000  Uiso   1.00
C10    C     0.25896   0.70592   0.97586   0.00000  Uiso   1.00
C11    C     0.21039   0.75254   0.93909   0.00000  Uiso   1.00
C12    C     0.23725   0.81710   0.94639   0.00000  Uiso   1.00
C13    C     0.25375   0.92833   0.94055   0.00000  Uiso   1.00
C14    C     0.37521   0.66436   0.05384   0.00000  Uiso   1.00
C15    C     0.40131   0.61782   0.99472   0.00000  Uiso   1.00
C16    C     0.48674   0.59373   0.98214   0.00000  Uiso   1.00
C17    C     0.49680   0.55173   0.92541   0.00000  Uiso   1.00
C18    C     0.30072   0.63031   0.09467   0.00000  Uiso   1.00
C19    C     0.30158   0.61674   0.16612   0.00000  Uiso   1.00
C20    C     0.22696   0.58525   0.19353   0.00000  Uiso   1.00
C21    C     0.33176   0.72318   0.01843   0.00000  Uiso   1.00
C22    C     0.35868   0.78768   0.02580   0.00000  Uiso   1.00
C23    C     0.31017   0.83438   0.98904   0.00000  Uiso   1.00
H24    H     0.18451   0.61917   0.94233   0.00000  Uiso   1.00
H25    H     0.28210   0.54525   0.86250   0.00000  Uiso   1.00
H26    H     0.09696   0.56825   0.04646   0.00000  Uiso   1.00
H27    H     0.15406   0.73917   0.90615   0.00000  Uiso   1.00
H28    H     0.42239   0.47088   0.79279   0.00000  Uiso   1.00
H29    H     0.03201   0.51941   0.18067   0.00000  Uiso   1.00
H30    H     0.15241   0.87982   0.88482   0.00000  Uiso   1.00
H31    H     0.43189   0.67780   0.08698   0.00000  Uiso   1.00
H32    H     0.54306   0.60709   0.01509   0.00000  Uiso   1.00
H33    H     0.35792   0.63010   0.19905   0.00000  Uiso   1.00
H34    H     0.41502   0.80101   0.05874   0.00000  Uiso   1.00
H35    H     0.63420   0.52108   0.91664   0.00000  Uiso   1.00
H36    H     0.24381   0.56961   0.30452   0.00000  Uiso   1.00
H37    H     0.36422   0.93002   0.00867   0.00000  Uiso   1.00
O38    O     0.59696   0.44840   0.80483   0.00000  Uiso   1.00
O39    O     0.08478   0.51208   0.31371   0.00000  Uiso   1.00
O40    O     0.24275   0.98492   0.92555   0.00000  Uiso   1.00
N41    N     0.45699   0.49241   0.83180   0.00000  Uiso   1.00
N42    N     0.09201   0.53777   0.19444   0.00000  Uiso   1.00
N43    N     0.20456   0.87473   0.91785   0.00000  Uiso   1.00
N44    N     0.57096   0.51942   0.89844   0.00000  Uiso   1.00
N45    N     0.20598   0.56478   0.26108   0.00000  Uiso   1.00
N46    N     0.31853   0.90174   0.98450   0.00000  Uiso   1.00
C47    C     0.74118   0.13260   0.97546   0.00000  Uiso   1.00
C48    C     0.82851   0.10057   0.95215   0.00000  Uiso   1.00
C49    C     0.83845   0.05859   0.89543   0.00000  Uiso   1.00
C50    C     0.92387   0.03444   0.88277   0.00000  Uiso   1.00
C51    C     0.04839   0.98206   0.84011   0.00000  Uiso   1.00
C52    C     0.72793   0.11306   0.05210   0.00000  Uiso   1.00
C53    C     0.65329   0.08159   0.07941   0.00000  Uiso   1.00
C54    C     0.65403   0.06797   0.15089   0.00000  Uiso   1.00
C55    C     0.62236   0.03502   0.26341   0.00000  Uiso   1.00
C56    C     0.75896   0.20592   0.97586   0.00000  Uiso   1.00
C57    C     0.71039   0.25254   0.93909   0.00000  Uiso   1.00
C58    C     0.73725   0.31710   0.94639   0.00000  Uiso   1.00
C59    C     0.75375   0.42833   0.94055   0.00000  Uiso   1.00
C60    C     0.87521   0.16436   0.05384   0.00000  Uiso   1.00
C61    C     0.90131   0.11782   0.99472   0.00000  Uiso   1.00
C62    C     0.98674   0.09373   0.98214   0.00000  Uiso   1.00
C63    C     0.99680   0.05173   0.92541   0.00000  Uiso   1.00
C64    C     0.80072   0.13031   0.09467   0.00000  Uiso   1.00
C65    C     0.80158   0.11674   0.16612   0.00000  Uiso   1.00
C66    C     0.72696   0.08525   0.19353   0.00000  Uiso   1.00
C67    C     0.83176   0.22318   0.01843   0.00000  Uiso   1.00
C68    C     0.85868   0.28768   0.02580   0.00000  Uiso   1.00
C69    C     0.81017   0.33438   0.98904   0.00000  Uiso   1.00
H70    H     0.68451   0.11917   0.94233   0.00000  Uiso   1.00
H71    H     0.78210   0.04525   0.86250   0.00000  Uiso   1.00
H72    H     0.59696   0.06825   0.04646   0.00000  Uiso   1.00
H73    H     0.65406   0.23917   0.90615   0.00000  Uiso   1.00
H74    H     0.92239   0.97088   0.79279   0.00000  Uiso   1.00
H75    H     0.53201   0.01941   0.18067   0.00000  Uiso   1.00
H76    H     0.65241   0.37982   0.88482   0.00000  Uiso   1.00
H77    H     0.93189   0.17780   0.08698   0.00000  Uiso   1.00
H78    H     0.04306   0.10709   0.01509   0.00000  Uiso   1.00
H79    H     0.85792   0.13010   0.19905   0.00000  Uiso   1.00
H80    H     0.91502   0.30101   0.05874   0.00000  Uiso   1.00
H81    H     0.13420   0.02108   0.91664   0.00000  Uiso   1.00
H82    H     0.74381   0.06961   0.30452   0.00000  Uiso   1.00
H83    H     0.86422   0.43002   0.00867   0.00000  Uiso   1.00
O84    O     0.09696   0.94840   0.80483   0.00000  Uiso   1.00
O85    O     0.58478   0.01208   0.31371   0.00000  Uiso   1.00
O86    O     0.74275   0.48492   0.92555   0.00000  Uiso   1.00
N87    N     0.95699   0.99241   0.83180   0.00000  Uiso   1.00
N88    N     0.59201   0.03777   0.19444   0.00000  Uiso   1.00
N89    N     0.70456   0.37473   0.91785   0.00000  Uiso   1.00
N90    N     0.07096   0.01942   0.89844   0.00000  Uiso   1.00
N91    N     0.70598   0.06478   0.26108   0.00000  Uiso   1.00
N92    N     0.81853   0.40174   0.98450   0.00000  Uiso   1.00
C93    C     0.75882   0.36740   0.47546   0.00000  Uiso   1.00
C94    C     0.67149   0.39943   0.45215   0.00000  Uiso   1.00
C95    C     0.66155   0.44141   0.39543   0.00000  Uiso   1.00
C96    C     0.57613   0.46556   0.38277   0.00000  Uiso   1.00
C97    C     0.45161   0.51794   0.34011   0.00000  Uiso   1.00
C98    C     0.77207   0.38694   0.55210   0.00000  Uiso   1.00
C99    C     0.84671   0.41841   0.57941   0.00000  Uiso   1.00
C100   C     0.84597   0.43203   0.65089   0.00000  Uiso   1.00
C101   C     0.87764   0.46498   0.76341   0.00000  Uiso   1.00
C102   C     0.74104   0.29408   0.47586   0.00000  Uiso   1.00
C103   C     0.78961   0.24746   0.43909   0.00000  Uiso   1.00
C104   C     0.76275   0.18290   0.44639   0.00000  Uiso   1.00
C105   C     0.74625   0.07167   0.44055   0.00000  Uiso   1.00
C106   C     0.62479   0.33564   0.55384   0.00000  Uiso   1.00
C107   C     0.59869   0.38218   0.49472   0.00000  Uiso   1.00
C108   C     0.51326   0.40627   0.48214   0.00000  Uiso   1.00
C109   C     0.50320   0.44827   0.42541   0.00000  Uiso   1.00
C110   C     0.69928   0.36969   0.59467   0.00000  Uiso   1.00
C111   C     0.69842   0.38326   0.66612   0.00000  Uiso   1.00
C112   C     0.77304   0.41475   0.69353   0.00000  Uiso   1.00
C113   C     0.66824   0.27682   0.51843   0.00000  Uiso   1.00
C114   C     0.64132   0.21232   0.52580   0.00000  Uiso   1.00
C115   C     0.68983   0.16562   0.48904   0.00000  Uiso   1.00
H116   H     0.81549   0.38083   0.44233   0.00000  Uiso   1.00
H117   H     0.71790   0.45475   0.36250   0.00000  Uiso   1.00
H118   H     0.90304   0.43175   0.54646   0.00000  Uiso   1.00
H119   H     0.84594   0.26083   0.40615   0.00000  Uiso   1.00
H120   H     0.57761   0.52912   0.29279   0.00000  Uiso   1.00
H121   H     0.96799   0.48059   0.68067   0.00000  Uiso   1.00
H122   H     0.84759   0.12018   0.38482   0.00000  Uiso   1.00
H123   H     0.56811   0.32220   0.58698   0.00000  Uiso   1.00
H124   H     0.45694   0.39291   0.51509   0.00000  Uiso   1.00
H125   H     0.64208   0.36990   0.69905   0.00000  Uiso   1.00
H126   H     0.58498   0.19899   0.55874   0.00000  Uiso   1.00
H127   H     0.36580   0.47892   0.41664   0.00000  Uiso   1.00
H128   H     0.75619   0.43039   0.80452   0.00000  Uiso   1.00
H129   H     0.63578   0.06998   0.50867   0.00000  Uiso   1.00
O130   O     0.40304   0.55160   0.30483   0.00000  Uiso   1.00
O131   O     0.91522   0.48792   0.81371   0.00000  Uiso   1.00
O132   O     0.75725   0.01508   0.42555   0.00000  Uiso   1.00
N133   N     0.54301   0.50759   0.33180   0.00000  Uiso   1.00
N134   N     0.90799   0.46223   0.69444   0.00000  Uiso   1.00
N135   N     0.79544   0.12527   0.41785   0.00000  Uiso   1.00
N136   N     0.42904   0.48058   0.39844   0.00000  Uiso   1.00
N137   N     0.79402   0.43522   0.76108   0.00000  Uiso   1.00
N138   N     0.68147   0.09826   0.48450   0.00000  Uiso   1.00
C139   C     0.25882   0.86740   0.47546   0.00000  Uiso   1.00
C140   C     0.17149   0.89943   0.45215   0.00000  Uiso   1.00
C141   C     0.16155   0.94141   0.39543   0.00000  Uiso   1.00
C142   C     0.07613   0.96556   0.38277   0.00000  Uiso   1.00
C143   C     0.95161   0.01794   0.34011   0.00000  Uiso   1.00
C144   C     0.27207   0.88694   0.55210   0.00000  Uiso   1.00
C145   C     0.34671   0.91841   0.57941   0.00000  Uiso   1.00
C146   C     0.34597   0.93203   0.65089   0.00000  Uiso   1.00
C147   C     0.37764   0.96498   0.76341   0.00000  Uiso   1.00
C148   C     0.24104   0.79408   0.47586   0.00000  Uiso   1.00
C149   C     0.28961   0.74746   0.43909   0.00000  Uiso   1.00
C150   C     0.26275   0.68290   0.44639   0.00000  Uiso   1.00
C151   C     0.24625   0.57167   0.44055   0.00000  Uiso   1.00
C152   C     0.12479   0.83564   0.55384   0.00000  Uiso   1.00
C153   C     0.09869   0.88218   0.49472   0.00000  Uiso   1.00
C154   C     0.01326   0.90627   0.48214   0.00000  Uiso   1.00
C155   C     0.00320   0.94827   0.42541   0.00000  Uiso   1.00
C156   C     0.19928   0.86969   0.59467   0.00000  Uiso   1.00
C157   C     0.19842   0.88326   0.66612   0.00000  Uiso   1.00
C158   C     0.27304   0.91475   0.69353   0.00000  Uiso   1.00
C159   C     0.16824   0.77682   0.51843   0.00000  Uiso   1.00
C160   C     0.14132   0.71232   0.52580   0.00000  Uiso   1.00
C161   C     0.18983   0.66562   0.48904   0.00000  Uiso   1.00
H162   H     0.31549   0.88083   0.44233   0.00000  Uiso   1.00
H163   H     0.21790   0.95475   0.36250   0.00000  Uiso   1.00
H164   H     0.40304   0.93175   0.54646   0.00000  Uiso   1.00
H165   H     0.34594   0.76083   0.40615   0.00000  Uiso   1.00
H166   H     0.07761   0.02912   0.29279   0.00000  Uiso   1.00
H167   H     0.46799   0.98059   0.68067   0.00000  Uiso   1.00
H168   H     0.34759   0.62018   0.38482   0.00000  Uiso   1.00
H169   H     0.06811   0.82220   0.58698   0.00000  Uiso   1.00
H170   H     0.95694   0.89291   0.51509   0.00000  Uiso   1.00
H171   H     0.14208   0.86990   0.69905   0.00000  Uiso   1.00
H172   H     0.08498   0.69899   0.55874   0.00000  Uiso   1.00
H173   H     0.86580   0.97892   0.41664   0.00000  Uiso   1.00
H174   H     0.25619   0.93039   0.80452   0.00000  Uiso   1.00
H175   H     0.13578   0.56998   0.50867   0.00000  Uiso   1.00
O176   O     0.90304   0.05160   0.30483   0.00000  Uiso   1.00
O177   O     0.41522   0.98792   0.81371   0.00000  Uiso   1.00
O178   O     0.25725   0.51508   0.42555   0.00000  Uiso   1.00
N179   N     0.04301   0.00759   0.33180   0.00000  Uiso   1.00
N180   N     0.40799   0.96223   0.69444   0.00000  Uiso   1.00
N181   N     0.29544   0.62527   0.41785   0.00000  Uiso   1.00
N182   N     0.92904   0.98058   0.39844   0.00000  Uiso   1.00
N183   N     0.29402   0.93522   0.76108   0.00000  Uiso   1.00
N184   N     0.18147   0.59826   0.48450   0.00000  Uiso   1.00
C185   C     0.75882   0.63260   0.52454   0.00000  Uiso   1.00
C186   C     0.67149   0.60057   0.54785   0.00000  Uiso   1.00
C187   C     0.66155   0.55859   0.60457   0.00000  Uiso   1.00
C188   C     0.57613   0.53444   0.61723   0.00000  Uiso   1.00
C189   C     0.45161   0.48206   0.65989   0.00000  Uiso   1.00
C190   C     0.77207   0.61306   0.44790   0.00000  Uiso   1.00
C191   C     0.84671   0.58159   0.42059   0.00000  Uiso   1.00
C192   C     0.84597   0.56797   0.34911   0.00000  Uiso   1.00
C193   C     0.87764   0.53502   0.23659   0.00000  Uiso   1.00
C194   C     0.74104   0.70592   0.52414   0.00000  Uiso   1.00
C195   C     0.78961   0.75254   0.56091   0.00000  Uiso   1.00
C196   C     0.76275   0.81710   0.55361   0.00000  Uiso   1.00
C197   C     0.74625   0.92833   0.55945   0.00000  Uiso   1.00
C198   C     0.62479   0.66436   0.44616   0.00000  Uiso   1.00
C199   C     0.59869   0.61782   0.50528   0.00000  Uiso   1.00
C200   C     0.51326   0.59373   0.51786   0.00000  Uiso   1.00
C201   C     0.50320   0.55173   0.57459   0.00000  Uiso   1.00
C202   C     0.69928   0.63031   0.40533   0.00000  Uiso   1.00
C203   C     0.69842   0.61674   0.33388   0.00000  Uiso   1.00
C204   C     0.77304   0.58525   0.30647   0.00000  Uiso   1.00
C205   C     0.66824   0.72318   0.48157   0.00000  Uiso   1.00
C206   C     0.64132   0.78768   0.47420   0.00000  Uiso   1.00
C207   C     0.68983   0.83438   0.51096   0.00000  Uiso   1.00
H208   H     0.81549   0.61917   0.55767   0.00000  Uiso   1.00
H209   H     0.71790   0.54525   0.63750   0.00000  Uiso   1.00
H210   H     0.90304   0.56825   0.45354   0.00000  Uiso   1.00
H211   H     0.84594   0.73917   0.59385   0.00000  Uiso   1.00
H212   H     0.57761   0.47088   0.70721   0.00000  Uiso   1.00
H213   H     0.96799   0.51941   0.31933   0.00000  Uiso   1.00
H214   H     0.84759   0.87982   0.61518   0.00000  Uiso   1.00
H215   H     0.56811   0.67780   0.41302   0.00000  Uiso   1.00
H216   H     0.45694   0.60709   0.48491   0.00000  Uiso   1.00
H217   H     0.64208   0.63010   0.30095   0.00000  Uiso   1.00
H218   H     0.58498   0.80101   0.44126   0.00000  Uiso   1.00
H219   H     0.36580   0.52108   0.58336   0.00000  Uiso   1.00
H220   H     0.75619   0.56961   0.19548   0.00000  Uiso   1.00
H221   H     0.63578   0.93002   0.49133   0.00000  Uiso   1.00
O222   O     0.40304   0.44840   0.69517   0.00000  Uiso   1.00
O223   O     0.91522   0.51208   0.18629   0.00000  Uiso   1.00
O224   O     0.75725   0.98492   0.57445   0.00000  Uiso   1.00
N225   N     0.54301   0.49241   0.66820   0.00000  Uiso   1.00
N226   N     0.90799   0.53777   0.30556   0.00000  Uiso   1.00
N227   N     0.79544   0.87473   0.58215   0.00000  Uiso   1.00
N228   N     0.42904   0.51942   0.60156   0.00000  Uiso   1.00
N229   N     0.79402   0.56478   0.23892   0.00000  Uiso   1.00
N230   N     0.68147   0.90174   0.51550   0.00000  Uiso   1.00
C231   C     0.25882   0.13260   0.52454   0.00000  Uiso   1.00
C232   C     0.17149   0.10057   0.54785   0.00000  Uiso   1.00
C233   C     0.16155   0.05859   0.60457   0.00000  Uiso   1.00
C234   C     0.07613   0.03444   0.61723   0.00000  Uiso   1.00
C235   C     0.95161   0.98206   0.65989   0.00000  Uiso   1.00
C236   C     0.27207   0.11306   0.44790   0.00000  Uiso   1.00
C237   C     0.34671   0.08159   0.42059   0.00000  Uiso   1.00
C238   C     0.34597   0.06797   0.34911   0.00000  Uiso   1.00
C239   C     0.37764   0.03502   0.23659   0.00000  Uiso   1.00
C240   C     0.24104   0.20592   0.52414   0.00000  Uiso   1.00
C241   C     0.28961   0.25254   0.56091   0.00000  Uiso   1.00
C242   C     0.26275   0.31710   0.55361   0.00000  Uiso   1.00
C243   C     0.24625   0.42833   0.55945   0.00000  Uiso   1.00
C244   C     0.12479   0.16436   0.44616   0.00000  Uiso   1.00
C245   C     0.09869   0.11782   0.50528   0.00000  Uiso   1.00
C246   C     0.01326   0.09373   0.51786   0.00000  Uiso   1.00
C247   C     0.00320   0.05173   0.57459   0.00000  Uiso   1.00
C248   C     0.19928   0.13031   0.40533   0.00000  Uiso   1.00
C249   C     0.19842   0.11674   0.33388   0.00000  Uiso   1.00
C250   C     0.27304   0.08525   0.30647   0.00000  Uiso   1.00
C251   C     0.16824   0.22318   0.48157   0.00000  Uiso   1.00
C252   C     0.14132   0.28768   0.47420   0.00000  Uiso   1.00
C253   C     0.18983   0.33438   0.51096   0.00000  Uiso   1.00
H254   H     0.31549   0.11917   0.55767   0.00000  Uiso   1.00
H255   H     0.21790   0.04525   0.63750   0.00000  Uiso   1.00
H256   H     0.40304   0.06825   0.45354   0.00000  Uiso   1.00
H257   H     0.34594   0.23917   0.59385   0.00000  Uiso   1.00
H258   H     0.07761   0.97088   0.70721   0.00000  Uiso   1.00
H259   H     0.46799   0.01941   0.31933   0.00000  Uiso   1.00
H260   H     0.34759   0.37982   0.61518   0.00000  Uiso   1.00
H261   H     0.06811   0.17780   0.41302   0.00000  Uiso   1.00
H262   H     0.95694   0.10709   0.48491   0.00000  Uiso   1.00
H263   H     0.14208   0.13010   0.30095   0.00000  Uiso   1.00
H264   H     0.08498   0.30101   0.44126   0.00000  Uiso   1.00
H265   H     0.86580   0.02108   0.58336   0.00000  Uiso   1.00
H266   H     0.25619   0.06961   0.19548   0.00000  Uiso   1.00
H267   H     0.13578   0.43002   0.49133   0.00000  Uiso   1.00
O268   O     0.90304   0.94840   0.69517   0.00000  Uiso   1.00
O269   O     0.41522   0.01208   0.18629   0.00000  Uiso   1.00
O270   O     0.25725   0.48492   0.57445   0.00000  Uiso   1.00
N271   N     0.04301   0.99241   0.66820   0.00000  Uiso   1.00
N272   N     0.40799   0.03777   0.30556   0.00000  Uiso   1.00
N273   N     0.29544   0.37473   0.58215   0.00000  Uiso   1.00
N274   N     0.92904   0.01942   0.60156   0.00000  Uiso   1.00
N275   N     0.29402   0.06478   0.23892   0.00000  Uiso   1.00
N276   N     0.18147   0.40174   0.51550   0.00000  Uiso   1.00
C277   C     0.24118   0.36740   0.02454   0.00000  Uiso   1.00
C278   C     0.32851   0.39943   0.04785   0.00000  Uiso   1.00
C279   C     0.33845   0.44141   0.10457   0.00000  Uiso   1.00
C280   C     0.42387   0.46556   0.11723   0.00000  Uiso   1.00
C281   C     0.54839   0.51794   0.15989   0.00000  Uiso   1.00
C282   C     0.22793   0.38694   0.94790   0.00000  Uiso   1.00
C283   C     0.15329   0.41841   0.92059   0.00000  Uiso   1.00
C284   C     0.15403   0.43203   0.84911   0.00000  Uiso   1.00
C285   C     0.12236   0.46498   0.73659   0.00000  Uiso   1.00
C286   C     0.25896   0.29408   0.02414   0.00000  Uiso   1.00
C287   C     0.21039   0.24746   0.06091   0.00000  Uiso   1.00
C288   C     0.23725   0.18290   0.05361   0.00000  Uiso   1.00
C289   C     0.25375   0.07167   0.05945   0.00000  Uiso   1.00
C290   C     0.37521   0.33564   0.94616   0.00000  Uiso   1.00
C291   C     0.40131   0.38218   0.00528   0.00000  Uiso   1.00
C292   C     0.48674   0.40627   0.01786   0.00000  Uiso   1.00
C293   C     0.49680   0.44827   0.07459   0.00000  Uiso   1.00
C294   C     0.30072   0.36969   0.90533   0.00000  Uiso   1.00
C295   C     0.30158   0.38326   0.83388   0.00000  Uiso   1.00
C296   C     0.22696   0.41475   0.80647   0.00000  Uiso   1.00
C297   C     0.33176   0.27682   0.98157   0.00000  Uiso   1.00
C298   C     0.35868   0.21232   0.97420   0.00000  Uiso   1.00
C299   C     0.31017   0.16562   0.01096   0.00000  Uiso   1.00
H300   H     0.18451   0.38083   0.05767   0.00000  Uiso   1.00
H301   H     0.28210   0.45475   0.13750   0.00000  Uiso   1.00
H302   H     0.09696   0.43175   0.95354   0.00000  Uiso   1.00
H303   H     0.15406   0.26083   0.09385   0.00000  Uiso   1.00
H304   H     0.42239   0.52912   0.20721   0.00000  Uiso   1.00
H305   H     0.03201   0.48059   0.81933   0.00000  Uiso   1.00
H306   H     0.15241   0.12018   0.11518   0.00000  Uiso   1.00
H307   H     0.43189   0.32220   0.91302   0.00000  Uiso   1.00
H308   H     0.54306   0.39291   0.98491   0.00000  Uiso   1.00
H309   H     0.35792   0.36990   0.80095   0.00000  Uiso   1.00
H310   H     0.41502   0.19899   0.94126   0.00000  Uiso   1.00
H311   H     0.63420   0.47892   0.08336   0.00000  Uiso   1.00
H312   H     0.24381   0.43039   0.69548   0.00000  Uiso   1.00
H313   H     0.36422   0.06998   0.99133   0.00000  Uiso   1.00
O314   O     0.59696   0.55160   0.19517   0.00000  Uiso   1.00
O315   O     0.08478   0.48792   0.68629   0.00000  Uiso   1.00
O316   O     0.24275   0.01508   0.07445   0.00000  Uiso   1.00
N317   N     0.45699   0.50759   0.16820   0.00000  Uiso   1.00
N318   N     0.09201   0.46223   0.80556   0.00000  Uiso   1.00
N319   N     0.20456   0.12527   0.08215   0.00000  Uiso   1.00
N320   N     0.57096   0.48058   0.10156   0.00000  Uiso   1.00
N321   N     0.20598   0.43522   0.73892   0.00000  Uiso   1.00
N322   N     0.31853   0.09826   0.01550   0.00000  Uiso   1.00
C323   C     0.74118   0.86740   0.02454   0.00000  Uiso   1.00
C324   C     0.82851   0.89943   0.04785   0.00000  Uiso   1.00
C325   C     0.83845   0.94141   0.10457   0.00000  Uiso   1.00
C326   C     0.92387   0.96556   0.11723   0.00000  Uiso   1.00
C327   C     0.04839   0.01794   0.15989   0.00000  Uiso   1.00
C328   C     0.72793   0.88694   0.94790   0.00000  Uiso   1.00
C329   C     0.65329   0.91841   0.92059   0.00000  Uiso   1.00
C330   C     0.65403   0.93203   0.84911   0.00000  Uiso   1.00
C331   C     0.62236   0.96498   0.73659   0.00000  Uiso   1.00
C332   C     0.75896   0.79408   0.02414   0.00000  Uiso   1.00
C333   C     0.71039   0.74746   0.06091   0.00000  Uiso   1.00
C334   C     0.73725   0.68290   0.05361   0.00000  Uiso   1.00
C335   C     0.75375   0.57167   0.05945   0.00000  Uiso   1.00
C336   C     0.87521   0.83564   0.94616   0.00000  Uiso   1.00
C337   C     0.90131   0.88218   0.00528   0.00000  Uiso   1.00
C338   C     0.98674   0.90627   0.01786   0.00000  Uiso   1.00
C339   C     0.99680   0.94827   0.07459   0.00000  Uiso   1.00
C340   C     0.80072   0.86969   0.90533   0.00000  Uiso   1.00
C341   C     0.80158   0.88326   0.83388   0.00000  Uiso   1.00
C342   C     0.72696   0.91475   0.80647   0.00000  Uiso   1.00
C343   C     0.83176   0.77682   0.98157   0.00000  Uiso   1.00
C344   C     0.85868   0.71232   0.97420   0.00000  Uiso   1.00
C345   C     0.81017   0.66562   0.01096   0.00000  Uiso   1.00
H346   H     0.68451   0.88083   0.05767   0.00000  Uiso   1.00
H347   H     0.78210   0.95475   0.13750   0.00000  Uiso   1.00
H348   H     0.59696   0.93175   0.95354   0.00000  Uiso   1.00
H349   H     0.65406   0.76083   0.09385   0.00000  Uiso   1.00
H350   H     0.92239   0.02912   0.20721   0.00000  Uiso   1.00
H351   H     0.53201   0.98059   0.81933   0.00000  Uiso   1.00
H352   H     0.65241   0.62018   0.11518   0.00000  Uiso   1.00
H353   H     0.93189   0.82220   0.91302   0.00000  Uiso   1.00
H354   H     0.04306   0.89291   0.98491   0.00000  Uiso   1.00
H355   H     0.85792   0.86990   0.80095   0.00000  Uiso   1.00
H356   H     0.91502   0.69899   0.94126   0.00000  Uiso   1.00
H357   H     0.13420   0.97892   0.08336   0.00000  Uiso   1.00
H358   H     0.74381   0.93039   0.69548   0.00000  Uiso   1.00
H359   H     0.86422   0.56998   0.99133   0.00000  Uiso   1.00
O360   O     0.09696   0.05160   0.19517   0.00000  Uiso   1.00
O361   O     0.58478   0.98792   0.68629   0.00000  Uiso   1.00
O362   O     0.74275   0.51508   0.07445   0.00000  Uiso   1.00
N363   N     0.95699   0.00759   0.16820   0.00000  Uiso   1.00
N364   N     0.59201   0.96223   0.80556   0.00000  Uiso   1.00
N365   N     0.70456   0.62527   0.08215   0.00000  Uiso   1.00
N366   N     0.07096   0.98058   0.10156   0.00000  Uiso   1.00
N367   N     0.70598   0.93522   0.73892   0.00000  Uiso   1.00
N368   N     0.81853   0.59826   0.01550   0.00000  Uiso   1.00
