data_job_05076
_audit_creation_date              2018-12-19
_audit_creation_method            'Materials Studio'
_symmetry_space_group_name_H-M    'P1'
_symmetry_Int_Tables_number       1
_symmetry_cell_setting            triclinic
loop_
_symmetry_equiv_pos_as_xyz
  x,y,z
_cell_length_a                    25.8448
_cell_length_b                    12.3605
_cell_length_c                    14.8654
_cell_angle_alpha                 90.0000
_cell_angle_beta                  90.0000
_cell_angle_gamma                 90.0000
loop_
_atom_site_label
_atom_site_type_symbol
_atom_site_fract_x
_atom_site_fract_y
_atom_site_fract_z
_atom_site_U_iso_or_equiv
_atom_site_adp_type
_atom_site_occupancy
C1     C     0.64334   0.84233   0.70227   0.00000  Uiso   1.00
C2     C     0.64030   0.91572   0.78456   0.00000  Uiso   1.00
C3     C     0.66989   0.00778   0.79905   0.00000  Uiso   1.00
C4     C     0.66131   0.06387   0.87859   0.00000  Uiso   1.00
C5     C     0.66222   0.18310   0.99684   0.00000  Uiso   1.00
C6     C     0.65445   0.72905   0.73803   0.00000  Uiso   1.00
C7     C     0.69593   0.66417   0.71340   0.00000  Uiso   1.00
C8     C     0.69926   0.56311   0.75377   0.00000  Uiso   1.00
C9     C     0.72211   0.39251   0.79975   0.00000  Uiso   1.00
C10    C     0.58879   0.83826   0.66335   0.00000  Uiso   1.00
C11    C     0.57504   0.86518   0.57592   0.00000  Uiso   1.00
C12    C     0.52309   0.85604   0.55340   0.00000  Uiso   1.00
C13    C     0.44398   0.85501   0.48342   0.00000  Uiso   1.00
C14    C     0.57551   0.77822   0.81774   0.00000  Uiso   1.00
C15    C     0.60346   0.88089   0.84728   0.00000  Uiso   1.00
C16    C     0.59484   0.93686   0.92681   0.00000  Uiso   1.00
C17    C     0.62440   0.02899   0.94142   0.00000  Uiso   1.00
C18    C     0.61761   0.69423   0.80075   0.00000  Uiso   1.00
C19    C     0.62088   0.59324   0.84116   0.00000  Uiso   1.00
C20    C     0.66235   0.52823   0.81660   0.00000  Uiso   1.00
C21    C     0.55194   0.80344   0.72607   0.00000  Uiso   1.00
C22    C     0.50000   0.79426   0.70368   0.00000  Uiso   1.00
C23    C     0.48618   0.82116   0.61623   0.00000  Uiso   1.00
H24    H     0.67202   0.86943   0.65344   0.00000  Uiso   1.00
H25    H     0.69840   0.03470   0.75050   0.00000  Uiso   1.00
H26    H     0.72443   0.69114   0.66486   0.00000  Uiso   1.00
H27    H     0.60356   0.89212   0.52740   0.00000  Uiso   1.00
H28    H     0.71140   0.20255   0.88579   0.00000  Uiso   1.00
H29    H     0.76628   0.47812   0.70518   0.00000  Uiso   1.00
H30    H     0.51142   0.90193   0.41532   0.00000  Uiso   1.00
H31    H     0.54683   0.75110   0.86657   0.00000  Uiso   1.00
H32    H     0.56633   0.90989   0.97533   0.00000  Uiso   1.00
H33    H     0.59236   0.56632   0.88969   0.00000  Uiso   1.00
H34    H     0.47150   0.76731   0.75223   0.00000  Uiso   1.00
H35    H     0.60421   0.10125   0.06827   0.00000  Uiso   1.00
H36    H     0.65909   0.37681   0.88766   0.00000  Uiso   1.00
H37    H     0.40422   0.80062   0.59781   0.00000  Uiso   1.00
O38    O     0.67291   0.25847   0.04475   0.00000  Uiso   1.00
O39    O     0.74490   0.30803   0.80778   0.00000  Uiso   1.00
O40    O     0.41052   0.86407   0.42750   0.00000  Uiso   1.00
N41    N     0.68349   0.15693   0.91380   0.00000  Uiso   1.00
N42    N     0.73480   0.47963   0.74496   0.00000  Uiso   1.00
N43    N     0.49653   0.87583   0.47396   0.00000  Uiso   1.00
N44    N     0.62581   0.10242   0.01199   0.00000  Uiso   1.00
N45    N     0.67713   0.42512   0.84315   0.00000  Uiso   1.00
N46    N     0.43885   0.82132   0.57215   0.00000  Uiso   1.00
C47    C     0.13756   0.79611   0.41870   0.00000  Uiso   1.00
C48    C     0.14156   0.86873   0.50134   0.00000  Uiso   1.00
C49    C     0.17362   0.95821   0.50997   0.00000  Uiso   1.00
C50    C     0.17161   0.01400   0.59096   0.00000  Uiso   1.00
C51    C     0.18285   0.13169   0.70867   0.00000  Uiso   1.00
C52    C     0.14893   0.68163   0.45142   0.00000  Uiso   1.00
C53    C     0.18718   0.61379   0.41807   0.00000  Uiso   1.00
C54    C     0.19138   0.51207   0.45703   0.00000  Uiso   1.00
C55    C     0.21403   0.33924   0.49721   0.00000  Uiso   1.00
C56    C     0.08069   0.79685   0.39139   0.00000  Uiso   1.00
C57    C     0.06156   0.82585   0.30755   0.00000  Uiso   1.00
C58    C     0.00830   0.82112   0.29596   0.00000  Uiso   1.00
C59    C     0.92500   0.82719   0.24292   0.00000  Uiso   1.00
C60    C     0.07700   0.73610   0.54717   0.00000  Uiso   1.00
C61    C     0.10867   0.83613   0.57112   0.00000  Uiso   1.00
C62    C     0.10661   0.89181   0.65211   0.00000  Uiso   1.00
C63    C     0.13866   0.98135   0.66086   0.00000  Uiso   1.00
C64    C     0.11604   0.64903   0.52120   0.00000  Uiso   1.00
C65    C     0.12017   0.54739   0.56021   0.00000  Uiso   1.00
C66    C     0.15842   0.47941   0.52694   0.00000  Uiso   1.00
C67    C     0.04780   0.76425   0.46117   0.00000  Uiso   1.00
C68    C     0.99456   0.75946   0.44970   0.00000  Uiso   1.00
C69    C     0.97535   0.78846   0.36586   0.00000  Uiso   1.00
H70    H     0.16318   0.82148   0.36438   0.00000  Uiso   1.00
H71    H     0.19908   0.98340   0.45596   0.00000  Uiso   1.00
H72    H     0.21263   0.63903   0.36407   0.00000  Uiso   1.00
H73    H     0.08703   0.85107   0.25357   0.00000  Uiso   1.00
H74    H     0.22438   0.14851   0.58828   0.00000  Uiso   1.00
H75    H     0.25295   0.42238   0.39451   0.00000  Uiso   1.00
H76    H     0.98811   0.86951   0.16149   0.00000  Uiso   1.00
H77    H     0.05139   0.71072   0.60150   0.00000  Uiso   1.00
H78    H     0.08115   0.86657   0.70610   0.00000  Uiso   1.00
H79    H     0.09471   0.52219   0.61421   0.00000  Uiso   1.00
H80    H     0.96911   0.73424   0.50371   0.00000  Uiso   1.00
H81    H     0.12867   0.05368   0.79130   0.00000  Uiso   1.00
H82    H     0.15724   0.32754   0.59753   0.00000  Uiso   1.00
H83    H     0.89240   0.77468   0.36452   0.00000  Uiso   1.00
O84    O     0.19813   0.20559   0.75433   0.00000  Uiso   1.00
O85    O     0.23562   0.25293   0.50009   0.00000  Uiso   1.00
O86    O     0.88814   0.83956   0.19439   0.00000  Uiso   1.00
N87    N     0.19776   0.10482   0.62170   0.00000  Uiso   1.00
N88    N     0.22448   0.42593   0.44054   0.00000  Uiso   1.00
N89    N     0.97687   0.84393   0.22269   0.00000  Uiso   1.00
N90    N     0.14626   0.05380   0.73095   0.00000  Uiso   1.00
N91    N     0.17298   0.37491   0.54979   0.00000  Uiso   1.00
N92    N     0.92537   0.79291   0.33193   0.00000  Uiso   1.00
C93    C     0.35666   0.15767   0.70227   0.00000  Uiso   1.00
C94    C     0.35970   0.08428   0.78456   0.00000  Uiso   1.00
C95    C     0.33011   0.99222   0.79905   0.00000  Uiso   1.00
C96    C     0.33869   0.93613   0.87859   0.00000  Uiso   1.00
C97    C     0.33778   0.81690   0.99684   0.00000  Uiso   1.00
C98    C     0.34555   0.27095   0.73803   0.00000  Uiso   1.00
C99    C     0.30407   0.33583   0.71340   0.00000  Uiso   1.00
C100   C     0.30074   0.43689   0.75377   0.00000  Uiso   1.00
C101   C     0.27789   0.60749   0.79975   0.00000  Uiso   1.00
C102   C     0.41121   0.16174   0.66335   0.00000  Uiso   1.00
C103   C     0.42496   0.13482   0.57592   0.00000  Uiso   1.00
C104   C     0.47691   0.14396   0.55340   0.00000  Uiso   1.00
C105   C     0.55602   0.14499   0.48342   0.00000  Uiso   1.00
C106   C     0.42449   0.22178   0.81774   0.00000  Uiso   1.00
C107   C     0.39654   0.11911   0.84728   0.00000  Uiso   1.00
C108   C     0.40516   0.06314   0.92681   0.00000  Uiso   1.00
C109   C     0.37560   0.97101   0.94142   0.00000  Uiso   1.00
C110   C     0.38239   0.30577   0.80075   0.00000  Uiso   1.00
C111   C     0.37912   0.40676   0.84116   0.00000  Uiso   1.00
C112   C     0.33765   0.47177   0.81660   0.00000  Uiso   1.00
C113   C     0.44806   0.19656   0.72607   0.00000  Uiso   1.00
C114   C     0.50000   0.20574   0.70368   0.00000  Uiso   1.00
C115   C     0.51382   0.17884   0.61623   0.00000  Uiso   1.00
H116   H     0.32798   0.13057   0.65344   0.00000  Uiso   1.00
H117   H     0.30160   0.96530   0.75050   0.00000  Uiso   1.00
H118   H     0.27557   0.30886   0.66486   0.00000  Uiso   1.00
H119   H     0.39644   0.10788   0.52740   0.00000  Uiso   1.00
H120   H     0.28860   0.79745   0.88579   0.00000  Uiso   1.00
H121   H     0.23372   0.52188   0.70518   0.00000  Uiso   1.00
H122   H     0.48858   0.09807   0.41532   0.00000  Uiso   1.00
H123   H     0.45317   0.24890   0.86657   0.00000  Uiso   1.00
H124   H     0.43367   0.09011   0.97533   0.00000  Uiso   1.00
H125   H     0.40764   0.43368   0.88969   0.00000  Uiso   1.00
H126   H     0.52850   0.23269   0.75223   0.00000  Uiso   1.00
H127   H     0.39579   0.89875   0.06827   0.00000  Uiso   1.00
H128   H     0.34091   0.62319   0.88766   0.00000  Uiso   1.00
H129   H     0.59578   0.19938   0.59781   0.00000  Uiso   1.00
O130   O     0.32709   0.74153   0.04475   0.00000  Uiso   1.00
O131   O     0.25510   0.69197   0.80778   0.00000  Uiso   1.00
O132   O     0.58948   0.13593   0.42750   0.00000  Uiso   1.00
N133   N     0.31651   0.84307   0.91380   0.00000  Uiso   1.00
N134   N     0.26520   0.52037   0.74496   0.00000  Uiso   1.00
N135   N     0.50347   0.12417   0.47396   0.00000  Uiso   1.00
N136   N     0.37419   0.89758   0.01199   0.00000  Uiso   1.00
N137   N     0.32287   0.57488   0.84315   0.00000  Uiso   1.00
N138   N     0.56115   0.17868   0.57215   0.00000  Uiso   1.00
C139   C     0.86244   0.20389   0.41870   0.00000  Uiso   1.00
C140   C     0.85844   0.13127   0.50134   0.00000  Uiso   1.00
C141   C     0.82638   0.04179   0.50997   0.00000  Uiso   1.00
C142   C     0.82839   0.98600   0.59096   0.00000  Uiso   1.00
C143   C     0.81715   0.86831   0.70867   0.00000  Uiso   1.00
C144   C     0.85107   0.31837   0.45142   0.00000  Uiso   1.00
C145   C     0.81282   0.38621   0.41807   0.00000  Uiso   1.00
C146   C     0.80862   0.48793   0.45703   0.00000  Uiso   1.00
C147   C     0.78597   0.66076   0.49721   0.00000  Uiso   1.00
C148   C     0.91931   0.20315   0.39139   0.00000  Uiso   1.00
C149   C     0.93844   0.17415   0.30755   0.00000  Uiso   1.00
C150   C     0.99170   0.17888   0.29596   0.00000  Uiso   1.00
C151   C     0.07500   0.17281   0.24292   0.00000  Uiso   1.00
C152   C     0.92300   0.26390   0.54717   0.00000  Uiso   1.00
C153   C     0.89133   0.16387   0.57112   0.00000  Uiso   1.00
C154   C     0.89339   0.10819   0.65211   0.00000  Uiso   1.00
C155   C     0.86134   0.01865   0.66086   0.00000  Uiso   1.00
C156   C     0.88396   0.35097   0.52120   0.00000  Uiso   1.00
C157   C     0.87983   0.45261   0.56021   0.00000  Uiso   1.00
C158   C     0.84158   0.52059   0.52694   0.00000  Uiso   1.00
C159   C     0.95220   0.23575   0.46117   0.00000  Uiso   1.00
C160   C     0.00544   0.24054   0.44970   0.00000  Uiso   1.00
C161   C     0.02465   0.21154   0.36586   0.00000  Uiso   1.00
H162   H     0.83682   0.17852   0.36438   0.00000  Uiso   1.00
H163   H     0.80092   0.01660   0.45596   0.00000  Uiso   1.00
H164   H     0.78737   0.36097   0.36407   0.00000  Uiso   1.00
H165   H     0.91297   0.14893   0.25357   0.00000  Uiso   1.00
H166   H     0.77562   0.85149   0.58828   0.00000  Uiso   1.00
H167   H     0.74705   0.57762   0.39451   0.00000  Uiso   1.00
H168   H     0.01189   0.13049   0.16149   0.00000  Uiso   1.00
H169   H     0.94861   0.28928   0.60150   0.00000  Uiso   1.00
H170   H     0.91885   0.13343   0.70610   0.00000  Uiso   1.00
H171   H     0.90529   0.47781   0.61421   0.00000  Uiso   1.00
H172   H     0.03089   0.26576   0.50371   0.00000  Uiso   1.00
H173   H     0.87133   0.94632   0.79130   0.00000  Uiso   1.00
H174   H     0.84276   0.67246   0.59753   0.00000  Uiso   1.00
H175   H     0.10760   0.22532   0.36452   0.00000  Uiso   1.00
O176   O     0.80187   0.79441   0.75433   0.00000  Uiso   1.00
O177   O     0.76438   0.74707   0.50009   0.00000  Uiso   1.00
O178   O     0.11186   0.16044   0.19439   0.00000  Uiso   1.00
N179   N     0.80224   0.89518   0.62170   0.00000  Uiso   1.00
N180   N     0.77552   0.57407   0.44054   0.00000  Uiso   1.00
N181   N     0.02313   0.15607   0.22269   0.00000  Uiso   1.00
N182   N     0.85374   0.94620   0.73095   0.00000  Uiso   1.00
N183   N     0.82702   0.62509   0.54979   0.00000  Uiso   1.00
N184   N     0.07463   0.20709   0.33193   0.00000  Uiso   1.00
C185   C     0.64334   0.65767   0.20227   0.00000  Uiso   1.00
C186   C     0.64030   0.58428   0.28456   0.00000  Uiso   1.00
C187   C     0.66989   0.49222   0.29905   0.00000  Uiso   1.00
C188   C     0.66131   0.43613   0.37859   0.00000  Uiso   1.00
C189   C     0.66222   0.31690   0.49684   0.00000  Uiso   1.00
C190   C     0.65445   0.77095   0.23803   0.00000  Uiso   1.00
C191   C     0.69593   0.83583   0.21340   0.00000  Uiso   1.00
C192   C     0.69926   0.93689   0.25377   0.00000  Uiso   1.00
C193   C     0.72211   0.10749   0.29975   0.00000  Uiso   1.00
C194   C     0.58879   0.66174   0.16335   0.00000  Uiso   1.00
C195   C     0.57504   0.63482   0.07592   0.00000  Uiso   1.00
C196   C     0.52309   0.64396   0.05340   0.00000  Uiso   1.00
C197   C     0.44398   0.64499   0.98342   0.00000  Uiso   1.00
C198   C     0.57551   0.72178   0.31774   0.00000  Uiso   1.00
C199   C     0.60346   0.61911   0.34728   0.00000  Uiso   1.00
C200   C     0.59484   0.56314   0.42681   0.00000  Uiso   1.00
C201   C     0.62440   0.47101   0.44142   0.00000  Uiso   1.00
C202   C     0.61761   0.80577   0.30075   0.00000  Uiso   1.00
C203   C     0.62088   0.90676   0.34116   0.00000  Uiso   1.00
C204   C     0.66235   0.97177   0.31660   0.00000  Uiso   1.00
C205   C     0.55194   0.69656   0.22607   0.00000  Uiso   1.00
C206   C     0.50000   0.70574   0.20368   0.00000  Uiso   1.00
C207   C     0.48618   0.67884   0.11623   0.00000  Uiso   1.00
H208   H     0.67202   0.63057   0.15344   0.00000  Uiso   1.00
H209   H     0.69840   0.46530   0.25050   0.00000  Uiso   1.00
H210   H     0.72443   0.80886   0.16486   0.00000  Uiso   1.00
H211   H     0.60356   0.60788   0.02740   0.00000  Uiso   1.00
H212   H     0.71140   0.29745   0.38579   0.00000  Uiso   1.00
H213   H     0.76628   0.02188   0.20518   0.00000  Uiso   1.00
H214   H     0.51142   0.59807   0.91532   0.00000  Uiso   1.00
H215   H     0.54683   0.74890   0.36657   0.00000  Uiso   1.00
H216   H     0.56633   0.59011   0.47533   0.00000  Uiso   1.00
H217   H     0.59236   0.93368   0.38969   0.00000  Uiso   1.00
H218   H     0.47150   0.73269   0.25223   0.00000  Uiso   1.00
H219   H     0.60421   0.39875   0.56827   0.00000  Uiso   1.00
H220   H     0.65909   0.12319   0.38766   0.00000  Uiso   1.00
H221   H     0.40422   0.69938   0.09781   0.00000  Uiso   1.00
O222   O     0.67291   0.24153   0.54475   0.00000  Uiso   1.00
O223   O     0.74490   0.19197   0.30778   0.00000  Uiso   1.00
O224   O     0.41052   0.63593   0.92750   0.00000  Uiso   1.00
N225   N     0.68349   0.34307   0.41380   0.00000  Uiso   1.00
N226   N     0.73480   0.02037   0.24496   0.00000  Uiso   1.00
N227   N     0.49653   0.62417   0.97396   0.00000  Uiso   1.00
N228   N     0.62581   0.39758   0.51199   0.00000  Uiso   1.00
N229   N     0.67713   0.07488   0.34315   0.00000  Uiso   1.00
N230   N     0.43885   0.67868   0.07215   0.00000  Uiso   1.00
C231   C     0.13756   0.70389   0.91870   0.00000  Uiso   1.00
C232   C     0.14156   0.63127   0.00134   0.00000  Uiso   1.00
C233   C     0.17362   0.54179   0.00997   0.00000  Uiso   1.00
C234   C     0.17161   0.48600   0.09096   0.00000  Uiso   1.00
C235   C     0.18285   0.36831   0.20867   0.00000  Uiso   1.00
C236   C     0.14893   0.81837   0.95142   0.00000  Uiso   1.00
C237   C     0.18718   0.88621   0.91807   0.00000  Uiso   1.00
C238   C     0.19138   0.98793   0.95703   0.00000  Uiso   1.00
C239   C     0.21403   0.16076   0.99721   0.00000  Uiso   1.00
C240   C     0.08069   0.70315   0.89139   0.00000  Uiso   1.00
C241   C     0.06156   0.67415   0.80755   0.00000  Uiso   1.00
C242   C     0.00830   0.67888   0.79596   0.00000  Uiso   1.00
C243   C     0.92500   0.67281   0.74292   0.00000  Uiso   1.00
C244   C     0.07700   0.76390   0.04717   0.00000  Uiso   1.00
C245   C     0.10867   0.66387   0.07112   0.00000  Uiso   1.00
C246   C     0.10661   0.60819   0.15211   0.00000  Uiso   1.00
C247   C     0.13866   0.51865   0.16086   0.00000  Uiso   1.00
C248   C     0.11604   0.85097   0.02120   0.00000  Uiso   1.00
C249   C     0.12017   0.95261   0.06021   0.00000  Uiso   1.00
C250   C     0.15842   0.02059   0.02694   0.00000  Uiso   1.00
C251   C     0.04780   0.73575   0.96117   0.00000  Uiso   1.00
C252   C     0.99456   0.74054   0.94970   0.00000  Uiso   1.00
C253   C     0.97535   0.71154   0.86586   0.00000  Uiso   1.00
H254   H     0.16318   0.67852   0.86438   0.00000  Uiso   1.00
H255   H     0.19908   0.51660   0.95596   0.00000  Uiso   1.00
H256   H     0.21263   0.86097   0.86407   0.00000  Uiso   1.00
H257   H     0.08703   0.64893   0.75357   0.00000  Uiso   1.00
H258   H     0.22438   0.35149   0.08828   0.00000  Uiso   1.00
H259   H     0.25295   0.07762   0.89451   0.00000  Uiso   1.00
H260   H     0.98811   0.63049   0.66149   0.00000  Uiso   1.00
H261   H     0.05139   0.78928   0.10150   0.00000  Uiso   1.00
H262   H     0.08115   0.63343   0.20610   0.00000  Uiso   1.00
H263   H     0.09471   0.97781   0.11421   0.00000  Uiso   1.00
H264   H     0.96911   0.76576   0.00371   0.00000  Uiso   1.00
H265   H     0.12867   0.44632   0.29130   0.00000  Uiso   1.00
H266   H     0.15724   0.17246   0.09753   0.00000  Uiso   1.00
H267   H     0.89240   0.72532   0.86452   0.00000  Uiso   1.00
O268   O     0.19813   0.29441   0.25433   0.00000  Uiso   1.00
O269   O     0.23562   0.24707   0.00009   0.00000  Uiso   1.00
O270   O     0.88814   0.66044   0.69439   0.00000  Uiso   1.00
N271   N     0.19776   0.39518   0.12170   0.00000  Uiso   1.00
N272   N     0.22448   0.07407   0.94054   0.00000  Uiso   1.00
N273   N     0.97687   0.65607   0.72269   0.00000  Uiso   1.00
N274   N     0.14626   0.44620   0.23095   0.00000  Uiso   1.00
N275   N     0.17298   0.12509   0.04979   0.00000  Uiso   1.00
N276   N     0.92537   0.70709   0.83193   0.00000  Uiso   1.00
C277   C     0.35666   0.34233   0.20227   0.00000  Uiso   1.00
C278   C     0.35970   0.41572   0.28456   0.00000  Uiso   1.00
C279   C     0.33011   0.50778   0.29905   0.00000  Uiso   1.00
C280   C     0.33869   0.56387   0.37859   0.00000  Uiso   1.00
C281   C     0.33778   0.68310   0.49684   0.00000  Uiso   1.00
C282   C     0.34555   0.22905   0.23803   0.00000  Uiso   1.00
C283   C     0.30407   0.16417   0.21340   0.00000  Uiso   1.00
C284   C     0.30074   0.06311   0.25377   0.00000  Uiso   1.00
C285   C     0.27789   0.89251   0.29975   0.00000  Uiso   1.00
C286   C     0.41121   0.33826   0.16335   0.00000  Uiso   1.00
C287   C     0.42496   0.36518   0.07592   0.00000  Uiso   1.00
C288   C     0.47691   0.35604   0.05340   0.00000  Uiso   1.00
C289   C     0.55602   0.35501   0.98342   0.00000  Uiso   1.00
C290   C     0.42449   0.27822   0.31774   0.00000  Uiso   1.00
C291   C     0.39654   0.38089   0.34728   0.00000  Uiso   1.00
C292   C     0.40516   0.43686   0.42681   0.00000  Uiso   1.00
C293   C     0.37560   0.52899   0.44142   0.00000  Uiso   1.00
C294   C     0.38239   0.19423   0.30075   0.00000  Uiso   1.00
C295   C     0.37912   0.09324   0.34116   0.00000  Uiso   1.00
C296   C     0.33765   0.02823   0.31660   0.00000  Uiso   1.00
C297   C     0.44806   0.30344   0.22607   0.00000  Uiso   1.00
C298   C     0.50000   0.29426   0.20368   0.00000  Uiso   1.00
C299   C     0.51382   0.32116   0.11623   0.00000  Uiso   1.00
H300   H     0.32798   0.36943   0.15344   0.00000  Uiso   1.00
H301   H     0.30160   0.53470   0.25050   0.00000  Uiso   1.00
H302   H     0.27557   0.19114   0.16486   0.00000  Uiso   1.00
H303   H     0.39644   0.39212   0.02740   0.00000  Uiso   1.00
H304   H     0.28860   0.70255   0.38579   0.00000  Uiso   1.00
H305   H     0.23372   0.97812   0.20518   0.00000  Uiso   1.00
H306   H     0.48858   0.40193   0.91532   0.00000  Uiso   1.00
H307   H     0.45317   0.25110   0.36657   0.00000  Uiso   1.00
H308   H     0.43367   0.40989   0.47533   0.00000  Uiso   1.00
H309   H     0.40764   0.06632   0.38969   0.00000  Uiso   1.00
H310   H     0.52850   0.26731   0.25223   0.00000  Uiso   1.00
H311   H     0.39579   0.60125   0.56827   0.00000  Uiso   1.00
H312   H     0.34091   0.87681   0.38766   0.00000  Uiso   1.00
H313   H     0.59578   0.30062   0.09781   0.00000  Uiso   1.00
O314   O     0.32709   0.75847   0.54475   0.00000  Uiso   1.00
O315   O     0.25510   0.80803   0.30778   0.00000  Uiso   1.00
O316   O     0.58948   0.36407   0.92750   0.00000  Uiso   1.00
N317   N     0.31651   0.65693   0.41380   0.00000  Uiso   1.00
N318   N     0.26520   0.97963   0.24496   0.00000  Uiso   1.00
N319   N     0.50347   0.37583   0.97396   0.00000  Uiso   1.00
N320   N     0.37419   0.60242   0.51199   0.00000  Uiso   1.00
N321   N     0.32287   0.92512   0.34315   0.00000  Uiso   1.00
N322   N     0.56115   0.32132   0.07215   0.00000  Uiso   1.00
C323   C     0.86244   0.29611   0.91870   0.00000  Uiso   1.00
C324   C     0.85844   0.36873   0.00134   0.00000  Uiso   1.00
C325   C     0.82638   0.45821   0.00997   0.00000  Uiso   1.00
C326   C     0.82839   0.51400   0.09096   0.00000  Uiso   1.00
C327   C     0.81715   0.63169   0.20867   0.00000  Uiso   1.00
C328   C     0.85107   0.18163   0.95142   0.00000  Uiso   1.00
C329   C     0.81282   0.11379   0.91807   0.00000  Uiso   1.00
C330   C     0.80862   0.01207   0.95703   0.00000  Uiso   1.00
C331   C     0.78597   0.83924   0.99721   0.00000  Uiso   1.00
C332   C     0.91931   0.29685   0.89139   0.00000  Uiso   1.00
C333   C     0.93844   0.32585   0.80755   0.00000  Uiso   1.00
C334   C     0.99170   0.32112   0.79596   0.00000  Uiso   1.00
C335   C     0.07500   0.32719   0.74292   0.00000  Uiso   1.00
C336   C     0.92300   0.23610   0.04717   0.00000  Uiso   1.00
C337   C     0.89133   0.33613   0.07112   0.00000  Uiso   1.00
C338   C     0.89339   0.39181   0.15211   0.00000  Uiso   1.00
C339   C     0.86134   0.48135   0.16086   0.00000  Uiso   1.00
C340   C     0.88396   0.14903   0.02120   0.00000  Uiso   1.00
C341   C     0.87983   0.04739   0.06021   0.00000  Uiso   1.00
C342   C     0.84158   0.97941   0.02694   0.00000  Uiso   1.00
C343   C     0.95220   0.26425   0.96117   0.00000  Uiso   1.00
C344   C     0.00544   0.25946   0.94970   0.00000  Uiso   1.00
C345   C     0.02465   0.28846   0.86586   0.00000  Uiso   1.00
H346   H     0.83682   0.32148   0.86438   0.00000  Uiso   1.00
H347   H     0.80092   0.48340   0.95596   0.00000  Uiso   1.00
H348   H     0.78737   0.13903   0.86407   0.00000  Uiso   1.00
H349   H     0.91297   0.35107   0.75357   0.00000  Uiso   1.00
H350   H     0.77562   0.64851   0.08828   0.00000  Uiso   1.00
H351   H     0.74705   0.92238   0.89451   0.00000  Uiso   1.00
H352   H     0.01189   0.36951   0.66149   0.00000  Uiso   1.00
H353   H     0.94861   0.21072   0.10150   0.00000  Uiso   1.00
H354   H     0.91885   0.36657   0.20610   0.00000  Uiso   1.00
H355   H     0.90529   0.02219   0.11421   0.00000  Uiso   1.00
H356   H     0.03089   0.23424   0.00371   0.00000  Uiso   1.00
H357   H     0.87133   0.55368   0.29130   0.00000  Uiso   1.00
H358   H     0.84276   0.82754   0.09753   0.00000  Uiso   1.00
H359   H     0.10760   0.27468   0.86452   0.00000  Uiso   1.00
O360   O     0.80187   0.70559   0.25433   0.00000  Uiso   1.00
O361   O     0.76438   0.75293   0.00009   0.00000  Uiso   1.00
O362   O     0.11186   0.33956   0.69439   0.00000  Uiso   1.00
N363   N     0.80224   0.60482   0.12170   0.00000  Uiso   1.00
N364   N     0.77552   0.92593   0.94054   0.00000  Uiso   1.00
N365   N     0.02313   0.34393   0.72269   0.00000  Uiso   1.00
N366   N     0.85374   0.55380   0.23095   0.00000  Uiso   1.00
N367   N     0.82702   0.87491   0.04979   0.00000  Uiso   1.00
N368   N     0.07463   0.29291   0.83193   0.00000  Uiso   1.00
