data_job_07017
_audit_creation_date              2018-12-19
_audit_creation_method            'Materials Studio'
_symmetry_space_group_name_H-M    'P1'
_symmetry_Int_Tables_number       1
_symmetry_cell_setting            triclinic
loop_
_symmetry_equiv_pos_as_xyz
  x,y,z
_cell_length_a                    18.8171
_cell_length_b                    19.4210
_cell_length_c                    26.8897
_cell_angle_alpha                 106.4039
_cell_angle_beta                  76.4852
_cell_angle_gamma                 116.9594
loop_
_atom_site_label
_atom_site_type_symbol
_atom_site_fract_x
_atom_site_fract_y
_atom_site_fract_z
_atom_site_U_iso_or_equiv
_atom_site_adp_type
_atom_site_occupancy
C1     C     0.10172   0.49544   0.08896   0.00000  Uiso   1.00
C2     C     0.10541   0.44879   0.03304   0.00000  Uiso   1.00
C3     C     0.16484   0.47442   0.99236   0.00000  Uiso   1.00
C4     C     0.15737   0.42299   0.94409   0.00000  Uiso   1.00
C5     C     0.17290   0.36189   0.85836   0.00000  Uiso   1.00
C6     C     0.02059   0.50024   0.10098   0.00000  Uiso   1.00
C7     C     0.00870   0.56912   0.11743   0.00000  Uiso   1.00
C8     C     0.92983   0.56100   0.12636   0.00000  Uiso   1.00
C9     C     0.81367   0.57976   0.14614   0.00000  Uiso   1.00
C10    C     0.09766   0.44348   0.12369   0.00000  Uiso   1.00
C11    C     0.15057   0.46465   0.15924   0.00000  Uiso   1.00
C12    C     0.13658   0.40875   0.18730   0.00000  Uiso   1.00
C13    C     0.14010   0.33939   0.24235   0.00000  Uiso   1.00
C14    C     0.98279   0.35854   0.07558   0.00000  Uiso   1.00
C15    C     0.04081   0.37443   0.02577   0.00000  Uiso   1.00
C16    C     0.03325   0.32296   0.97755   0.00000  Uiso   1.00
C17    C     0.09266   0.34850   0.93681   0.00000  Uiso   1.00
C18    C     0.95599   0.42588   0.09371   0.00000  Uiso   1.00
C19    C     0.87712   0.41766   0.10262   0.00000  Uiso   1.00
C20    C     0.86511   0.48651   0.11908   0.00000  Uiso   1.00
C21    C     0.03307   0.36912   0.11642   0.00000  Uiso   1.00
C22    C     0.01899   0.31318   0.14443   0.00000  Uiso   1.00
C23    C     0.07186   0.33426   0.18002   0.00000  Uiso   1.00
H24    H     0.15201   0.55333   0.09462   0.00000  Uiso   1.00
H25    H     0.21482   0.53197   0.99800   0.00000  Uiso   1.00
H26    H     0.05871   0.62665   0.12305   0.00000  Uiso   1.00
H27    H     0.20056   0.52219   0.16486   0.00000  Uiso   1.00
H28    H     0.25594   0.47550   0.88766   0.00000  Uiso   1.00
H29    H     0.92677   0.67515   0.15137   0.00000  Uiso   1.00
H30    H     0.22589   0.45488   0.23952   0.00000  Uiso   1.00
H31    H     0.93249   0.30065   0.06992   0.00000  Uiso   1.00
H32    H     0.98325   0.26542   0.97194   0.00000  Uiso   1.00
H33    H     0.82714   0.36011   0.09700   0.00000  Uiso   1.00
H34    H     0.96899   0.25565   0.13880   0.00000  Uiso   1.00
H35    H     0.06799   0.25917   0.86651   0.00000  Uiso   1.00
H36    H     0.73882   0.45881   0.13022   0.00000  Uiso   1.00
H37    H     0.03794   0.23854   0.21837   0.00000  Uiso   1.00
O38    O     0.19930   0.34873   0.81308   0.00000  Uiso   1.00
O39    O     0.76745   0.61066   0.15906   0.00000  Uiso   1.00
O40    O     0.15988   0.32166   0.27471   0.00000  Uiso   1.00
N41    N     0.20475   0.42942   0.89614   0.00000  Uiso   1.00
N42    N     0.89700   0.61608   0.14268   0.00000  Uiso   1.00
N43    N     0.17663   0.41015   0.22510   0.00000  Uiso   1.00
N44    N     0.10362   0.31301   0.88475   0.00000  Uiso   1.00
N45    N     0.79586   0.49967   0.13130   0.00000  Uiso   1.00
N46    N     0.07550   0.29374   0.21372   0.00000  Uiso   1.00
C47    C     0.25970   0.07511   0.06513   0.00000  Uiso   1.00
C48    C     0.22026   0.10696   0.03912   0.00000  Uiso   1.00
C49    C     0.19988   0.07828   0.98859   0.00000  Uiso   1.00
C50    C     0.16429   0.11550   0.97207   0.00000  Uiso   1.00
C51    C     0.10531   0.15530   0.92668   0.00000  Uiso   1.00
C52    C     0.33625   0.14499   0.08281   0.00000  Uiso   1.00
C53    C     0.41338   0.14826   0.06901   0.00000  Uiso   1.00
C54    C     0.47542   0.21749   0.08927   0.00000  Uiso   1.00
C55    C     0.59651   0.31630   0.11174   0.00000  Uiso   1.00
C56    C     0.20414   0.05365   0.11492   0.00000  Uiso   1.00
C57    C     0.17021   0.98014   0.12813   0.00000  Uiso   1.00
C58    C     0.12105   0.97248   0.17543   0.00000  Uiso   1.00
C59    C     0.03701   0.92948   0.24775   0.00000  Uiso   1.00
C60    C     0.23275   0.19222   0.12564   0.00000  Uiso   1.00
C61    C     0.20562   0.17057   0.07199   0.00000  Uiso   1.00
C62    C     0.17005   0.20784   0.05554   0.00000  Uiso   1.00
C63    C     0.14962   0.17921   0.00500   0.00000  Uiso   1.00
C64    C     0.32161   0.20859   0.11567   0.00000  Uiso   1.00
C65    C     0.38355   0.27783   0.13596   0.00000  Uiso   1.00
C66    C     0.46076   0.28121   0.12220   0.00000  Uiso   1.00
C67    C     0.18949   0.11726   0.14779   0.00000  Uiso   1.00
C68    C     0.14038   0.10971   0.19508   0.00000  Uiso   1.00
C69    C     0.10638   0.03620   0.20836   0.00000  Uiso   1.00
H70    H     0.27111   0.02560   0.03954   0.00000  Uiso   1.00
H71    H     0.21123   0.02905   0.96317   0.00000  Uiso   1.00
H72    H     0.42469   0.09903   0.04358   0.00000  Uiso   1.00
H73    H     0.18155   0.93093   0.10268   0.00000  Uiso   1.00
H74    H     0.13840   0.06096   0.89298   0.00000  Uiso   1.00
H75    H     0.58850   0.20849   0.06255   0.00000  Uiso   1.00
H76    H     0.07581   0.85403   0.18719   0.00000  Uiso   1.00
H77    H     0.22135   0.24174   0.15123   0.00000  Uiso   1.00
H78    H     0.15873   0.25706   0.08099   0.00000  Uiso   1.00
H79    H     0.37220   0.32704   0.16140   0.00000  Uiso   1.00
H80    H     0.12906   0.15894   0.22050   0.00000  Uiso   1.00
H81    H     0.09580   0.24602   0.98861   0.00000  Uiso   1.00
H82    H     0.54590   0.39355   0.15818   0.00000  Uiso   1.00
H83    H     0.03320   0.03909   0.28281   0.00000  Uiso   1.00
O84    O     0.07683   0.15969   0.89257   0.00000  Uiso   1.00
O85    O     0.66734   0.35323   0.11504   0.00000  Uiso   1.00
O86    O     0.99470   0.88819   0.27856   0.00000  Uiso   1.00
N87    N     0.13695   0.10240   0.92513   0.00000  Uiso   1.00
N88    N     0.55777   0.24034   0.08366   0.00000  Uiso   1.00
N89    N     0.07846   0.90895   0.20019   0.00000  Uiso   1.00
N90    N     0.11403   0.20198   0.97659   0.00000  Uiso   1.00
N91    N     0.53485   0.33992   0.13512   0.00000  Uiso   1.00
N92    N     0.05554   0.00853   0.25165   0.00000  Uiso   1.00
C93    C     0.53956   0.80999   0.13374   0.00000  Uiso   1.00
C94    C     0.61939   0.88240   0.13191   0.00000  Uiso   1.00
C95    C     0.66261   0.91226   0.08763   0.00000  Uiso   1.00
C96    C     0.73430   0.97903   0.09410   0.00000  Uiso   1.00
C97    C     0.85410   0.08602   0.08380   0.00000  Uiso   1.00
C98    C     0.55285   0.75458   0.15730   0.00000  Uiso   1.00
C99    C     0.54013   0.67697   0.13436   0.00000  Uiso   1.00
C100   C     0.55580   0.63614   0.16222   0.00000  Uiso   1.00
C101   C     0.57225   0.54468   0.19136   0.00000  Uiso   1.00
C102   C     0.48102   0.83785   0.17385   0.00000  Uiso   1.00
C103   C     0.40788   0.83024   0.16483   0.00000  Uiso   1.00
C104   C     0.36306   0.85950   0.20663   0.00000  Uiso   1.00
C105   C     0.26797   0.89733   0.26146   0.00000  Uiso   1.00
C106   C     0.59001   0.87545   0.22400   0.00000  Uiso   1.00
C107   C     0.64679   0.91795   0.18094   0.00000  Uiso   1.00
C108   C     0.71843   0.98469   0.18749   0.00000  Uiso   1.00
C109   C     0.76175   0.01465   0.14321   0.00000  Uiso   1.00
C110   C     0.58025   0.79013   0.20633   0.00000  Uiso   1.00
C111   C     0.59594   0.74940   0.23422   0.00000  Uiso   1.00
C112   C     0.58325   0.67176   0.21133   0.00000  Uiso   1.00
C113   C     0.50842   0.87341   0.22288   0.00000  Uiso   1.00
C114   C     0.46370   0.90267   0.26469   0.00000  Uiso   1.00
C115   C     0.39051   0.89512   0.25574   0.00000  Uiso   1.00
H116   H     0.51823   0.78231   0.09557   0.00000  Uiso   1.00
H117   H     0.64139   0.88473   0.04969   0.00000  Uiso   1.00
H118   H     0.51892   0.64947   0.09643   0.00000  Uiso   1.00
H119   H     0.38670   0.80272   0.12689   0.00000  Uiso   1.00
H120   H     0.79004   0.01394   0.02044   0.00000  Uiso   1.00
H121   H     0.53177   0.51789   0.11899   0.00000  Uiso   1.00
H122   H     0.25295   0.84104   0.18323   0.00000  Uiso   1.00
H123   H     0.61134   0.90314   0.26217   0.00000  Uiso   1.00
H124   H     0.73962   0.01219   0.22543   0.00000  Uiso   1.00
H125   H     0.61714   0.77694   0.27216   0.00000  Uiso   1.00
H126   H     0.48492   0.93019   0.30263   0.00000  Uiso   1.00
H127   H     0.86977   0.11740   0.16308   0.00000  Uiso   1.00
H128   H     0.61149   0.62134   0.26163   0.00000  Uiso   1.00
H129   H     0.33267   0.94450   0.32587   0.00000  Uiso   1.00
O130   O     0.91262   0.13521   0.06458   0.00000  Uiso   1.00
O131   O     0.57377   0.48441   0.19388   0.00000  Uiso   1.00
O132   O     0.20796   0.90838   0.27816   0.00000  Uiso   1.00
N133   N     0.79119   0.02333   0.05905   0.00000  Uiso   1.00
N134   N     0.54974   0.55956   0.15119   0.00000  Uiso   1.00
N135   N     0.28905   0.86166   0.21125   0.00000  Uiso   1.00
N136   N     0.83409   0.07900   0.13580   0.00000  Uiso   1.00
N137   N     0.59264   0.61523   0.22794   0.00000  Uiso   1.00
N138   N     0.33195   0.91733   0.28800   0.00000  Uiso   1.00
C139   C     0.50751   0.34658   0.56652   0.00000  Uiso   1.00
C140   C     0.47309   0.37237   0.53268   0.00000  Uiso   1.00
C141   C     0.47711   0.35132   0.47863   0.00000  Uiso   1.00
C142   C     0.44194   0.38104   0.45494   0.00000  Uiso   1.00
C143   C     0.39421   0.41360   0.39793   0.00000  Uiso   1.00
C144   C     0.43748   0.30688   0.60562   0.00000  Uiso   1.00
C145   C     0.41157   0.23078   0.61290   0.00000  Uiso   1.00
C146   C     0.34643   0.20537   0.65062   0.00000  Uiso   1.00
C147   C     0.24345   0.13628   0.70688   0.00000  Uiso   1.00
C148   C     0.56426   0.42229   0.59828   0.00000  Uiso   1.00
C149   C     0.64494   0.44321   0.59942   0.00000  Uiso   1.00
C150   C     0.68654   0.51496   0.63097   0.00000  Uiso   1.00
C151   C     0.78040   0.62505   0.67585   0.00000  Uiso   1.00
C152   C     0.43792   0.43678   0.62055   0.00000  Uiso   1.00
C153   C     0.43529   0.42136   0.56203   0.00000  Uiso   1.00
C154   C     0.40011   0.45112   0.53841   0.00000  Uiso   1.00
C155   C     0.40407   0.43012   0.48434   0.00000  Uiso   1.00
C156   C     0.39968   0.35587   0.63496   0.00000  Uiso   1.00
C157   C     0.33457   0.33057   0.67268   0.00000  Uiso   1.00
C158   C     0.30856   0.25445   0.68002   0.00000  Uiso   1.00
C159   C     0.52646   0.47128   0.62763   0.00000  Uiso   1.00
C160   C     0.56794   0.54301   0.65919   0.00000  Uiso   1.00
C161   C     0.64867   0.56404   0.66037   0.00000  Uiso   1.00
H162   H     0.53694   0.30844   0.54367   0.00000  Uiso   1.00
H163   H     0.50636   0.31340   0.45593   0.00000  Uiso   1.00
H164   H     0.44084   0.19288   0.59019   0.00000  Uiso   1.00
H165   H     0.67417   0.40529   0.57670   0.00000  Uiso   1.00
H166   H     0.45576   0.34049   0.37161   0.00000  Uiso   1.00
H167   H     0.31762   0.08638   0.65470   0.00000  Uiso   1.00
H168   H     0.80965   0.53427   0.62626   0.00000  Uiso   1.00
H169   H     0.40849   0.47492   0.64340   0.00000  Uiso   1.00
H170   H     0.37086   0.48903   0.56113   0.00000  Uiso   1.00
H171   H     0.30533   0.36850   0.69539   0.00000  Uiso   1.00
H172   H     0.53867   0.58090   0.68190   0.00000  Uiso   1.00
H173   H     0.34578   0.48303   0.45699   0.00000  Uiso   1.00
H174   H     0.20764   0.22891   0.74009   0.00000  Uiso   1.00
H175   H     0.69967   0.67681   0.71165   0.00000  Uiso   1.00
O176   O     0.37831   0.41802   0.35838   0.00000  Uiso   1.00
O177   O     0.19709   0.08463   0.72980   0.00000  Uiso   1.00
O178   O     0.84262   0.67225   0.69249   0.00000  Uiso   1.00
N179   N     0.43506   0.37212   0.40299   0.00000  Uiso   1.00
N180   N     0.30589   0.13453   0.66766   0.00000  Uiso   1.00
N181   N     0.76590   0.55326   0.64109   0.00000  Uiso   1.00
N182   N     0.37588   0.44882   0.44893   0.00000  Uiso   1.00
N183   N     0.24671   0.21123   0.71361   0.00000  Uiso   1.00
N184   N     0.70672   0.62996   0.68703   0.00000  Uiso   1.00
C185   C     0.74741   0.06928   0.55375   0.00000  Uiso   1.00
C186   C     0.70755   0.98603   0.52200   0.00000  Uiso   1.00
C187   C     0.69986   0.96657   0.46916   0.00000  Uiso   1.00
C188   C     0.66148   0.88701   0.44733   0.00000  Uiso   1.00
C189   C     0.60413   0.76656   0.39347   0.00000  Uiso   1.00
C190   C     0.81295   0.06931   0.57809   0.00000  Uiso   1.00
C191   C     0.89386   0.11989   0.57241   0.00000  Uiso   1.00
C192   C     0.94419   0.11044   0.59780   0.00000  Uiso   1.00
C193   C     0.05046   0.11933   0.63105   0.00000  Uiso   1.00
C194   C     0.68441   0.07937   0.59898   0.00000  Uiso   1.00
C195   C     0.65726   0.13842   0.61088   0.00000  Uiso   1.00
C196   C     0.59939   0.13745   0.65387   0.00000  Uiso   1.00
C197   C     0.50609   0.16196   0.71955   0.00000  Uiso   1.00
C198   C     0.69294   0.96258   0.60894   0.00000  Uiso   1.00
C199   C     0.67797   0.92808   0.55198   0.00000  Uiso   1.00
C200   C     0.63959   0.84852   0.53023   0.00000  Uiso   1.00
C201   C     0.63184   0.82895   0.47737   0.00000  Uiso   1.00
C202   C     0.78337   0.01136   0.60807   0.00000  Uiso   1.00
C203   C     0.83359   0.00184   0.63348   0.00000  Uiso   1.00
C204   C     0.91456   0.05238   0.62784   0.00000  Uiso   1.00
C205   C     0.65482   0.02142   0.62896   0.00000  Uiso   1.00
C206   C     0.59699   0.02037   0.67194   0.00000  Uiso   1.00
C207   C     0.56976   0.07940   0.68390   0.00000  Uiso   1.00
H208   H     0.77045   0.11440   0.53041   0.00000  Uiso   1.00
H209   H     0.72277   0.01144   0.44597   0.00000  Uiso   1.00
H210   H     0.91673   0.16473   0.54921   0.00000  Uiso   1.00
H211   H     0.68017   0.18326   0.58767   0.00000  Uiso   1.00
H212   H     0.65688   0.87173   0.36557   0.00000  Uiso   1.00
H213   H     0.06586   0.19498   0.58328   0.00000  Uiso   1.00
H214   H     0.56703   0.23404   0.66437   0.00000  Uiso   1.00
H215   H     0.66991   0.91746   0.63229   0.00000  Uiso   1.00
H216   H     0.61670   0.80369   0.55344   0.00000  Uiso   1.00
H217   H     0.81068   0.95699   0.65668   0.00000  Uiso   1.00
H218   H     0.57411   0.97551   0.69514   0.00000  Uiso   1.00
H219   H     0.57080   0.70311   0.45280   0.00000  Uiso   1.00
H220   H     0.97979   0.02637   0.67050   0.00000  Uiso   1.00
H221   H     0.48095   0.06543   0.75160   0.00000  Uiso   1.00
O222   O     0.58068   0.71613   0.35548   0.00000  Uiso   1.00
O223   O     0.11725   0.14024   0.64110   0.00000  Uiso   1.00
O224   O     0.46278   0.19148   0.74749   0.00000  Uiso   1.00
N225   N     0.64391   0.84766   0.39693   0.00000  Uiso   1.00
N226   N     0.02629   0.14987   0.60046   0.00000  Uiso   1.00
N227   N     0.55993   0.18641   0.67628   0.00000  Uiso   1.00
N228   N     0.59759   0.75693   0.44386   0.00000  Uiso   1.00
N229   N     0.97997   0.05914   0.64739   0.00000  Uiso   1.00
N230   N     0.51361   0.09568   0.72322   0.00000  Uiso   1.00
C231   C     0.11925   0.64611   0.68794   0.00000  Uiso   1.00
C232   C     0.20479   0.66556   0.66064   0.00000  Uiso   1.00
C233   C     0.22715   0.62257   0.61403   0.00000  Uiso   1.00
C234   C     0.30845   0.65008   0.59549   0.00000  Uiso   1.00
C235   C     0.43262   0.66995   0.54896   0.00000  Uiso   1.00
C236   C     0.10438   0.71930   0.69452   0.00000  Uiso   1.00
C237   C     0.04231   0.72149   0.67640   0.00000  Uiso   1.00
C238   C     0.03909   0.79424   0.68637   0.00000  Uiso   1.00
C239   C     0.00734   0.89753   0.69247   0.00000  Uiso   1.00
C240   C     0.12028   0.63934   0.74287   0.00000  Uiso   1.00
C241   C     0.07155   0.57431   0.76542   0.00000  Uiso   1.00
C242   C     0.08170   0.57975   0.81611   0.00000  Uiso   1.00
C243   C     0.07464   0.55889   0.89730   0.00000  Uiso   1.00
C244   C     0.22388   0.77141   0.73788   0.00000  Uiso   1.00
C245   C     0.26162   0.73362   0.68777   0.00000  Uiso   1.00
C246   C     0.34291   0.76120   0.66929   0.00000  Uiso   1.00
C247   C     0.36539   0.71826   0.62266   0.00000  Uiso   1.00
C248   C     0.16121   0.78736   0.72164   0.00000  Uiso   1.00
C249   C     0.15808   0.86012   0.73165   0.00000  Uiso   1.00
C250   C     0.09602   0.86242   0.71354   0.00000  Uiso   1.00
C251   C     0.17711   0.70740   0.77000   0.00000  Uiso   1.00
C252   C     0.18733   0.71294   0.82067   0.00000  Uiso   1.00
C253   C     0.13864   0.64793   0.84329   0.00000  Uiso   1.00
H254   H     0.07500   0.59313   0.66682   0.00000  Uiso   1.00
H255   H     0.18314   0.56991   0.59305   0.00000  Uiso   1.00
H256   H     0.99833   0.66881   0.65541   0.00000  Uiso   1.00
H257   H     0.02758   0.52165   0.74442   0.00000  Uiso   1.00
H258   H     0.32810   0.57419   0.52322   0.00000  Uiso   1.00
H259   H     0.93841   0.78273   0.65472   0.00000  Uiso   1.00
H260   H     0.00008   0.47242   0.84241   0.00000  Uiso   1.00
H261   H     0.26813   0.82440   0.75900   0.00000  Uiso   1.00
H262   H     0.38688   0.81387   0.69029   0.00000  Uiso   1.00
H263   H     0.20207   0.91278   0.75264   0.00000  Uiso   1.00
H264   H     0.23131   0.76562   0.84165   0.00000  Uiso   1.00
H265   H     0.49347   0.77221   0.60214   0.00000  Uiso   1.00
H266   H     0.10376   0.98074   0.73364   0.00000  Uiso   1.00
H267   H     0.16544   0.67043   0.92133   0.00000  Uiso   1.00
O268   O     0.48541   0.66211   0.51581   0.00000  Uiso   1.00
O269   O     0.97413   0.93570   0.68834   0.00000  Uiso   1.00
O270   O     0.05505   0.52858   0.93458   0.00000  Uiso   1.00
N271   N     0.35073   0.62223   0.55123   0.00000  Uiso   1.00
N272   N     0.98639   0.81721   0.67416   0.00000  Uiso   1.00
N273   N     0.04403   0.52710   0.84965   0.00000  Uiso   1.00
N274   N     0.43971   0.72878   0.59369   0.00000  Uiso   1.00
N275   N     0.07537   0.92375   0.71663   0.00000  Uiso   1.00
N276   N     0.13301   0.63365   0.89211   0.00000  Uiso   1.00
C277   C     0.04392   0.75099   0.00531   0.00000  Uiso   1.00
C278   C     0.02127   0.81897   0.03541   0.00000  Uiso   1.00
C279   C     0.98374   0.82635   0.08638   0.00000  Uiso   1.00
C280   C     0.96815   0.89293   0.10691   0.00000  Uiso   1.00
C281   C     0.92980   0.98983   0.15813   0.00000  Uiso   1.00
C282   C     0.13396   0.78837   0.98772   0.00000  Uiso   1.00
C283   C     0.19118   0.77001   0.99859   0.00000  Uiso   1.00
C284   C     0.27045   0.81081   0.97898   0.00000  Uiso   1.00
C285   C     0.40704   0.86015   0.95614   0.00000  Uiso   1.00
C286   C     0.00328   0.71766   0.95567   0.00000  Uiso   1.00
C287   C     0.95065   0.63984   0.93958   0.00000  Uiso   1.00
C288   C     0.91992   0.62110   0.89298   0.00000  Uiso   1.00
C289   C     0.85361   0.56065   0.82037   0.00000  Uiso   1.00
C290   C     0.08295   0.85610   0.95114   0.00000  Uiso   1.00
C291   C     0.04247   0.87606   0.00599   0.00000  Uiso   1.00
C292   C     0.02693   0.94264   0.02645   0.00000  Uiso   1.00
C293   C     0.98939   0.95012   0.07744   0.00000  Uiso   1.00
C294   C     0.15516   0.84546   0.95830   0.00000  Uiso   1.00
C295   C     0.23436   0.88630   0.93867   0.00000  Uiso   1.00
C296   C     0.29169   0.86801   0.94951   0.00000  Uiso   1.00
C297   C     0.02448   0.77475   0.92625   0.00000  Uiso   1.00
C298   C     0.99383   0.75613   0.87966   0.00000  Uiso   1.00
C299   C     0.94116   0.67830   0.86350   0.00000  Uiso   1.00
H300   H     0.02742   0.70654   0.02821   0.00000  Uiso   1.00
H301   H     0.96735   0.78216   0.10913   0.00000  Uiso   1.00
H302   H     0.17475   0.72582   0.02136   0.00000  Uiso   1.00
H303   H     0.93426   0.59567   0.96236   0.00000  Uiso   1.00
H304   H     0.91014   0.89119   0.18588   0.00000  Uiso   1.00
H305   H     0.34745   0.77237   0.00079   0.00000  Uiso   1.00
H306   H     0.84032   0.49793   0.87638   0.00000  Uiso   1.00
H307   H     0.09946   0.90054   0.92823   0.00000  Uiso   1.00
H308   H     0.04334   0.98681   0.00367   0.00000  Uiso   1.00
H309   H     0.25075   0.93047   0.91590   0.00000  Uiso   1.00
H310   H     0.01025   0.80032   0.85690   0.00000  Uiso   1.00
H311   H     0.97182   0.05730   0.10028   0.00000  Uiso   1.00
H312   H     0.40913   0.93847   0.91519   0.00000  Uiso   1.00
H313   H     0.90200   0.66403   0.79078   0.00000  Uiso   1.00
O314   O     0.90279   0.02751   0.19452   0.00000  Uiso   1.00
O315   O     0.47652   0.87160   0.95168   0.00000  Uiso   1.00
O316   O     0.81118   0.51154   0.78846   0.00000  Uiso   1.00
N317   N     0.93234   0.91844   0.15538   0.00000  Uiso   1.00
N318   N     0.34120   0.80736   0.98234   0.00000  Uiso   1.00
N319   N     0.86710   0.55077   0.86602   0.00000  Uiso   1.00
N320   N     0.96553   0.00782   0.10932   0.00000  Uiso   1.00
N321   N     0.37439   0.89673   0.93628   0.00000  Uiso   1.00
N322   N     0.90028   0.64015   0.81996   0.00000  Uiso   1.00
C323   C     0.61560   0.24773   0.88226   0.00000  Uiso   1.00
C324   C     0.64649   0.21797   0.91573   0.00000  Uiso   1.00
C325   C     0.66930   0.25613   0.96522   0.00000  Uiso   1.00
C326   C     0.69588   0.21923   0.98941   0.00000  Uiso   1.00
C327   C     0.74326   0.18402   0.04513   0.00000  Uiso   1.00
C328   C     0.53388   0.18236   0.86945   0.00000  Uiso   1.00
C329   C     0.46201   0.19060   0.88001   0.00000  Uiso   1.00
C330   C     0.39380   0.12372   0.86523   0.00000  Uiso   1.00
C331   C     0.26636   0.03325   0.84905   0.00000  Uiso   1.00
C332   C     0.67098   0.25142   0.83072   0.00000  Uiso   1.00
C333   C     0.71438   0.31772   0.80871   0.00000  Uiso   1.00
C334   C     0.76159   0.30897   0.76131   0.00000  Uiso   1.00
C335   C     0.84702   0.32572   0.68499   0.00000  Uiso   1.00
C336   C     0.62226   0.11431   0.83721   0.00000  Uiso   1.00
C337   C     0.65010   0.14550   0.89127   0.00000  Uiso   1.00
C338   C     0.67666   0.10852   0.91538   0.00000  Uiso   1.00
C339   C     0.69951   0.14663   0.96490   0.00000  Uiso   1.00
C340   C     0.53749   0.10989   0.84498   0.00000  Uiso   1.00
C341   C     0.46937   0.04298   0.83017   0.00000  Uiso   1.00
C342   C     0.39742   0.05112   0.84072   0.00000  Uiso   1.00
C343   C     0.67460   0.17895   0.80625   0.00000  Uiso   1.00
C344   C     0.72174   0.17010   0.75887   0.00000  Uiso   1.00
C345   C     0.76521   0.23637   0.73679   0.00000  Uiso   1.00
H346   H     0.61278   0.30414   0.90130   0.00000  Uiso   1.00
H347   H     0.66648   0.31221   0.98415   0.00000  Uiso   1.00
H348   H     0.45923   0.24669   0.89894   0.00000  Uiso   1.00
H349   H     0.71156   0.37378   0.82765   0.00000  Uiso   1.00
H350   H     0.72759   0.28919   0.06521   0.00000  Uiso   1.00
H351   H     0.29059   0.15103   0.88554   0.00000  Uiso   1.00
H352   H     0.82268   0.41904   0.73520   0.00000  Uiso   1.00
H353   H     0.62507   0.05788   0.81816   0.00000  Uiso   1.00
H354   H     0.67945   0.05244   0.89644   0.00000  Uiso   1.00
H355   H     0.47220   0.98692   0.81124   0.00000  Uiso   1.00
H356   H     0.72453   0.11401   0.73994   0.00000  Uiso   1.00
H357   H     0.73811   0.07834   0.99403   0.00000  Uiso   1.00
H358   H     0.30111   0.94019   0.81436   0.00000  Uiso   1.00
H359   H     0.83320   0.20820   0.66402   0.00000  Uiso   1.00
O360   O     0.76838   0.18461   0.08262   0.00000  Uiso   1.00
O361   O     0.19506   0.00336   0.84690   0.00000  Uiso   1.00
O362   O     0.89315   0.35499   0.64966   0.00000  Uiso   1.00
N363   N     0.72262   0.24032   0.03771   0.00000  Uiso   1.00
N364   N     0.31405   0.11115   0.86974   0.00000  Uiso   1.00
N365   N     0.81149   0.36171   0.72918   0.00000  Uiso   1.00
N366   N     0.72828   0.12687   0.99941   0.00000  Uiso   1.00
N367   N     0.31971   0.99770   0.83143   0.00000  Uiso   1.00
N368   N     0.81716   0.24826   0.69087   0.00000  Uiso   1.00
C369   C     0.59390   0.55359   0.93035   0.00000  Uiso   1.00
C370   C     0.51674   0.51878   0.96637   0.00000  Uiso   1.00
C371   C     0.50910   0.48590   0.00799   0.00000  Uiso   1.00
C372   C     0.43341   0.45728   0.03619   0.00000  Uiso   1.00
C373   C     0.32360   0.40264   0.09410   0.00000  Uiso   1.00
C374   C     0.60710   0.63804   0.93324   0.00000  Uiso   1.00
C375   C     0.67543   0.70543   0.94701   0.00000  Uiso   1.00
C376   C     0.67581   0.77721   0.94732   0.00000  Uiso   1.00
C377   C     0.70629   0.90771   0.95377   0.00000  Uiso   1.00
C378   C     0.57507   0.50919   0.87505   0.00000  Uiso   1.00
C379   C     0.61649   0.46827   0.83988   0.00000  Uiso   1.00
C380   C     0.58992   0.43158   0.79119   0.00000  Uiso   1.00
C381   C     0.57068   0.36203   0.70729   0.00000  Uiso   1.00
C382   C     0.47309   0.56123   0.90642   0.00000  Uiso   1.00
C383   C     0.45112   0.52293   0.95337   0.00000  Uiso   1.00
C384   C     0.37543   0.49435   0.98151   0.00000  Uiso   1.00
C385   C     0.36767   0.46144   0.02316   0.00000  Uiso   1.00
C386   C     0.54148   0.64219   0.92025   0.00000  Uiso   1.00
C387   C     0.54176   0.71388   0.92053   0.00000  Uiso   1.00
C388   C     0.61007   0.78137   0.93429   0.00000  Uiso   1.00
C389   C     0.50945   0.51334   0.86205   0.00000  Uiso   1.00
C390   C     0.48282   0.47671   0.81341   0.00000  Uiso   1.00
C391   C     0.52418   0.43574   0.77817   0.00000  Uiso   1.00
H392   H     0.64499   0.55036   0.94047   0.00000  Uiso   1.00
H393   H     0.55990   0.48271   0.01804   0.00000  Uiso   1.00
H394   H     0.72620   0.70220   0.95706   0.00000  Uiso   1.00
H395   H     0.66726   0.46507   0.84996   0.00000  Uiso   1.00
H396   H     0.43662   0.40955   0.09831   0.00000  Uiso   1.00
H397   H     0.78729   0.87237   0.96972   0.00000  Uiso   1.00
H398   H     0.66302   0.37233   0.74387   0.00000  Uiso   1.00
H399   H     0.42200   0.56446   0.89630   0.00000  Uiso   1.00
H400   H     0.32466   0.49757   0.97144   0.00000  Uiso   1.00
H401   H     0.49097   0.71707   0.91046   0.00000  Uiso   1.00
H402   H     0.43204   0.47994   0.80336   0.00000  Uiso   1.00
H403   H     0.24570   0.42162   0.06049   0.00000  Uiso   1.00
H404   H     0.59638   0.88444   0.93190   0.00000  Uiso   1.00
H405   H     0.47210   0.38440   0.70605   0.00000  Uiso   1.00
O406   O     0.28116   0.37136   0.12964   0.00000  Uiso   1.00
O407   O     0.74123   0.97855   0.96092   0.00000  Uiso   1.00
O408   O     0.57819   0.32251   0.66461   0.00000  Uiso   1.00
N409   N     0.40504   0.42156   0.07909   0.00000  Uiso   1.00
N410   N     0.73289   0.85427   0.95887   0.00000  Uiso   1.00
N411   N     0.61672   0.38679   0.74772   0.00000  Uiso   1.00
N412   N     0.30231   0.42805   0.05874   0.00000  Uiso   1.00
N413   N     0.63016   0.86076   0.93852   0.00000  Uiso   1.00
N414   N     0.51399   0.39328   0.72737   0.00000  Uiso   1.00
C415   C     0.31480   0.91284   0.44041   0.00000  Uiso   1.00
C416   C     0.34262   0.92074   0.49145   0.00000  Uiso   1.00
C417   C     0.29586   0.91706   0.53972   0.00000  Uiso   1.00
C418   C     0.33244   0.92566   0.58169   0.00000  Uiso   1.00
C419   C     0.36342   0.93616   0.66188   0.00000  Uiso   1.00
C420   C     0.37242   0.98745   0.41994   0.00000  Uiso   1.00
C421   C     0.35071   0.03986   0.40808   0.00000  Uiso   1.00
C422   C     0.41238   0.10461   0.38984   0.00000  Uiso   1.00
C423   C     0.48961   0.21866   0.35897   0.00000  Uiso   1.00
C424   C     0.33086   0.84528   0.40209   0.00000  Uiso   1.00
C425   C     0.27421   0.77815   0.37521   0.00000  Uiso   1.00
C426   C     0.30089   0.72321   0.34194   0.00000  Uiso   1.00
C427   C     0.31360   0.61651   0.28336   0.00000  Uiso   1.00
C428   C     0.46293   0.93463   0.42910   0.00000  Uiso   1.00
C429   C     0.42308   0.93258   0.48530   0.00000  Uiso   1.00
C430   C     0.45974   0.94118   0.52721   0.00000  Uiso   1.00
C431   C     0.41304   0.93752   0.57554   0.00000  Uiso   1.00
C432   C     0.45288   0.99929   0.41379   0.00000  Uiso   1.00
C433   C     0.51459   0.06398   0.39556   0.00000  Uiso   1.00
C434   C     0.49298   0.11648   0.38368   0.00000  Uiso   1.00
C435   C     0.41132   0.85711   0.39595   0.00000  Uiso   1.00
C436   C     0.43810   0.80227   0.36270   0.00000  Uiso   1.00
C437   C     0.38150   0.73507   0.33578   0.00000  Uiso   1.00
H438   H     0.25216   0.90363   0.44519   0.00000  Uiso   1.00
H439   H     0.23360   0.90791   0.54446   0.00000  Uiso   1.00
H440   H     0.28844   0.03068   0.41283   0.00000  Uiso   1.00
H441   H     0.21195   0.76901   0.37998   0.00000  Uiso   1.00
H442   H     0.24851   0.91791   0.65182   0.00000  Uiso   1.00
H443   H     0.36414   0.17677   0.37425   0.00000  Uiso   1.00
H444   H     0.20285   0.62498   0.30497   0.00000  Uiso   1.00
H445   H     0.52557   0.94385   0.42431   0.00000  Uiso   1.00
H446   H     0.52201   0.95034   0.52244   0.00000  Uiso   1.00
H447   H     0.57685   0.07312   0.39081   0.00000  Uiso   1.00
H448   H     0.50036   0.81145   0.35796   0.00000  Uiso   1.00
H449   H     0.48259   0.95235   0.63395   0.00000  Uiso   1.00
H450   H     0.59823   0.21121   0.35637   0.00000  Uiso   1.00
H451   H     0.43694   0.65943   0.28710   0.00000  Uiso   1.00
O452   O     0.35828   0.93869   0.70781   0.00000  Uiso   1.00
O453   O     0.50999   0.27830   0.34364   0.00000  Uiso   1.00
O454   O     0.29838   0.55437   0.25276   0.00000  Uiso   1.00
N455   N     0.30408   0.92510   0.63414   0.00000  Uiso   1.00
N456   N     0.41220   0.16713   0.37464   0.00000  Uiso   1.00
N457   N     0.26141   0.65127   0.30986   0.00000  Uiso   1.00
N458   N     0.43004   0.94364   0.62453   0.00000  Uiso   1.00
N459   N     0.53815   0.18566   0.36502   0.00000  Uiso   1.00
N460   N     0.38737   0.66980   0.30024   0.00000  Uiso   1.00
C461   C     0.12952   0.10041   0.39861   0.00000  Uiso   1.00
C462   C     0.15055   0.17459   0.44161   0.00000  Uiso   1.00
C463   C     0.16281   0.17998   0.49175   0.00000  Uiso   1.00
C464   C     0.18152   0.25312   0.52534   0.00000  Uiso   1.00
C465   C     0.21319   0.35836   0.59455   0.00000  Uiso   1.00
C466   C     0.05169   0.08724   0.38163   0.00000  Uiso   1.00
C467   C     0.98084   0.01917   0.38133   0.00000  Uiso   1.00
C468   C     0.91633   0.01877   0.36441   0.00000  Uiso   1.00
C469   C     0.79455   0.98837   0.34047   0.00000  Uiso   1.00
C470   C     0.19414   0.12183   0.35236   0.00000  Uiso   1.00
C471   C     0.24304   0.08284   0.32743   0.00000  Uiso   1.00
C472   C     0.29845   0.11155   0.28586   0.00000  Uiso   1.00
C473   C     0.39783   0.13486   0.21647   0.00000  Uiso   1.00
C474   C     0.14096   0.22071   0.36908   0.00000  Uiso   1.00
C475   C     0.15676   0.23994   0.42557   0.00000  Uiso   1.00
C476   C     0.17546   0.31309   0.45909   0.00000  Uiso   1.00
C477   C     0.18775   0.31858   0.50927   0.00000  Uiso   1.00
C478   C     0.05790   0.15258   0.36559   0.00000  Uiso   1.00
C479   C     0.99349   0.15228   0.34866   0.00000  Uiso   1.00
C480   C     0.92255   0.08423   0.34835   0.00000  Uiso   1.00
C481   C     0.20035   0.18718   0.33632   0.00000  Uiso   1.00
C482   C     0.25569   0.21595   0.29477   0.00000  Uiso   1.00
C483   C     0.30467   0.17702   0.26980   0.00000  Uiso   1.00
H484   H     0.12468   0.04953   0.41109   0.00000  Uiso   1.00
H485   H     0.15799   0.12940   0.50415   0.00000  Uiso   1.00
H486   H     0.97605   0.96861   0.39374   0.00000  Uiso   1.00
H487   H     0.23821   0.03228   0.33986   0.00000  Uiso   1.00
H488   H     0.19763   0.24675   0.60026   0.00000  Uiso   1.00
H489   H     0.81401   0.90772   0.36743   0.00000  Uiso   1.00
H490   H     0.36683   0.04196   0.25381   0.00000  Uiso   1.00
H491   H     0.14579   0.27159   0.35659   0.00000  Uiso   1.00
H492   H     0.18027   0.36364   0.44666   0.00000  Uiso   1.00
H493   H     0.99832   0.20286   0.33625   0.00000  Uiso   1.00
H494   H     0.26048   0.26652   0.28237   0.00000  Uiso   1.00
H495   H     0.21571   0.43688   0.55360   0.00000  Uiso   1.00
H496   H     0.83209   0.09784   0.32077   0.00000  Uiso   1.00
H497   H     0.38490   0.23208   0.20715   0.00000  Uiso   1.00
O498   O     0.22894   0.39836   0.63717   0.00000  Uiso   1.00
O499   O     0.72565   0.95355   0.33170   0.00000  Uiso   1.00
O500   O     0.45093   0.12968   0.18263   0.00000  Uiso   1.00
N501   N     0.19717   0.27887   0.57691   0.00000  Uiso   1.00
N502   N     0.83850   0.96190   0.35924   0.00000  Uiso   1.00
N503   N     0.35533   0.08739   0.25300   0.00000  Uiso   1.00
N504   N     0.20690   0.38117   0.55181   0.00000  Uiso   1.00
N505   N     0.84823   0.06420   0.33414   0.00000  Uiso   1.00
N506   N     0.36505   0.18969   0.22790   0.00000  Uiso   1.00
C507   C     0.05761   0.74973   0.45653   0.00000  Uiso   1.00
C508   C     0.97889   0.73896   0.49217   0.00000  Uiso   1.00
C509   C     0.96613   0.79558   0.53349   0.00000  Uiso   1.00
C510   C     0.88985   0.77420   0.56138   0.00000  Uiso   1.00
C511   C     0.77694   0.76893   0.61872   0.00000  Uiso   1.00
C512   C     0.07866   0.68421   0.45998   0.00000  Uiso   1.00
C513   C     0.14980   0.69480   0.47422   0.00000  Uiso   1.00
C514   C     0.15750   0.62732   0.47501   0.00000  Uiso   1.00
C515   C     0.19952   0.53705   0.48233   0.00000  Uiso   1.00
C516   C     0.03799   0.73099   0.40102   0.00000  Uiso   1.00
C517   C     0.07495   0.78090   0.36569   0.00000  Uiso   1.00
C518   C     0.04842   0.75280   0.31683   0.00000  Uiso   1.00
C519   C     0.02729   0.73515   0.23261   0.00000  Uiso   1.00
C520   C     0.94482   0.61107   0.43258   0.00000  Uiso   1.00
C521   C     0.91763   0.66365   0.47916   0.00000  Uiso   1.00
C522   C     0.84134   0.64218   0.50699   0.00000  Uiso   1.00
C523   C     0.82847   0.69876   0.54834   0.00000  Uiso   1.00
C524   C     0.01740   0.60890   0.44697   0.00000  Uiso   1.00
C525   C     0.02501   0.54139   0.44773   0.00000  Uiso   1.00
C526   C     0.09613   0.55188   0.46197   0.00000  Uiso   1.00
C527   C     0.97673   0.65568   0.38801   0.00000  Uiso   1.00
C528   C     0.95015   0.62749   0.33919   0.00000  Uiso   1.00
C529   C     0.98705   0.67735   0.30379   0.00000  Uiso   1.00
H530   H     0.10531   0.80835   0.46666   0.00000  Uiso   1.00
H531   H     0.01356   0.85386   0.54355   0.00000  Uiso   1.00
H532   H     0.19720   0.75308   0.48429   0.00000  Uiso   1.00
H533   H     0.12235   0.83917   0.37577   0.00000  Uiso   1.00
H534   H     0.88483   0.87108   0.62307   0.00000  Uiso   1.00
H535   H     0.27205   0.65860   0.49810   0.00000  Uiso   1.00
H536   H     0.11422   0.84013   0.26927   0.00000  Uiso   1.00
H537   H     0.89713   0.55244   0.42245   0.00000  Uiso   1.00
H538   H     0.79395   0.58390   0.49692   0.00000  Uiso   1.00
H539   H     0.97759   0.48312   0.43766   0.00000  Uiso   1.00
H540   H     0.90274   0.56921   0.32914   0.00000  Uiso   1.00
H541   H     0.70658   0.65197   0.58523   0.00000  Uiso   1.00
H542   H     0.09381   0.43949   0.46025   0.00000  Uiso   1.00
H543   H     0.93598   0.62102   0.23142   0.00000  Uiso   1.00
O544   O     0.73159   0.78683   0.65394   0.00000  Uiso   1.00
O545   O     0.23962   0.50806   0.48997   0.00000  Uiso   1.00
O546   O     0.03256   0.74622   0.18976   0.00000  Uiso   1.00
N547   N     0.85703   0.81520   0.60394   0.00000  Uiso   1.00
N548   N     0.21906   0.61654   0.48710   0.00000  Uiso   1.00
N549   N     0.07152   0.78625   0.27316   0.00000  Uiso   1.00
N550   N     0.76112   0.69730   0.58357   0.00000  Uiso   1.00
N551   N     0.12314   0.49864   0.46674   0.00000  Uiso   1.00
N552   N     0.97561   0.66835   0.25280   0.00000  Uiso   1.00
