data_job_06818
_audit_creation_date              2018-12-19
_audit_creation_method            'Materials Studio'
_symmetry_space_group_name_H-M    'P1'
_symmetry_Int_Tables_number       1
_symmetry_cell_setting            triclinic
loop_
_symmetry_equiv_pos_as_xyz
  x,y,z
_cell_length_a                    20.8031
_cell_length_b                    22.7730
_cell_length_c                    22.7786
_cell_angle_alpha                 98.9188
_cell_angle_beta                  111.4063
_cell_angle_gamma                 113.0239
loop_
_atom_site_label
_atom_site_type_symbol
_atom_site_fract_x
_atom_site_fract_y
_atom_site_fract_z
_atom_site_U_iso_or_equiv
_atom_site_adp_type
_atom_site_occupancy
C1     C     0.97428   0.05869   0.28272   0.00000  Uiso   1.00
C2     C     0.90275   0.99248   0.22916   0.00000  Uiso   1.00
C3     C     0.84916   0.98627   0.16709   0.00000  Uiso   1.00
C4     C     0.78771   0.92127   0.12519   0.00000  Uiso   1.00
C5     C     0.67776   0.82710   0.03906   0.00000  Uiso   1.00
C6     C     0.96484   0.06398   0.34635   0.00000  Uiso   1.00
C7     C     0.96347   0.11790   0.38281   0.00000  Uiso   1.00
C8     C     0.95430   0.11308   0.43956   0.00000  Uiso   1.00
C9     C     0.94081   0.12994   0.53540   0.00000  Uiso   1.00
C10    C     0.04574   0.04805   0.29732   0.00000  Uiso   1.00
C11    C     0.11241   0.08858   0.29258   0.00000  Uiso   1.00
C12    C     0.17136   0.07036   0.30808   0.00000  Uiso   1.00
C13    C     0.28349   0.06249   0.32779   0.00000  Uiso   1.00
C14    C     0.96042   0.95429   0.31870   0.00000  Uiso   1.00
C15    C     0.89522   0.93578   0.24870   0.00000  Uiso   1.00
C16    C     0.83383   0.87077   0.20689   0.00000  Uiso   1.00
C17    C     0.78017   0.86446   0.14476   0.00000  Uiso   1.00
C18    C     0.95731   0.00728   0.36589   0.00000  Uiso   1.00
C19    C     0.94814   0.00239   0.42261   0.00000  Uiso   1.00
C20    C     0.94676   0.05627   0.45914   0.00000  Uiso   1.00
C21    C     0.03822   0.99135   0.31686   0.00000  Uiso   1.00
C22    C     0.09707   0.97307   0.33238   0.00000  Uiso   1.00
C23    C     0.16382   0.01356   0.32766   0.00000  Uiso   1.00
H24    H     0.98014   0.10284   0.26751   0.00000  Uiso   1.00
H25    H     0.85501   0.03017   0.15198   0.00000  Uiso   1.00
H26    H     0.96931   0.16177   0.36768   0.00000  Uiso   1.00
H27    H     0.11822   0.13246   0.27746   0.00000  Uiso   1.00
H28    H     0.71294   0.92460   0.03253   0.00000  Uiso   1.00
H29    H     0.95398   0.20210   0.48733   0.00000  Uiso   1.00
H30    H     0.26799   0.14029   0.29709   0.00000  Uiso   1.00
H31    H     0.95456   0.91014   0.33391   0.00000  Uiso   1.00
H32    H     0.82802   0.82689   0.22202   0.00000  Uiso   1.00
H33    H     0.94232   0.95850   0.43772   0.00000  Uiso   1.00
H34    H     0.09123   0.92918   0.34750   0.00000  Uiso   1.00
H35    H     0.69103   0.75961   0.08938   0.00000  Uiso   1.00
H36    H     0.93208   0.03712   0.54419   0.00000  Uiso   1.00
H37    H     0.24608   0.97530   0.35394   0.00000  Uiso   1.00
O38    O     0.61919   0.79083   0.98616   0.00000  Uiso   1.00
O39    O     0.93544   0.15490   0.58285   0.00000  Uiso   1.00
O40    O     0.34741   0.07381   0.33326   0.00000  Uiso   1.00
N41    N     0.72516   0.89719   0.06126   0.00000  Uiso   1.00
N42    N     0.95050   0.15664   0.48647   0.00000  Uiso   1.00
N43    N     0.24408   0.09886   0.30863   0.00000  Uiso   1.00
N44    N     0.71337   0.80842   0.09185   0.00000  Uiso   1.00
N45    N     0.93872   0.06786   0.51706   0.00000  Uiso   1.00
N46    N     0.23230   0.01008   0.33922   0.00000  Uiso   1.00
C47    C     0.24112   0.35187   0.14102   0.00000  Uiso   1.00
C48    C     0.18470   0.32124   0.06571   0.00000  Uiso   1.00
C49    C     0.18293   0.27286   0.01894   0.00000  Uiso   1.00
C50    C     0.12689   0.25132   0.95244   0.00000  Uiso   1.00
C51    C     0.04729   0.19983   0.83839   0.00000  Uiso   1.00
C52    C     0.28346   0.42870   0.15771   0.00000  Uiso   1.00
C53    C     0.36471   0.47067   0.18830   0.00000  Uiso   1.00
C54    C     0.39180   0.53960   0.19925   0.00000  Uiso   1.00
C55    C     0.46551   0.65495   0.22807   0.00000  Uiso   1.00
C56    C     0.18915   0.33843   0.17569   0.00000  Uiso   1.00
C57    C     0.19113   0.30452   0.22141   0.00000  Uiso   1.00
C58    C     0.13883   0.29746   0.24751   0.00000  Uiso   1.00
C59    C     0.06612   0.27266   0.30425   0.00000  Uiso   1.00
C60    C     0.14475   0.39967   0.10608   0.00000  Uiso   1.00
C61    C     0.13237   0.34721   0.04674   0.00000  Uiso   1.00
C62    C     0.07631   0.32573   0.98029   0.00000  Uiso   1.00
C63    C     0.07445   0.27732   0.93343   0.00000  Uiso   1.00
C64    C     0.23112   0.45466   0.13873   0.00000  Uiso   1.00
C65    C     0.25809   0.52355   0.14964   0.00000  Uiso   1.00
C66    C     0.33936   0.56560   0.18024   0.00000  Uiso   1.00
C67    C     0.13681   0.36439   0.15671   0.00000  Uiso   1.00
C68    C     0.08451   0.35739   0.18275   0.00000  Uiso   1.00
C69    C     0.08640   0.32347   0.22850   0.00000  Uiso   1.00
H70    H     0.28187   0.33167   0.15579   0.00000  Uiso   1.00
H71    H     0.22345   0.25278   0.03365   0.00000  Uiso   1.00
H72    H     0.40520   0.45056   0.20298   0.00000  Uiso   1.00
H73    H     0.23164   0.28443   0.23608   0.00000  Uiso   1.00
H74    H     0.13562   0.17679   0.88985   0.00000  Uiso   1.00
H75    H     0.51885   0.59383   0.24693   0.00000  Uiso   1.00
H76    H     0.15287   0.24351   0.31673   0.00000  Uiso   1.00
H77    H     0.10400   0.41988   0.09131   0.00000  Uiso   1.00
H78    H     0.03581   0.34583   0.96562   0.00000  Uiso   1.00
H79    H     0.21757   0.54362   0.13496   0.00000  Uiso   1.00
H80    H     0.04401   0.37749   0.16806   0.00000  Uiso   1.00
H81    H     0.98333   0.25232   0.83464   0.00000  Uiso   1.00
H82    H     0.36656   0.66936   0.19172   0.00000  Uiso   1.00
H83    H     0.00058   0.31904   0.26152   0.00000  Uiso   1.00
O84    O     0.01785   0.16427   0.78072   0.00000  Uiso   1.00
O85    O     0.52063   0.71141   0.24921   0.00000  Uiso   1.00
O86    O     0.04047   0.25180   0.34078   0.00000  Uiso   1.00
N87    N     0.10912   0.20472   0.89411   0.00000  Uiso   1.00
N88    N     0.46742   0.59462   0.22794   0.00000  Uiso   1.00
N89    N     0.12527   0.26712   0.29322   0.00000  Uiso   1.00
N90    N     0.02718   0.24536   0.86440   0.00000  Uiso   1.00
N91    N     0.38547   0.63526   0.19823   0.00000  Uiso   1.00
N92    N     0.04333   0.30776   0.26351   0.00000  Uiso   1.00
C93    C     0.16024   0.87489   0.97585   0.00000  Uiso   1.00
C94    C     0.18115   0.87248   0.91827   0.00000  Uiso   1.00
C95    C     0.12762   0.83916   0.85037   0.00000  Uiso   1.00
C96    C     0.15855   0.84299   0.80555   0.00000  Uiso   1.00
C97    C     0.17862   0.83377   0.71274   0.00000  Uiso   1.00
C98    C     0.20545   0.84736   0.02196   0.00000  Uiso   1.00
C99    C     0.17235   0.79293   0.04126   0.00000  Uiso   1.00
C100   C     0.22375   0.77561   0.08373   0.00000  Uiso   1.00
C101   C     0.28156   0.72742   0.15195   0.00000  Uiso   1.00
C102   C     0.19700   0.95009   0.01551   0.00000  Uiso   1.00
C103   C     0.15680   0.98203   0.02940   0.00000  Uiso   1.00
C104   C     0.20109   0.05121   0.06646   0.00000  Uiso   1.00
C105   C     0.24577   0.16252   0.12466   0.00000  Uiso   1.00
C106   C     0.31038   0.94095   0.01699   0.00000  Uiso   1.00
C107   C     0.26270   0.90836   0.94062   0.00000  Uiso   1.00
C108   C     0.29373   0.91224   0.89589   0.00000  Uiso   1.00
C109   C     0.24025   0.87894   0.82793   0.00000  Uiso   1.00
C110   C     0.28700   0.88324   0.04431   0.00000  Uiso   1.00
C111   C     0.33846   0.86601   0.08677   0.00000  Uiso   1.00
C112   C     0.30545   0.81156   0.10612   0.00000  Uiso   1.00
C113   C     0.27855   0.98597   0.03786   0.00000  Uiso   1.00
C114   C     0.32291   0.05511   0.07491   0.00000  Uiso   1.00
C115   C     0.28279   0.08715   0.08884   0.00000  Uiso   1.00
H116   H     0.09675   0.84696   0.95846   0.00000  Uiso   1.00
H117   H     0.06451   0.81140   0.83310   0.00000  Uiso   1.00
H118   H     0.10924   0.76517   0.02396   0.00000  Uiso   1.00
H119   H     0.09369   0.95425   0.01210   0.00000  Uiso   1.00
H120   H     0.06473   0.78777   0.70397   0.00000  Uiso   1.00
H121   H     0.15905   0.69032   0.10643   0.00000  Uiso   1.00
H122   H     0.12626   0.08903   0.08142   0.00000  Uiso   1.00
H123   H     0.37387   0.96888   0.03439   0.00000  Uiso   1.00
H124   H     0.35684   0.94001   0.91320   0.00000  Uiso   1.00
H125   H     0.40157   0.89378   0.10406   0.00000  Uiso   1.00
H126   H     0.38602   0.08286   0.09219   0.00000  Uiso   1.00
H127   H     0.30200   0.89216   0.76898   0.00000  Uiso   1.00
H128   H     0.39632   0.79471   0.17144   0.00000  Uiso   1.00
H129   H     0.36353   0.19341   0.14643   0.00000  Uiso   1.00
O130   O     0.16716   0.81876   0.65538   0.00000  Uiso   1.00
O131   O     0.29091   0.69091   0.18340   0.00000  Uiso   1.00
O132   O     0.24789   0.21400   0.15058   0.00000  Uiso   1.00
N133   N     0.12291   0.81631   0.73590   0.00000  Uiso   1.00
N134   N     0.21109   0.72520   0.11217   0.00000  Uiso   1.00
N135   N     0.18044   0.09795   0.08880   0.00000  Uiso   1.00
N136   N     0.25058   0.87248   0.77088   0.00000  Uiso   1.00
N137   N     0.33876   0.78137   0.14715   0.00000  Uiso   1.00
N138   N     0.30811   0.15412   0.12378   0.00000  Uiso   1.00
C139   C     0.76737   0.38859   0.52665   0.00000  Uiso   1.00
C140   C     0.67982   0.36801   0.49491   0.00000  Uiso   1.00
C141   C     0.61969   0.31063   0.43939   0.00000  Uiso   1.00
C142   C     0.54345   0.30080   0.41809   0.00000  Uiso   1.00
C143   C     0.40986   0.26183   0.36380   0.00000  Uiso   1.00
C144   C     0.79263   0.39546   0.60029   0.00000  Uiso   1.00
C145   C     0.82736   0.36117   0.63338   0.00000  Uiso   1.00
C146   C     0.84610   0.37446   0.70079   0.00000  Uiso   1.00
C147   C     0.88770   0.37815   0.81011   0.00000  Uiso   1.00
C148   C     0.81016   0.46027   0.52647   0.00000  Uiso   1.00
C149   C     0.85964   0.48048   0.49751   0.00000  Uiso   1.00
C150   C     0.89315   0.54835   0.50278   0.00000  Uiso   1.00
C151   C     0.96196   0.65268   0.49749   0.00000  Uiso   1.00
C152   C     0.73892   0.47319   0.58753   0.00000  Uiso   1.00
C153   C     0.66437   0.41396   0.52798   0.00000  Uiso   1.00
C154   C     0.58821   0.40422   0.50675   0.00000  Uiso   1.00
C155   C     0.52797   0.34684   0.45121   0.00000  Uiso   1.00
C156   C     0.77718   0.44141   0.63336   0.00000  Uiso   1.00
C157   C     0.79588   0.45476   0.70074   0.00000  Uiso   1.00
C158   C     0.83062   0.42049   0.73392   0.00000  Uiso   1.00
C159   C     0.79471   0.50622   0.55954   0.00000  Uiso   1.00
C160   C     0.82816   0.57408   0.56486   0.00000  Uiso   1.00
C161   C     0.87767   0.59439   0.53591   0.00000  Uiso   1.00
H162   H     0.77940   0.35282   0.50091   0.00000  Uiso   1.00
H163   H     0.63167   0.27507   0.41382   0.00000  Uiso   1.00
H164   H     0.83932   0.32562   0.60778   0.00000  Uiso   1.00
H165   H     0.87158   0.44491   0.47192   0.00000  Uiso   1.00
H166   H     0.46106   0.20913   0.33186   0.00000  Uiso   1.00
H167   H     0.89892   0.31572   0.74084   0.00000  Uiso   1.00
H168   H     0.96697   0.56728   0.45436   0.00000  Uiso   1.00
H169   H     0.72689   0.50896   0.61328   0.00000  Uiso   1.00
H170   H     0.57627   0.43979   0.53236   0.00000  Uiso   1.00
H171   H     0.78392   0.49033   0.72631   0.00000  Uiso   1.00
H172   H     0.81619   0.60962   0.59046   0.00000  Uiso   1.00
H173   H     0.41610   0.34282   0.42808   0.00000  Uiso   1.00
H174   H     0.85396   0.44940   0.83705   0.00000  Uiso   1.00
H175   H     0.92200   0.70096   0.55057   0.00000  Uiso   1.00
O176   O     0.34044   0.22764   0.32472   0.00000  Uiso   1.00
O177   O     0.91491   0.36748   0.86128   0.00000  Uiso   1.00
O178   O     0.00418   0.69752   0.48543   0.00000  Uiso   1.00
N179   N     0.47115   0.25010   0.36561   0.00000  Uiso   1.00
N180   N     0.88051   0.34974   0.74797   0.00000  Uiso   1.00
N181   N     0.94415   0.58493   0.48015   0.00000  Uiso   1.00
N182   N     0.44695   0.32203   0.41737   0.00000  Uiso   1.00
N183   N     0.85632   0.42167   0.79974   0.00000  Uiso   1.00
N184   N     0.91995   0.65687   0.53192   0.00000  Uiso   1.00
C185   C     0.31446   0.49244   0.73258   0.00000  Uiso   1.00
C186   C     0.32907   0.45786   0.67967   0.00000  Uiso   1.00
C187   C     0.33044   0.47586   0.62449   0.00000  Uiso   1.00
C188   C     0.34480   0.43793   0.58196   0.00000  Uiso   1.00
C189   C     0.36563   0.39247   0.49796   0.00000  Uiso   1.00
C190   C     0.38577   0.51482   0.80009   0.00000  Uiso   1.00
C191   C     0.43480   0.58071   0.84614   0.00000  Uiso   1.00
C192   C     0.49688   0.59073   0.90498   0.00000  Uiso   1.00
C193   C     0.60570   0.63369   0.00795   0.00000  Uiso   1.00
C194   C     0.24436   0.43655   0.73348   0.00000  Uiso   1.00
C195   C     0.17449   0.43663   0.72355   0.00000  Uiso   1.00
C196   C     0.11752   0.38075   0.72633   0.00000  Uiso   1.00
C197   C     0.00677   0.30218   0.72588   0.00000  Uiso   1.00
C198   C     0.33754   0.39307   0.75519   0.00000  Uiso   1.00
C199   C     0.34161   0.40389   0.69196   0.00000  Uiso   1.00
C200   C     0.35597   0.36592   0.64950   0.00000  Uiso   1.00
C201   C     0.35736   0.38386   0.59426   0.00000  Uiso   1.00
C202   C     0.39831   0.46085   0.81237   0.00000  Uiso   1.00
C203   C     0.46033   0.47077   0.87116   0.00000  Uiso   1.00
C204   C     0.50944   0.53666   0.91729   0.00000  Uiso   1.00
C205   C     0.25689   0.38257   0.74576   0.00000  Uiso   1.00
C206   C     0.20002   0.32669   0.74856   0.00000  Uiso   1.00
C207   C     0.13008   0.32668   0.73864   0.00000  Uiso   1.00
H208   H     0.30470   0.53447   0.72302   0.00000  Uiso   1.00
H209   H     0.32074   0.51764   0.61500   0.00000  Uiso   1.00
H210   H     0.42508   0.62247   0.83663   0.00000  Uiso   1.00
H211   H     0.16481   0.47841   0.71405   0.00000  Uiso   1.00
H212   H     0.34408   0.47520   0.50067   0.00000  Uiso   1.00
H213   H     0.56406   0.69624   0.96799   0.00000  Uiso   1.00
H214   H     0.01524   0.39246   0.70952   0.00000  Uiso   1.00
H215   H     0.34730   0.35105   0.76475   0.00000  Uiso   1.00
H216   H     0.36567   0.32415   0.65902   0.00000  Uiso   1.00
H217   H     0.47001   0.42899   0.88064   0.00000  Uiso   1.00
H218   H     0.20974   0.28493   0.75807   0.00000  Uiso   1.00
H219   H     0.38055   0.31816   0.53640   0.00000  Uiso   1.00
H220   H     0.60053   0.53920   0.00372   0.00000  Uiso   1.00
H221   H     0.05171   0.23542   0.74524   0.00000  Uiso   1.00
O222   O     0.37367   0.38231   0.44824   0.00000  Uiso   1.00
O223   O     0.66226   0.67230   0.06134   0.00000  Uiso   1.00
O224   O     0.94221   0.27375   0.72223   0.00000  Uiso   1.00
N225   N     0.35013   0.44192   0.52358   0.00000  Uiso   1.00
N226   N     0.55581   0.64858   0.96049   0.00000  Uiso   1.00
N227   N     0.04271   0.36458   0.71886   0.00000  Uiso   1.00
N228   N     0.36975   0.35742   0.54280   0.00000  Uiso   1.00
N229   N     0.57543   0.56408   0.97971   0.00000  Uiso   1.00
N230   N     0.06233   0.28008   0.73808   0.00000  Uiso   1.00
C231   C     0.28448   0.89644   0.59174   0.00000  Uiso   1.00
C232   C     0.29102   0.89730   0.52731   0.00000  Uiso   1.00
C233   C     0.23154   0.85534   0.46254   0.00000  Uiso   1.00
C234   C     0.24922   0.86407   0.41028   0.00000  Uiso   1.00
C235   C     0.24803   0.85798   0.30839   0.00000  Uiso   1.00
C236   C     0.30532   0.96857   0.62779   0.00000  Uiso   1.00
C237   C     0.25787   0.98653   0.64753   0.00000  Uiso   1.00
C238   C     0.28760   0.05526   0.67986   0.00000  Uiso   1.00
C239   C     0.30863   0.15981   0.73402   0.00000  Uiso   1.00
C240   C     0.35109   0.88522   0.63543   0.00000  Uiso   1.00
C241   C     0.34214   0.83311   0.66161   0.00000  Uiso   1.00
C242   C     0.41041   0.83168   0.70040   0.00000  Uiso   1.00
C243   C     0.50251   0.80682   0.76642   0.00000  Uiso   1.00
C244   C     0.42164   0.98657   0.61409   0.00000  Uiso   1.00
C245   C     0.36552   0.94626   0.53945   0.00000  Uiso   1.00
C246   C     0.38329   0.95505   0.48728   0.00000  Uiso   1.00
C247   C     0.32386   0.91311   0.42245   0.00000  Uiso   1.00
C248   C     0.37981   0.01753   0.63994   0.00000  Uiso   1.00
C249   C     0.40962   0.08625   0.67226   0.00000  Uiso   1.00
C250   C     0.36223   0.10430   0.69203   0.00000  Uiso   1.00
C251   C     0.42559   0.93418   0.64758   0.00000  Uiso   1.00
C252   C     0.49389   0.93283   0.68634   0.00000  Uiso   1.00
C253   C     0.48504   0.88072   0.71256   0.00000  Uiso   1.00
H254   H     0.22648   0.85833   0.58229   0.00000  Uiso   1.00
H255   H     0.17390   0.81746   0.45317   0.00000  Uiso   1.00
H256   H     0.20023   0.94863   0.63813   0.00000  Uiso   1.00
H257   H     0.28448   0.79524   0.65220   0.00000  Uiso   1.00
H258   H     0.14844   0.79375   0.31537   0.00000  Uiso   1.00
H259   H     0.20397   0.07034   0.70539   0.00000  Uiso   1.00
H260   H     0.38164   0.74687   0.73507   0.00000  Uiso   1.00
H261   H     0.47964   0.02469   0.62355   0.00000  Uiso   1.00
H262   H     0.44095   0.99294   0.49669   0.00000  Uiso   1.00
H263   H     0.46728   0.12411   0.68165   0.00000  Uiso   1.00
H264   H     0.55153   0.97072   0.69572   0.00000  Uiso   1.00
H265   H     0.36519   0.93618   0.35069   0.00000  Uiso   1.00
H266   H     0.42072   0.21276   0.74071   0.00000  Uiso   1.00
H267   H     0.59838   0.88930   0.77039   0.00000  Uiso   1.00
O268   O     0.22679   0.84110   0.24883   0.00000  Uiso   1.00
O269   O     0.29964   0.20396   0.76053   0.00000  Uiso   1.00
O270   O     0.53273   0.77958   0.79947   0.00000  Uiso   1.00
N271   N     0.20477   0.83162   0.34109   0.00000  Uiso   1.00
N272   N     0.25668   0.09021   0.70573   0.00000  Uiso   1.00
N273   N     0.42278   0.78781   0.73349   0.00000  Uiso   1.00
N274   N     0.32140   0.90826   0.36010   0.00000  Uiso   1.00
N275   N     0.37331   0.16685   0.72473   0.00000  Uiso   1.00
N276   N     0.53941   0.86445   0.75250   0.00000  Uiso   1.00
C277   C     0.02572   0.94131   0.71728   0.00000  Uiso   1.00
C278   C     0.09725   0.00752   0.77084   0.00000  Uiso   1.00
C279   C     0.15084   0.01373   0.83291   0.00000  Uiso   1.00
C280   C     0.21229   0.07873   0.87481   0.00000  Uiso   1.00
C281   C     0.32224   0.17290   0.96094   0.00000  Uiso   1.00
C282   C     0.03516   0.93602   0.65365   0.00000  Uiso   1.00
C283   C     0.03653   0.88210   0.61719   0.00000  Uiso   1.00
C284   C     0.04570   0.88692   0.56044   0.00000  Uiso   1.00
C285   C     0.05919   0.87006   0.46460   0.00000  Uiso   1.00
C286   C     0.95426   0.95195   0.70268   0.00000  Uiso   1.00
C287   C     0.88759   0.91142   0.70742   0.00000  Uiso   1.00
C288   C     0.82864   0.92964   0.69192   0.00000  Uiso   1.00
C289   C     0.71651   0.93751   0.67221   0.00000  Uiso   1.00
C290   C     0.03958   0.04571   0.68130   0.00000  Uiso   1.00
C291   C     0.10478   0.06422   0.75130   0.00000  Uiso   1.00
C292   C     0.16617   0.12923   0.79311   0.00000  Uiso   1.00
C293   C     0.21983   0.13554   0.85524   0.00000  Uiso   1.00
C294   C     0.04269   0.99272   0.63411   0.00000  Uiso   1.00
C295   C     0.05186   0.99761   0.57739   0.00000  Uiso   1.00
C296   C     0.05324   0.94373   0.54086   0.00000  Uiso   1.00
C297   C     0.96178   0.00865   0.68314   0.00000  Uiso   1.00
C298   C     0.90293   0.02693   0.66762   0.00000  Uiso   1.00
C299   C     0.83618   0.98644   0.67234   0.00000  Uiso   1.00
H300   H     0.01986   0.89716   0.73249   0.00000  Uiso   1.00
H301   H     0.14499   0.96983   0.84802   0.00000  Uiso   1.00
H302   H     0.03069   0.83823   0.63232   0.00000  Uiso   1.00
H303   H     0.88178   0.86754   0.72254   0.00000  Uiso   1.00
H304   H     0.28706   0.07540   0.96747   0.00000  Uiso   1.00
H305   H     0.04602   0.79790   0.51267   0.00000  Uiso   1.00
H306   H     0.73201   0.85971   0.70291   0.00000  Uiso   1.00
H307   H     0.04544   0.08986   0.66609   0.00000  Uiso   1.00
H308   H     0.17198   0.17311   0.77798   0.00000  Uiso   1.00
H309   H     0.05768   0.04150   0.56228   0.00000  Uiso   1.00
H310   H     0.90877   0.07082   0.65250   0.00000  Uiso   1.00
H311   H     0.30897   0.24039   0.91062   0.00000  Uiso   1.00
H312   H     0.06792   0.96288   0.45581   0.00000  Uiso   1.00
H313   H     0.75392   0.02470   0.64606   0.00000  Uiso   1.00
O314   O     0.38081   0.20917   0.01384   0.00000  Uiso   1.00
O315   O     0.06456   0.84510   0.41715   0.00000  Uiso   1.00
O316   O     0.65259   0.92619   0.66674   0.00000  Uiso   1.00
N317   N     0.27484   0.10281   0.93874   0.00000  Uiso   1.00
N318   N     0.04950   0.84336   0.51353   0.00000  Uiso   1.00
N319   N     0.75592   0.90114   0.69137   0.00000  Uiso   1.00
N320   N     0.28663   0.19158   0.90815   0.00000  Uiso   1.00
N321   N     0.06128   0.93214   0.48294   0.00000  Uiso   1.00
N322   N     0.76770   0.98992   0.66078   0.00000  Uiso   1.00
C323   C     0.75888   0.64813   0.85898   0.00000  Uiso   1.00
C324   C     0.81530   0.67876   0.93429   0.00000  Uiso   1.00
C325   C     0.81707   0.72714   0.98106   0.00000  Uiso   1.00
C326   C     0.87311   0.74868   0.04756   0.00000  Uiso   1.00
C327   C     0.95271   0.80017   0.16161   0.00000  Uiso   1.00
C328   C     0.71654   0.57130   0.84229   0.00000  Uiso   1.00
C329   C     0.63529   0.52933   0.81170   0.00000  Uiso   1.00
C330   C     0.60820   0.46040   0.80075   0.00000  Uiso   1.00
C331   C     0.53449   0.34505   0.77193   0.00000  Uiso   1.00
C332   C     0.81085   0.66157   0.82431   0.00000  Uiso   1.00
C333   C     0.80887   0.69548   0.77859   0.00000  Uiso   1.00
C334   C     0.86117   0.70254   0.75249   0.00000  Uiso   1.00
C335   C     0.93388   0.72734   0.69575   0.00000  Uiso   1.00
C336   C     0.85525   0.60033   0.89392   0.00000  Uiso   1.00
C337   C     0.86763   0.65279   0.95326   0.00000  Uiso   1.00
C338   C     0.92369   0.67427   0.01971   0.00000  Uiso   1.00
C339   C     0.92555   0.72268   0.06657   0.00000  Uiso   1.00
C340   C     0.76888   0.54534   0.86127   0.00000  Uiso   1.00
C341   C     0.74191   0.47645   0.85036   0.00000  Uiso   1.00
C342   C     0.66064   0.43440   0.81976   0.00000  Uiso   1.00
C343   C     0.86319   0.63561   0.84329   0.00000  Uiso   1.00
C344   C     0.91549   0.64261   0.81725   0.00000  Uiso   1.00
C345   C     0.91360   0.67653   0.77150   0.00000  Uiso   1.00
H346   H     0.71813   0.66833   0.84421   0.00000  Uiso   1.00
H347   H     0.77655   0.74722   0.96635   0.00000  Uiso   1.00
H348   H     0.59480   0.54944   0.79702   0.00000  Uiso   1.00
H349   H     0.76836   0.71557   0.76392   0.00000  Uiso   1.00
H350   H     0.86438   0.82321   0.11015   0.00000  Uiso   1.00
H351   H     0.48115   0.40617   0.75307   0.00000  Uiso   1.00
H352   H     0.84713   0.75649   0.68327   0.00000  Uiso   1.00
H353   H     0.89600   0.58012   0.90869   0.00000  Uiso   1.00
H354   H     0.96419   0.65417   0.03438   0.00000  Uiso   1.00
H355   H     0.78243   0.45638   0.86504   0.00000  Uiso   1.00
H356   H     0.95599   0.62251   0.83194   0.00000  Uiso   1.00
H357   H     0.01667   0.74768   0.16536   0.00000  Uiso   1.00
H358   H     0.63344   0.33064   0.80828   0.00000  Uiso   1.00
H359   H     0.99942   0.68096   0.73848   0.00000  Uiso   1.00
O360   O     0.98215   0.83573   0.21928   0.00000  Uiso   1.00
O361   O     0.47937   0.28859   0.75079   0.00000  Uiso   1.00
O362   O     0.95953   0.74820   0.65922   0.00000  Uiso   1.00
N363   N     0.89088   0.79528   0.10589   0.00000  Uiso   1.00
N364   N     0.53258   0.40538   0.77206   0.00000  Uiso   1.00
N365   N     0.87473   0.73288   0.70678   0.00000  Uiso   1.00
N366   N     0.97282   0.75464   0.13560   0.00000  Uiso   1.00
N367   N     0.61453   0.36474   0.80177   0.00000  Uiso   1.00
N368   N     0.95667   0.69224   0.73649   0.00000  Uiso   1.00
C369   C     0.83976   0.12511   0.02415   0.00000  Uiso   1.00
C370   C     0.81885   0.12752   0.08173   0.00000  Uiso   1.00
C371   C     0.87238   0.16084   0.14963   0.00000  Uiso   1.00
C372   C     0.84145   0.15701   0.19445   0.00000  Uiso   1.00
C373   C     0.82138   0.16623   0.28726   0.00000  Uiso   1.00
C374   C     0.79455   0.15264   0.97804   0.00000  Uiso   1.00
C375   C     0.82765   0.20707   0.95874   0.00000  Uiso   1.00
C376   C     0.77625   0.22439   0.91627   0.00000  Uiso   1.00
C377   C     0.71844   0.27258   0.84805   0.00000  Uiso   1.00
C378   C     0.80300   0.04991   0.98449   0.00000  Uiso   1.00
C379   C     0.84320   0.01797   0.97060   0.00000  Uiso   1.00
C380   C     0.79891   0.94879   0.93354   0.00000  Uiso   1.00
C381   C     0.75423   0.83748   0.87534   0.00000  Uiso   1.00
C382   C     0.68962   0.05905   0.98301   0.00000  Uiso   1.00
C383   C     0.73730   0.09164   0.05938   0.00000  Uiso   1.00
C384   C     0.70627   0.08776   0.10411   0.00000  Uiso   1.00
C385   C     0.75975   0.12106   0.17207   0.00000  Uiso   1.00
C386   C     0.71300   0.11676   0.95569   0.00000  Uiso   1.00
C387   C     0.66154   0.13399   0.91323   0.00000  Uiso   1.00
C388   C     0.69455   0.18844   0.89388   0.00000  Uiso   1.00
C389   C     0.72145   0.01403   0.96214   0.00000  Uiso   1.00
C390   C     0.67709   0.94489   0.92509   0.00000  Uiso   1.00
C391   C     0.71721   0.91285   0.91116   0.00000  Uiso   1.00
H392   H     0.90325   0.15304   0.04154   0.00000  Uiso   1.00
H393   H     0.93549   0.18860   0.16690   0.00000  Uiso   1.00
H394   H     0.89076   0.23483   0.97604   0.00000  Uiso   1.00
H395   H     0.90631   0.04575   0.98790   0.00000  Uiso   1.00
H396   H     0.93527   0.21223   0.29603   0.00000  Uiso   1.00
H397   H     0.84095   0.30968   0.89357   0.00000  Uiso   1.00
H398   H     0.87374   0.91097   0.91858   0.00000  Uiso   1.00
H399   H     0.62613   0.03112   0.96561   0.00000  Uiso   1.00
H400   H     0.64316   0.05999   0.08680   0.00000  Uiso   1.00
H401   H     0.59843   0.10622   0.89594   0.00000  Uiso   1.00
H402   H     0.61398   0.91714   0.90781   0.00000  Uiso   1.00
H403   H     0.69800   0.10784   0.23102   0.00000  Uiso   1.00
H404   H     0.60368   0.20529   0.82856   0.00000  Uiso   1.00
H405   H     0.63647   0.80659   0.85357   0.00000  Uiso   1.00
O406   O     0.83284   0.18124   0.34462   0.00000  Uiso   1.00
O407   O     0.70909   0.30909   0.81660   0.00000  Uiso   1.00
O408   O     0.75211   0.78600   0.84942   0.00000  Uiso   1.00
N409   N     0.87709   0.18369   0.26410   0.00000  Uiso   1.00
N410   N     0.78891   0.27480   0.88783   0.00000  Uiso   1.00
N411   N     0.81956   0.90205   0.91120   0.00000  Uiso   1.00
N412   N     0.74942   0.12752   0.22912   0.00000  Uiso   1.00
N413   N     0.66124   0.21863   0.85285   0.00000  Uiso   1.00
N414   N     0.69189   0.84588   0.87622   0.00000  Uiso   1.00
C415   C     0.23263   0.61141   0.47335   0.00000  Uiso   1.00
C416   C     0.32018   0.63199   0.50509   0.00000  Uiso   1.00
C417   C     0.38031   0.68937   0.56061   0.00000  Uiso   1.00
C418   C     0.45655   0.69920   0.58191   0.00000  Uiso   1.00
C419   C     0.59014   0.73817   0.63620   0.00000  Uiso   1.00
C420   C     0.20737   0.60454   0.39971   0.00000  Uiso   1.00
C421   C     0.17264   0.63883   0.36662   0.00000  Uiso   1.00
C422   C     0.15390   0.62554   0.29921   0.00000  Uiso   1.00
C423   C     0.11230   0.62185   0.18989   0.00000  Uiso   1.00
C424   C     0.18984   0.53973   0.47353   0.00000  Uiso   1.00
C425   C     0.14036   0.51952   0.50249   0.00000  Uiso   1.00
C426   C     0.10685   0.45165   0.49722   0.00000  Uiso   1.00
C427   C     0.03804   0.34732   0.50251   0.00000  Uiso   1.00
C428   C     0.26108   0.52681   0.41247   0.00000  Uiso   1.00
C429   C     0.33563   0.58604   0.47202   0.00000  Uiso   1.00
C430   C     0.41179   0.59578   0.49325   0.00000  Uiso   1.00
C431   C     0.47203   0.65316   0.54879   0.00000  Uiso   1.00
C432   C     0.22282   0.55859   0.36664   0.00000  Uiso   1.00
C433   C     0.20412   0.54524   0.29926   0.00000  Uiso   1.00
C434   C     0.16938   0.57951   0.26608   0.00000  Uiso   1.00
C435   C     0.20529   0.49378   0.44046   0.00000  Uiso   1.00
C436   C     0.17184   0.42592   0.43514   0.00000  Uiso   1.00
C437   C     0.12233   0.40561   0.46409   0.00000  Uiso   1.00
H438   H     0.22060   0.64718   0.49909   0.00000  Uiso   1.00
H439   H     0.36833   0.72493   0.58618   0.00000  Uiso   1.00
H440   H     0.16068   0.67438   0.39222   0.00000  Uiso   1.00
H441   H     0.12842   0.55509   0.52808   0.00000  Uiso   1.00
H442   H     0.53894   0.79087   0.66814   0.00000  Uiso   1.00
H443   H     0.10108   0.68428   0.25916   0.00000  Uiso   1.00
H444   H     0.03303   0.43272   0.54564   0.00000  Uiso   1.00
H445   H     0.27311   0.49104   0.38672   0.00000  Uiso   1.00
H446   H     0.42373   0.56021   0.46764   0.00000  Uiso   1.00
H447   H     0.21608   0.50967   0.27369   0.00000  Uiso   1.00
H448   H     0.18381   0.39038   0.40954   0.00000  Uiso   1.00
H449   H     0.58390   0.65718   0.57192   0.00000  Uiso   1.00
H450   H     0.14604   0.55060   0.16295   0.00000  Uiso   1.00
H451   H     0.07800   0.29904   0.44943   0.00000  Uiso   1.00
O452   O     0.65956   0.77236   0.67528   0.00000  Uiso   1.00
O453   O     0.08509   0.63252   0.13872   0.00000  Uiso   1.00
O454   O     0.99582   0.30248   0.51457   0.00000  Uiso   1.00
N455   N     0.52885   0.74990   0.63439   0.00000  Uiso   1.00
N456   N     0.11949   0.65026   0.25203   0.00000  Uiso   1.00
N457   N     0.05585   0.41507   0.51985   0.00000  Uiso   1.00
N458   N     0.55305   0.67797   0.58263   0.00000  Uiso   1.00
N459   N     0.14368   0.57833   0.20026   0.00000  Uiso   1.00
N460   N     0.08005   0.34313   0.46808   0.00000  Uiso   1.00
C461   C     0.68554   0.50756   0.26742   0.00000  Uiso   1.00
C462   C     0.67093   0.54214   0.32033   0.00000  Uiso   1.00
C463   C     0.66956   0.52414   0.37551   0.00000  Uiso   1.00
C464   C     0.65520   0.56207   0.41804   0.00000  Uiso   1.00
C465   C     0.63437   0.60753   0.50204   0.00000  Uiso   1.00
C466   C     0.61423   0.48518   0.19991   0.00000  Uiso   1.00
C467   C     0.56520   0.41929   0.15386   0.00000  Uiso   1.00
C468   C     0.50312   0.40927   0.09502   0.00000  Uiso   1.00
C469   C     0.39430   0.36631   0.99205   0.00000  Uiso   1.00
C470   C     0.75564   0.56345   0.26652   0.00000  Uiso   1.00
C471   C     0.82551   0.56337   0.27645   0.00000  Uiso   1.00
C472   C     0.88248   0.61925   0.27367   0.00000  Uiso   1.00
C473   C     0.99323   0.69782   0.27412   0.00000  Uiso   1.00
C474   C     0.66246   0.60693   0.24481   0.00000  Uiso   1.00
C475   C     0.65839   0.59611   0.30804   0.00000  Uiso   1.00
C476   C     0.64403   0.63408   0.35050   0.00000  Uiso   1.00
C477   C     0.64264   0.61614   0.40574   0.00000  Uiso   1.00
C478   C     0.60169   0.53915   0.18763   0.00000  Uiso   1.00
C479   C     0.53967   0.52923   0.12884   0.00000  Uiso   1.00
C480   C     0.49056   0.46334   0.08271   0.00000  Uiso   1.00
C481   C     0.74311   0.61743   0.25424   0.00000  Uiso   1.00
C482   C     0.79998   0.67331   0.25144   0.00000  Uiso   1.00
C483   C     0.86992   0.67332   0.26136   0.00000  Uiso   1.00
H484   H     0.69530   0.46553   0.27698   0.00000  Uiso   1.00
H485   H     0.67926   0.48236   0.38500   0.00000  Uiso   1.00
H486   H     0.57492   0.37753   0.16337   0.00000  Uiso   1.00
H487   H     0.83519   0.52159   0.28595   0.00000  Uiso   1.00
H488   H     0.65592   0.52480   0.49933   0.00000  Uiso   1.00
H489   H     0.43594   0.30376   0.03201   0.00000  Uiso   1.00
H490   H     0.98476   0.60754   0.29048   0.00000  Uiso   1.00
H491   H     0.65270   0.64895   0.23525   0.00000  Uiso   1.00
H492   H     0.63433   0.67585   0.34098   0.00000  Uiso   1.00
H493   H     0.52999   0.57101   0.11936   0.00000  Uiso   1.00
H494   H     0.79026   0.71507   0.24193   0.00000  Uiso   1.00
H495   H     0.61945   0.68184   0.46360   0.00000  Uiso   1.00
H496   H     0.39947   0.46080   0.99628   0.00000  Uiso   1.00
H497   H     0.94829   0.76458   0.25476   0.00000  Uiso   1.00
O498   O     0.62633   0.61769   0.55176   0.00000  Uiso   1.00
O499   O     0.33774   0.32770   0.93866   0.00000  Uiso   1.00
O500   O     0.05779   0.72625   0.27777   0.00000  Uiso   1.00
N501   N     0.64987   0.55808   0.47642   0.00000  Uiso   1.00
N502   N     0.44419   0.35142   0.03951   0.00000  Uiso   1.00
N503   N     0.95729   0.63542   0.28114   0.00000  Uiso   1.00
N504   N     0.63025   0.64258   0.45720   0.00000  Uiso   1.00
N505   N     0.42457   0.43592   0.02029   0.00000  Uiso   1.00
N506   N     0.93767   0.71992   0.26192   0.00000  Uiso   1.00
C507   C     0.71552   0.10356   0.40826   0.00000  Uiso   1.00
C508   C     0.70898   0.10270   0.47269   0.00000  Uiso   1.00
C509   C     0.76846   0.14466   0.53746   0.00000  Uiso   1.00
C510   C     0.75078   0.13593   0.58972   0.00000  Uiso   1.00
C511   C     0.75197   0.14202   0.69161   0.00000  Uiso   1.00
C512   C     0.69468   0.03143   0.37221   0.00000  Uiso   1.00
C513   C     0.74213   0.01347   0.35247   0.00000  Uiso   1.00
C514   C     0.71240   0.94474   0.32014   0.00000  Uiso   1.00
C515   C     0.69137   0.84019   0.26598   0.00000  Uiso   1.00
C516   C     0.64891   0.11478   0.36457   0.00000  Uiso   1.00
C517   C     0.65786   0.16689   0.33839   0.00000  Uiso   1.00
C518   C     0.58959   0.16832   0.29960   0.00000  Uiso   1.00
C519   C     0.49749   0.19318   0.23358   0.00000  Uiso   1.00
C520   C     0.57836   0.01343   0.38591   0.00000  Uiso   1.00
C521   C     0.63448   0.05374   0.46055   0.00000  Uiso   1.00
C522   C     0.61671   0.04495   0.51272   0.00000  Uiso   1.00
C523   C     0.67614   0.08689   0.57755   0.00000  Uiso   1.00
C524   C     0.62019   0.98247   0.36006   0.00000  Uiso   1.00
C525   C     0.59038   0.91375   0.32774   0.00000  Uiso   1.00
C526   C     0.63777   0.89570   0.30797   0.00000  Uiso   1.00
C527   C     0.57441   0.06582   0.35242   0.00000  Uiso   1.00
C528   C     0.50611   0.06717   0.31366   0.00000  Uiso   1.00
C529   C     0.51496   0.11928   0.28744   0.00000  Uiso   1.00
H530   H     0.77352   0.14167   0.41771   0.00000  Uiso   1.00
H531   H     0.82610   0.18254   0.54683   0.00000  Uiso   1.00
H532   H     0.79977   0.05137   0.36187   0.00000  Uiso   1.00
H533   H     0.71552   0.20476   0.34780   0.00000  Uiso   1.00
H534   H     0.85156   0.20625   0.68463   0.00000  Uiso   1.00
H535   H     0.79603   0.92966   0.29461   0.00000  Uiso   1.00
H536   H     0.61836   0.25313   0.26493   0.00000  Uiso   1.00
H537   H     0.52036   0.97531   0.37645   0.00000  Uiso   1.00
H538   H     0.55905   0.00706   0.50331   0.00000  Uiso   1.00
H539   H     0.53272   0.87589   0.31835   0.00000  Uiso   1.00
H540   H     0.44847   0.02928   0.30428   0.00000  Uiso   1.00
H541   H     0.63481   0.06382   0.64931   0.00000  Uiso   1.00
H542   H     0.57928   0.78724   0.25929   0.00000  Uiso   1.00
H543   H     0.40162   0.11070   0.22961   0.00000  Uiso   1.00
O544   O     0.77321   0.15890   0.75117   0.00000  Uiso   1.00
O545   O     0.70036   0.79604   0.23947   0.00000  Uiso   1.00
O546   O     0.46727   0.22042   0.20053   0.00000  Uiso   1.00
N547   N     0.79523   0.16838   0.65891   0.00000  Uiso   1.00
N548   N     0.74332   0.90979   0.29427   0.00000  Uiso   1.00
N549   N     0.57722   0.21219   0.26651   0.00000  Uiso   1.00
N550   N     0.67860   0.09174   0.63990   0.00000  Uiso   1.00
N551   N     0.62669   0.83315   0.27527   0.00000  Uiso   1.00
N552   N     0.46059   0.13555   0.24750   0.00000  Uiso   1.00
