data_job_02112
_audit_creation_date              2018-12-19
_audit_creation_method            'Materials Studio'
_symmetry_space_group_name_H-M    'P1'
_symmetry_Int_Tables_number       1
_symmetry_cell_setting            triclinic
loop_
_symmetry_equiv_pos_as_xyz
  x,y,z
_cell_length_a                    37.3874
_cell_length_b                    8.0300
_cell_length_c                    18.8795
_cell_angle_alpha                 90.0000
_cell_angle_beta                  114.8673
_cell_angle_gamma                 90.0000
loop_
_atom_site_label
_atom_site_type_symbol
_atom_site_fract_x
_atom_site_fract_y
_atom_site_fract_z
_atom_site_U_iso_or_equiv
_atom_site_adp_type
_atom_site_occupancy
C1     C     0.87376   0.98612   0.66221   0.00000  Uiso   1.00
C2     C     0.87234   0.07831   0.59046   0.00000  Uiso   1.00
C3     C     0.88185   0.01137   0.53280   0.00000  Uiso   1.00
C4     C     0.87866   0.11608   0.47190   0.00000  Uiso   1.00
C5     C     0.87834   0.23406   0.36098   0.00000  Uiso   1.00
C6     C     0.90087   0.08774   0.73258   0.00000  Uiso   1.00
C7     C     0.93436   0.02871   0.79441   0.00000  Uiso   1.00
C8     C     0.95518   0.14136   0.85315   0.00000  Uiso   1.00
C9     C     0.99913   0.27394   0.96289   0.00000  Uiso   1.00
C10    C     0.83260   0.00132   0.65975   0.00000  Uiso   1.00
C11    C     0.80870   0.86962   0.66037   0.00000  Uiso   1.00
C12    C     0.77204   0.90951   0.65782   0.00000  Uiso   1.00
C13    C     0.70999   0.90791   0.65448   0.00000  Uiso   1.00
C14    C     0.85117   0.29112   0.65659   0.00000  Uiso   1.00
C15    C     0.86007   0.24398   0.58741   0.00000  Uiso   1.00
C16    C     0.85686   0.34882   0.52658   0.00000  Uiso   1.00
C17    C     0.86636   0.28204   0.46884   0.00000  Uiso   1.00
C18    C     0.88860   0.25340   0.72952   0.00000  Uiso   1.00
C19    C     0.90937   0.36616   0.78819   0.00000  Uiso   1.00
C20    C     0.94289   0.30732   0.85009   0.00000  Uiso   1.00
C21    C     0.82033   0.16698   0.65669   0.00000  Uiso   1.00
C22    C     0.78370   0.20708   0.65414   0.00000  Uiso   1.00
C23    C     0.75975   0.07547   0.65476   0.00000  Uiso   1.00
H24    H     0.88332   0.85715   0.66460   0.00000  Uiso   1.00
H25    H     0.89135   0.88316   0.53519   0.00000  Uiso   1.00
H26    H     0.94385   0.90050   0.79676   0.00000  Uiso   1.00
H27    H     0.81820   0.74144   0.66274   0.00000  Uiso   1.00
H28    H     0.89486   0.98508   0.39039   0.00000  Uiso   1.00
H29    H     0.00555   0.02163   0.94194   0.00000  Uiso   1.00
H30    H     0.74060   0.68622   0.65933   0.00000  Uiso   1.00
H31    H     0.84162   0.42010   0.65421   0.00000  Uiso   1.00
H32    H     0.84736   0.47701   0.52423   0.00000  Uiso   1.00
H33    H     0.89986   0.49435   0.78580   0.00000  Uiso   1.00
H34    H     0.77422   0.33529   0.65178   0.00000  Uiso   1.00
H35    H     0.85916   0.46708   0.38150   0.00000  Uiso   1.00
H36    H     0.96985   0.50362   0.93305   0.00000  Uiso   1.00
H37    H     0.70490   0.16821   0.65043   0.00000  Uiso   1.00
O38    O     0.88155   0.25338   0.30064   0.00000  Uiso   1.00
O39    O     0.02677   0.30130   0.02426   0.00000  Uiso   1.00
O40    O     0.67916   0.86126   0.65347   0.00000  Uiso   1.00
N41    N     0.88566   0.09070   0.40613   0.00000  Uiso   1.00
N42    N     0.98915   0.12487   0.92179   0.00000  Uiso   1.00
N43    N     0.74145   0.81129   0.65759   0.00000  Uiso   1.00
N44    N     0.86645   0.35006   0.40134   0.00000  Uiso   1.00
N45    N     0.96994   0.38423   0.91700   0.00000  Uiso   1.00
N46    N     0.72224   0.07065   0.65280   0.00000  Uiso   1.00
C47    C     0.37376   0.48612   0.66221   0.00000  Uiso   1.00
C48    C     0.37234   0.57831   0.59046   0.00000  Uiso   1.00
C49    C     0.38185   0.51137   0.53280   0.00000  Uiso   1.00
C50    C     0.37866   0.61608   0.47190   0.00000  Uiso   1.00
C51    C     0.37834   0.73406   0.36098   0.00000  Uiso   1.00
C52    C     0.40087   0.58774   0.73258   0.00000  Uiso   1.00
C53    C     0.43436   0.52871   0.79441   0.00000  Uiso   1.00
C54    C     0.45518   0.64136   0.85315   0.00000  Uiso   1.00
C55    C     0.49913   0.77394   0.96289   0.00000  Uiso   1.00
C56    C     0.33260   0.50132   0.65975   0.00000  Uiso   1.00
C57    C     0.30870   0.36962   0.66037   0.00000  Uiso   1.00
C58    C     0.27204   0.40951   0.65782   0.00000  Uiso   1.00
C59    C     0.20999   0.40791   0.65448   0.00000  Uiso   1.00
C60    C     0.35117   0.79112   0.65659   0.00000  Uiso   1.00
C61    C     0.36007   0.74398   0.58741   0.00000  Uiso   1.00
C62    C     0.35686   0.84882   0.52658   0.00000  Uiso   1.00
C63    C     0.36636   0.78204   0.46884   0.00000  Uiso   1.00
C64    C     0.38860   0.75340   0.72952   0.00000  Uiso   1.00
C65    C     0.40937   0.86616   0.78819   0.00000  Uiso   1.00
C66    C     0.44289   0.80732   0.85009   0.00000  Uiso   1.00
C67    C     0.32033   0.66698   0.65669   0.00000  Uiso   1.00
C68    C     0.28370   0.70708   0.65414   0.00000  Uiso   1.00
C69    C     0.25975   0.57547   0.65476   0.00000  Uiso   1.00
H70    H     0.38332   0.35715   0.66460   0.00000  Uiso   1.00
H71    H     0.39135   0.38316   0.53519   0.00000  Uiso   1.00
H72    H     0.44385   0.40050   0.79676   0.00000  Uiso   1.00
H73    H     0.31820   0.24144   0.66274   0.00000  Uiso   1.00
H74    H     0.39486   0.48508   0.39039   0.00000  Uiso   1.00
H75    H     0.50555   0.52163   0.94194   0.00000  Uiso   1.00
H76    H     0.24060   0.18622   0.65933   0.00000  Uiso   1.00
H77    H     0.34162   0.92010   0.65421   0.00000  Uiso   1.00
H78    H     0.34736   0.97701   0.52423   0.00000  Uiso   1.00
H79    H     0.39986   0.99435   0.78580   0.00000  Uiso   1.00
H80    H     0.27422   0.83529   0.65178   0.00000  Uiso   1.00
H81    H     0.35916   0.96708   0.38150   0.00000  Uiso   1.00
H82    H     0.46985   0.00362   0.93305   0.00000  Uiso   1.00
H83    H     0.20490   0.66821   0.65043   0.00000  Uiso   1.00
O84    O     0.38155   0.75338   0.30064   0.00000  Uiso   1.00
O85    O     0.52677   0.80130   0.02426   0.00000  Uiso   1.00
O86    O     0.17916   0.36126   0.65347   0.00000  Uiso   1.00
N87    N     0.38566   0.59070   0.40613   0.00000  Uiso   1.00
N88    N     0.48915   0.62487   0.92179   0.00000  Uiso   1.00
N89    N     0.24145   0.31129   0.65759   0.00000  Uiso   1.00
N90    N     0.36645   0.85006   0.40134   0.00000  Uiso   1.00
N91    N     0.46994   0.88423   0.91700   0.00000  Uiso   1.00
N92    N     0.22224   0.57065   0.65280   0.00000  Uiso   1.00
C93    C     0.12624   0.98612   0.83779   0.00000  Uiso   1.00
C94    C     0.12766   0.07831   0.90954   0.00000  Uiso   1.00
C95    C     0.11815   0.01137   0.96720   0.00000  Uiso   1.00
C96    C     0.12134   0.11608   0.02810   0.00000  Uiso   1.00
C97    C     0.12166   0.23406   0.13902   0.00000  Uiso   1.00
C98    C     0.09913   0.08774   0.76742   0.00000  Uiso   1.00
C99    C     0.06564   0.02871   0.70559   0.00000  Uiso   1.00
C100   C     0.04482   0.14136   0.64685   0.00000  Uiso   1.00
C101   C     0.00087   0.27394   0.53711   0.00000  Uiso   1.00
C102   C     0.16740   0.00132   0.84025   0.00000  Uiso   1.00
C103   C     0.19130   0.86962   0.83963   0.00000  Uiso   1.00
C104   C     0.22796   0.90951   0.84218   0.00000  Uiso   1.00
C105   C     0.29001   0.90791   0.84552   0.00000  Uiso   1.00
C106   C     0.14883   0.29112   0.84341   0.00000  Uiso   1.00
C107   C     0.13993   0.24398   0.91259   0.00000  Uiso   1.00
C108   C     0.14314   0.34882   0.97342   0.00000  Uiso   1.00
C109   C     0.13364   0.28204   0.03116   0.00000  Uiso   1.00
C110   C     0.11140   0.25340   0.77048   0.00000  Uiso   1.00
C111   C     0.09063   0.36616   0.71181   0.00000  Uiso   1.00
C112   C     0.05711   0.30732   0.64991   0.00000  Uiso   1.00
C113   C     0.17967   0.16698   0.84331   0.00000  Uiso   1.00
C114   C     0.21630   0.20708   0.84586   0.00000  Uiso   1.00
C115   C     0.24025   0.07547   0.84524   0.00000  Uiso   1.00
H116   H     0.11668   0.85715   0.83540   0.00000  Uiso   1.00
H117   H     0.10865   0.88316   0.96481   0.00000  Uiso   1.00
H118   H     0.05615   0.90050   0.70324   0.00000  Uiso   1.00
H119   H     0.18180   0.74144   0.83726   0.00000  Uiso   1.00
H120   H     0.10514   0.98508   0.10961   0.00000  Uiso   1.00
H121   H     0.99445   0.02163   0.55806   0.00000  Uiso   1.00
H122   H     0.25940   0.68622   0.84067   0.00000  Uiso   1.00
H123   H     0.15838   0.42010   0.84579   0.00000  Uiso   1.00
H124   H     0.15264   0.47701   0.97577   0.00000  Uiso   1.00
H125   H     0.10014   0.49435   0.71420   0.00000  Uiso   1.00
H126   H     0.22578   0.33529   0.84822   0.00000  Uiso   1.00
H127   H     0.14084   0.46708   0.11850   0.00000  Uiso   1.00
H128   H     0.03015   0.50362   0.56695   0.00000  Uiso   1.00
H129   H     0.29510   0.16821   0.84957   0.00000  Uiso   1.00
O130   O     0.11845   0.25338   0.19936   0.00000  Uiso   1.00
O131   O     0.97323   0.30130   0.47574   0.00000  Uiso   1.00
O132   O     0.32084   0.86126   0.84653   0.00000  Uiso   1.00
N133   N     0.11434   0.09070   0.09387   0.00000  Uiso   1.00
N134   N     0.01085   0.12487   0.57821   0.00000  Uiso   1.00
N135   N     0.25855   0.81129   0.84241   0.00000  Uiso   1.00
N136   N     0.13355   0.35006   0.09866   0.00000  Uiso   1.00
N137   N     0.03006   0.38423   0.58300   0.00000  Uiso   1.00
N138   N     0.27776   0.07065   0.84720   0.00000  Uiso   1.00
C139   C     0.62624   0.48612   0.83779   0.00000  Uiso   1.00
C140   C     0.62766   0.57831   0.90954   0.00000  Uiso   1.00
C141   C     0.61815   0.51137   0.96720   0.00000  Uiso   1.00
C142   C     0.62134   0.61608   0.02810   0.00000  Uiso   1.00
C143   C     0.62166   0.73406   0.13902   0.00000  Uiso   1.00
C144   C     0.59913   0.58774   0.76742   0.00000  Uiso   1.00
C145   C     0.56564   0.52871   0.70559   0.00000  Uiso   1.00
C146   C     0.54482   0.64136   0.64685   0.00000  Uiso   1.00
C147   C     0.50087   0.77394   0.53711   0.00000  Uiso   1.00
C148   C     0.66740   0.50132   0.84025   0.00000  Uiso   1.00
C149   C     0.69130   0.36962   0.83963   0.00000  Uiso   1.00
C150   C     0.72796   0.40951   0.84218   0.00000  Uiso   1.00
C151   C     0.79001   0.40791   0.84552   0.00000  Uiso   1.00
C152   C     0.64883   0.79112   0.84341   0.00000  Uiso   1.00
C153   C     0.63993   0.74398   0.91259   0.00000  Uiso   1.00
C154   C     0.64314   0.84882   0.97342   0.00000  Uiso   1.00
C155   C     0.63364   0.78204   0.03116   0.00000  Uiso   1.00
C156   C     0.61140   0.75340   0.77048   0.00000  Uiso   1.00
C157   C     0.59063   0.86616   0.71181   0.00000  Uiso   1.00
C158   C     0.55711   0.80732   0.64991   0.00000  Uiso   1.00
C159   C     0.67967   0.66698   0.84331   0.00000  Uiso   1.00
C160   C     0.71630   0.70708   0.84586   0.00000  Uiso   1.00
C161   C     0.74025   0.57547   0.84524   0.00000  Uiso   1.00
H162   H     0.61668   0.35715   0.83540   0.00000  Uiso   1.00
H163   H     0.60865   0.38316   0.96481   0.00000  Uiso   1.00
H164   H     0.55615   0.40050   0.70324   0.00000  Uiso   1.00
H165   H     0.68180   0.24144   0.83726   0.00000  Uiso   1.00
H166   H     0.60514   0.48508   0.10961   0.00000  Uiso   1.00
H167   H     0.49445   0.52163   0.55806   0.00000  Uiso   1.00
H168   H     0.75940   0.18622   0.84067   0.00000  Uiso   1.00
H169   H     0.65838   0.92010   0.84579   0.00000  Uiso   1.00
H170   H     0.65264   0.97701   0.97577   0.00000  Uiso   1.00
H171   H     0.60014   0.99435   0.71420   0.00000  Uiso   1.00
H172   H     0.72578   0.83529   0.84822   0.00000  Uiso   1.00
H173   H     0.64084   0.96708   0.11850   0.00000  Uiso   1.00
H174   H     0.53015   0.00362   0.56695   0.00000  Uiso   1.00
H175   H     0.79510   0.66821   0.84957   0.00000  Uiso   1.00
O176   O     0.61845   0.75338   0.19936   0.00000  Uiso   1.00
O177   O     0.47323   0.80130   0.47574   0.00000  Uiso   1.00
O178   O     0.82084   0.36126   0.84653   0.00000  Uiso   1.00
N179   N     0.61434   0.59070   0.09387   0.00000  Uiso   1.00
N180   N     0.51085   0.62487   0.57821   0.00000  Uiso   1.00
N181   N     0.75855   0.31129   0.84241   0.00000  Uiso   1.00
N182   N     0.63355   0.85006   0.09866   0.00000  Uiso   1.00
N183   N     0.53006   0.88423   0.58300   0.00000  Uiso   1.00
N184   N     0.77776   0.57065   0.84720   0.00000  Uiso   1.00
C185   C     0.12624   0.01388   0.33779   0.00000  Uiso   1.00
C186   C     0.12766   0.92169   0.40954   0.00000  Uiso   1.00
C187   C     0.11815   0.98863   0.46720   0.00000  Uiso   1.00
C188   C     0.12134   0.88392   0.52810   0.00000  Uiso   1.00
C189   C     0.12166   0.76594   0.63902   0.00000  Uiso   1.00
C190   C     0.09913   0.91226   0.26742   0.00000  Uiso   1.00
C191   C     0.06564   0.97129   0.20559   0.00000  Uiso   1.00
C192   C     0.04482   0.85864   0.14685   0.00000  Uiso   1.00
C193   C     0.00087   0.72606   0.03711   0.00000  Uiso   1.00
C194   C     0.16740   0.99868   0.34025   0.00000  Uiso   1.00
C195   C     0.19130   0.13038   0.33963   0.00000  Uiso   1.00
C196   C     0.22796   0.09049   0.34218   0.00000  Uiso   1.00
C197   C     0.29001   0.09209   0.34552   0.00000  Uiso   1.00
C198   C     0.14883   0.70888   0.34341   0.00000  Uiso   1.00
C199   C     0.13993   0.75602   0.41259   0.00000  Uiso   1.00
C200   C     0.14314   0.65118   0.47342   0.00000  Uiso   1.00
C201   C     0.13364   0.71796   0.53116   0.00000  Uiso   1.00
C202   C     0.11140   0.74660   0.27048   0.00000  Uiso   1.00
C203   C     0.09063   0.63384   0.21181   0.00000  Uiso   1.00
C204   C     0.05711   0.69268   0.14991   0.00000  Uiso   1.00
C205   C     0.17967   0.83302   0.34331   0.00000  Uiso   1.00
C206   C     0.21630   0.79292   0.34586   0.00000  Uiso   1.00
C207   C     0.24025   0.92453   0.34524   0.00000  Uiso   1.00
H208   H     0.11668   0.14285   0.33540   0.00000  Uiso   1.00
H209   H     0.10865   0.11684   0.46481   0.00000  Uiso   1.00
H210   H     0.05615   0.09950   0.20324   0.00000  Uiso   1.00
H211   H     0.18180   0.25856   0.33726   0.00000  Uiso   1.00
H212   H     0.10514   0.01492   0.60961   0.00000  Uiso   1.00
H213   H     0.99445   0.97837   0.05806   0.00000  Uiso   1.00
H214   H     0.25940   0.31378   0.34067   0.00000  Uiso   1.00
H215   H     0.15838   0.57990   0.34579   0.00000  Uiso   1.00
H216   H     0.15264   0.52299   0.47577   0.00000  Uiso   1.00
H217   H     0.10014   0.50565   0.21420   0.00000  Uiso   1.00
H218   H     0.22578   0.66471   0.34822   0.00000  Uiso   1.00
H219   H     0.14084   0.53292   0.61850   0.00000  Uiso   1.00
H220   H     0.03015   0.49638   0.06695   0.00000  Uiso   1.00
H221   H     0.29510   0.83179   0.34957   0.00000  Uiso   1.00
O222   O     0.11845   0.74662   0.69936   0.00000  Uiso   1.00
O223   O     0.97323   0.69870   0.97574   0.00000  Uiso   1.00
O224   O     0.32084   0.13874   0.34653   0.00000  Uiso   1.00
N225   N     0.11434   0.90930   0.59387   0.00000  Uiso   1.00
N226   N     0.01085   0.87513   0.07821   0.00000  Uiso   1.00
N227   N     0.25855   0.18871   0.34241   0.00000  Uiso   1.00
N228   N     0.13355   0.64994   0.59866   0.00000  Uiso   1.00
N229   N     0.03006   0.61577   0.08300   0.00000  Uiso   1.00
N230   N     0.27776   0.92935   0.34720   0.00000  Uiso   1.00
C231   C     0.62624   0.51388   0.33779   0.00000  Uiso   1.00
C232   C     0.62766   0.42169   0.40954   0.00000  Uiso   1.00
C233   C     0.61815   0.48863   0.46720   0.00000  Uiso   1.00
C234   C     0.62134   0.38392   0.52810   0.00000  Uiso   1.00
C235   C     0.62166   0.26594   0.63902   0.00000  Uiso   1.00
C236   C     0.59913   0.41226   0.26742   0.00000  Uiso   1.00
C237   C     0.56564   0.47129   0.20559   0.00000  Uiso   1.00
C238   C     0.54482   0.35864   0.14685   0.00000  Uiso   1.00
C239   C     0.50087   0.22606   0.03711   0.00000  Uiso   1.00
C240   C     0.66740   0.49868   0.34025   0.00000  Uiso   1.00
C241   C     0.69130   0.63038   0.33963   0.00000  Uiso   1.00
C242   C     0.72796   0.59049   0.34218   0.00000  Uiso   1.00
C243   C     0.79001   0.59209   0.34552   0.00000  Uiso   1.00
C244   C     0.64883   0.20888   0.34341   0.00000  Uiso   1.00
C245   C     0.63993   0.25602   0.41259   0.00000  Uiso   1.00
C246   C     0.64314   0.15118   0.47342   0.00000  Uiso   1.00
C247   C     0.63364   0.21796   0.53116   0.00000  Uiso   1.00
C248   C     0.61140   0.24660   0.27048   0.00000  Uiso   1.00
C249   C     0.59063   0.13384   0.21181   0.00000  Uiso   1.00
C250   C     0.55711   0.19268   0.14991   0.00000  Uiso   1.00
C251   C     0.67967   0.33302   0.34331   0.00000  Uiso   1.00
C252   C     0.71630   0.29292   0.34586   0.00000  Uiso   1.00
C253   C     0.74025   0.42453   0.34524   0.00000  Uiso   1.00
H254   H     0.61668   0.64285   0.33540   0.00000  Uiso   1.00
H255   H     0.60865   0.61684   0.46481   0.00000  Uiso   1.00
H256   H     0.55615   0.59950   0.20324   0.00000  Uiso   1.00
H257   H     0.68180   0.75856   0.33726   0.00000  Uiso   1.00
H258   H     0.60514   0.51492   0.60961   0.00000  Uiso   1.00
H259   H     0.49445   0.47837   0.05806   0.00000  Uiso   1.00
H260   H     0.75940   0.81378   0.34067   0.00000  Uiso   1.00
H261   H     0.65838   0.07990   0.34579   0.00000  Uiso   1.00
H262   H     0.65264   0.02299   0.47577   0.00000  Uiso   1.00
H263   H     0.60014   0.00565   0.21420   0.00000  Uiso   1.00
H264   H     0.72578   0.16471   0.34822   0.00000  Uiso   1.00
H265   H     0.64084   0.03292   0.61850   0.00000  Uiso   1.00
H266   H     0.53015   0.99638   0.06695   0.00000  Uiso   1.00
H267   H     0.79510   0.33179   0.34957   0.00000  Uiso   1.00
O268   O     0.61845   0.24662   0.69936   0.00000  Uiso   1.00
O269   O     0.47323   0.19870   0.97574   0.00000  Uiso   1.00
O270   O     0.82084   0.63874   0.34653   0.00000  Uiso   1.00
N271   N     0.61434   0.40930   0.59387   0.00000  Uiso   1.00
N272   N     0.51085   0.37513   0.07821   0.00000  Uiso   1.00
N273   N     0.75855   0.68871   0.34241   0.00000  Uiso   1.00
N274   N     0.63355   0.14994   0.59866   0.00000  Uiso   1.00
N275   N     0.53006   0.11577   0.08300   0.00000  Uiso   1.00
N276   N     0.77776   0.42935   0.34720   0.00000  Uiso   1.00
C277   C     0.87376   0.01388   0.16221   0.00000  Uiso   1.00
C278   C     0.87234   0.92169   0.09046   0.00000  Uiso   1.00
C279   C     0.88185   0.98863   0.03280   0.00000  Uiso   1.00
C280   C     0.87866   0.88392   0.97190   0.00000  Uiso   1.00
C281   C     0.87834   0.76594   0.86098   0.00000  Uiso   1.00
C282   C     0.90087   0.91226   0.23258   0.00000  Uiso   1.00
C283   C     0.93436   0.97129   0.29441   0.00000  Uiso   1.00
C284   C     0.95518   0.85864   0.35315   0.00000  Uiso   1.00
C285   C     0.99913   0.72606   0.46289   0.00000  Uiso   1.00
C286   C     0.83260   0.99868   0.15975   0.00000  Uiso   1.00
C287   C     0.80870   0.13038   0.16037   0.00000  Uiso   1.00
C288   C     0.77204   0.09049   0.15782   0.00000  Uiso   1.00
C289   C     0.70999   0.09209   0.15448   0.00000  Uiso   1.00
C290   C     0.85117   0.70888   0.15659   0.00000  Uiso   1.00
C291   C     0.86007   0.75602   0.08741   0.00000  Uiso   1.00
C292   C     0.85686   0.65118   0.02658   0.00000  Uiso   1.00
C293   C     0.86636   0.71796   0.96884   0.00000  Uiso   1.00
C294   C     0.88860   0.74660   0.22952   0.00000  Uiso   1.00
C295   C     0.90937   0.63384   0.28819   0.00000  Uiso   1.00
C296   C     0.94289   0.69268   0.35009   0.00000  Uiso   1.00
C297   C     0.82033   0.83302   0.15669   0.00000  Uiso   1.00
C298   C     0.78370   0.79292   0.15414   0.00000  Uiso   1.00
C299   C     0.75975   0.92453   0.15476   0.00000  Uiso   1.00
H300   H     0.88332   0.14285   0.16460   0.00000  Uiso   1.00
H301   H     0.89135   0.11684   0.03519   0.00000  Uiso   1.00
H302   H     0.94385   0.09950   0.29676   0.00000  Uiso   1.00
H303   H     0.81820   0.25856   0.16274   0.00000  Uiso   1.00
H304   H     0.89486   0.01492   0.89039   0.00000  Uiso   1.00
H305   H     0.00555   0.97837   0.44194   0.00000  Uiso   1.00
H306   H     0.74060   0.31378   0.15933   0.00000  Uiso   1.00
H307   H     0.84162   0.57990   0.15421   0.00000  Uiso   1.00
H308   H     0.84736   0.52299   0.02423   0.00000  Uiso   1.00
H309   H     0.89986   0.50565   0.28580   0.00000  Uiso   1.00
H310   H     0.77422   0.66471   0.15178   0.00000  Uiso   1.00
H311   H     0.85916   0.53292   0.88150   0.00000  Uiso   1.00
H312   H     0.96985   0.49638   0.43305   0.00000  Uiso   1.00
H313   H     0.70490   0.83179   0.15043   0.00000  Uiso   1.00
O314   O     0.88155   0.74662   0.80064   0.00000  Uiso   1.00
O315   O     0.02677   0.69870   0.52426   0.00000  Uiso   1.00
O316   O     0.67916   0.13874   0.15347   0.00000  Uiso   1.00
N317   N     0.88566   0.90930   0.90613   0.00000  Uiso   1.00
N318   N     0.98915   0.87513   0.42179   0.00000  Uiso   1.00
N319   N     0.74145   0.18871   0.15759   0.00000  Uiso   1.00
N320   N     0.86645   0.64994   0.90134   0.00000  Uiso   1.00
N321   N     0.96994   0.61577   0.41700   0.00000  Uiso   1.00
N322   N     0.72224   0.92935   0.15280   0.00000  Uiso   1.00
C323   C     0.37376   0.51388   0.16221   0.00000  Uiso   1.00
C324   C     0.37234   0.42169   0.09046   0.00000  Uiso   1.00
C325   C     0.38185   0.48863   0.03280   0.00000  Uiso   1.00
C326   C     0.37866   0.38392   0.97190   0.00000  Uiso   1.00
C327   C     0.37834   0.26594   0.86098   0.00000  Uiso   1.00
C328   C     0.40087   0.41226   0.23258   0.00000  Uiso   1.00
C329   C     0.43436   0.47129   0.29441   0.00000  Uiso   1.00
C330   C     0.45518   0.35864   0.35315   0.00000  Uiso   1.00
C331   C     0.49913   0.22606   0.46289   0.00000  Uiso   1.00
C332   C     0.33260   0.49868   0.15975   0.00000  Uiso   1.00
C333   C     0.30870   0.63038   0.16037   0.00000  Uiso   1.00
C334   C     0.27204   0.59049   0.15782   0.00000  Uiso   1.00
C335   C     0.20999   0.59209   0.15448   0.00000  Uiso   1.00
C336   C     0.35117   0.20888   0.15659   0.00000  Uiso   1.00
C337   C     0.36007   0.25602   0.08741   0.00000  Uiso   1.00
C338   C     0.35686   0.15118   0.02658   0.00000  Uiso   1.00
C339   C     0.36636   0.21796   0.96884   0.00000  Uiso   1.00
C340   C     0.38860   0.24660   0.22952   0.00000  Uiso   1.00
C341   C     0.40937   0.13384   0.28819   0.00000  Uiso   1.00
C342   C     0.44289   0.19268   0.35009   0.00000  Uiso   1.00
C343   C     0.32033   0.33302   0.15669   0.00000  Uiso   1.00
C344   C     0.28370   0.29292   0.15414   0.00000  Uiso   1.00
C345   C     0.25975   0.42453   0.15476   0.00000  Uiso   1.00
H346   H     0.38332   0.64285   0.16460   0.00000  Uiso   1.00
H347   H     0.39135   0.61684   0.03519   0.00000  Uiso   1.00
H348   H     0.44385   0.59950   0.29676   0.00000  Uiso   1.00
H349   H     0.31820   0.75856   0.16274   0.00000  Uiso   1.00
H350   H     0.39486   0.51492   0.89039   0.00000  Uiso   1.00
H351   H     0.50555   0.47837   0.44194   0.00000  Uiso   1.00
H352   H     0.24060   0.81378   0.15933   0.00000  Uiso   1.00
H353   H     0.34162   0.07990   0.15421   0.00000  Uiso   1.00
H354   H     0.34736   0.02299   0.02423   0.00000  Uiso   1.00
H355   H     0.39986   0.00565   0.28580   0.00000  Uiso   1.00
H356   H     0.27422   0.16471   0.15178   0.00000  Uiso   1.00
H357   H     0.35916   0.03292   0.88150   0.00000  Uiso   1.00
H358   H     0.46985   0.99638   0.43305   0.00000  Uiso   1.00
H359   H     0.20490   0.33179   0.15043   0.00000  Uiso   1.00
O360   O     0.38155   0.24662   0.80064   0.00000  Uiso   1.00
O361   O     0.52677   0.19870   0.52426   0.00000  Uiso   1.00
O362   O     0.17916   0.63874   0.15347   0.00000  Uiso   1.00
N363   N     0.38566   0.40930   0.90613   0.00000  Uiso   1.00
N364   N     0.48915   0.37513   0.42179   0.00000  Uiso   1.00
N365   N     0.24145   0.68871   0.15759   0.00000  Uiso   1.00
N366   N     0.36645   0.14994   0.90134   0.00000  Uiso   1.00
N367   N     0.46994   0.11577   0.41700   0.00000  Uiso   1.00
N368   N     0.22224   0.42935   0.15280   0.00000  Uiso   1.00
