data_job_03807
_audit_creation_date              2018-12-19
_audit_creation_method            'Materials Studio'
_symmetry_space_group_name_H-M    'P1'
_symmetry_Int_Tables_number       1
_symmetry_cell_setting            triclinic
loop_
_symmetry_equiv_pos_as_xyz
  x,y,z
_cell_length_a                    22.5508
_cell_length_b                    22.5508
_cell_length_c                    12.2475
_cell_angle_alpha                 90.0000
_cell_angle_beta                  90.0000
_cell_angle_gamma                 120.0000
loop_
_atom_site_label
_atom_site_type_symbol
_atom_site_fract_x
_atom_site_fract_y
_atom_site_fract_z
_atom_site_U_iso_or_equiv
_atom_site_adp_type
_atom_site_occupancy
C1     C     0.19031   0.71076   0.63794   0.00000  Uiso   1.00
C2     C     0.12481   0.71478   0.63440   0.00000  Uiso   1.00
C3     C     0.11703   0.76513   0.58233   0.00000  Uiso   1.00
C4     C     0.05303   0.75971   0.58857   0.00000  Uiso   1.00
C5     C     0.95959   0.77416   0.57455   0.00000  Uiso   1.00
C6     C     0.20612   0.70887   0.75853   0.00000  Uiso   1.00
C7     C     0.26671   0.75425   0.81082   0.00000  Uiso   1.00
C8     C     0.27116   0.74384   0.92155   0.00000  Uiso   1.00
C9     C     0.30397   0.74908   0.10022   0.00000  Uiso   1.00
C10    C     0.17158   0.64069   0.59195   0.00000  Uiso   1.00
C11    C     0.20314   0.62874   0.50420   0.00000  Uiso   1.00
C12    C     0.17851   0.56093   0.47470   0.00000  Uiso   1.00
C13    C     0.15768   0.46032   0.39474   0.00000  Uiso   1.00
C14    C     0.09047   0.61159   0.74162   0.00000  Uiso   1.00
C15    C     0.07058   0.66091   0.69072   0.00000  Uiso   1.00
C16    C     0.00657   0.65541   0.69703   0.00000  Uiso   1.00
C17    C     0.99870   0.70575   0.64498   0.00000  Uiso   1.00
C18    C     0.15189   0.65500   0.81484   0.00000  Uiso   1.00
C19    C     0.15625   0.64453   0.92552   0.00000  Uiso   1.00
C20    C     0.21683   0.68988   0.97796   0.00000  Uiso   1.00
C21    C     0.11734   0.58682   0.64826   0.00000  Uiso   1.00
C22    C     0.09267   0.51902   0.61890   0.00000  Uiso   1.00
C23    C     0.12418   0.50697   0.53111   0.00000  Uiso   1.00
H24    H     0.23253   0.75270   0.59411   0.00000  Uiso   1.00
H25    H     0.15902   0.80681   0.53877   0.00000  Uiso   1.00
H26    H     0.30867   0.79592   0.76722   0.00000  Uiso   1.00
H27    H     0.24510   0.67044   0.46064   0.00000  Uiso   1.00
H28    H     0.05361   0.84306   0.50228   0.00000  Uiso   1.00
H29    H     0.36917   0.82009   0.98397   0.00000  Uiso   1.00
H30    H     0.23512   0.55548   0.33750   0.00000  Uiso   1.00
H31    H     0.04824   0.56966   0.78546   0.00000  Uiso   1.00
H32    H     0.96461   0.61372   0.74062   0.00000  Uiso   1.00
H33    H     0.11427   0.60284   0.96907   0.00000  Uiso   1.00
H34    H     0.05070   0.47735   0.66249   0.00000  Uiso   1.00
H35    H     0.89582   0.68635   0.66612   0.00000  Uiso   1.00
H36    H     0.21139   0.66337   0.14780   0.00000  Uiso   1.00
H37    H     0.07733   0.39876   0.50133   0.00000  Uiso   1.00
O38    O     0.92303   0.79701   0.55128   0.00000  Uiso   1.00
O39    O     0.33705   0.76686   0.18322   0.00000  Uiso   1.00
O40    O     0.16117   0.41970   0.33507   0.00000  Uiso   1.00
N41    N     0.02794   0.80012   0.54698   0.00000  Uiso   1.00
N42    N     0.32298   0.77865   0.99733   0.00000  Uiso   1.00
N43    N     0.19766   0.53126   0.39295   0.00000  Uiso   1.00
N44    N     0.94304   0.71580   0.63513   0.00000  Uiso   1.00
N45    N     0.23807   0.69433   0.08548   0.00000  Uiso   1.00
N46    N     0.11276   0.44694   0.48110   0.00000  Uiso   1.00
C47    C     0.28924   0.47955   0.63794   0.00000  Uiso   1.00
C48    C     0.28522   0.41003   0.63440   0.00000  Uiso   1.00
C49    C     0.23487   0.35191   0.58233   0.00000  Uiso   1.00
C50    C     0.24029   0.29332   0.58857   0.00000  Uiso   1.00
C51    C     0.22584   0.18543   0.57455   0.00000  Uiso   1.00
C52    C     0.29113   0.49725   0.75853   0.00000  Uiso   1.00
C53    C     0.24575   0.51247   0.81082   0.00000  Uiso   1.00
C54    C     0.25616   0.52731   0.92155   0.00000  Uiso   1.00
C55    C     0.25092   0.55489   0.10022   0.00000  Uiso   1.00
C56    C     0.35931   0.53089   0.59195   0.00000  Uiso   1.00
C57    C     0.37126   0.57440   0.50420   0.00000  Uiso   1.00
C58    C     0.43907   0.61757   0.47470   0.00000  Uiso   1.00
C59    C     0.53968   0.69736   0.39474   0.00000  Uiso   1.00
C60    C     0.38841   0.47887   0.74162   0.00000  Uiso   1.00
C61    C     0.33909   0.40967   0.69072   0.00000  Uiso   1.00
C62    C     0.34459   0.35116   0.69703   0.00000  Uiso   1.00
C63    C     0.29425   0.29295   0.64498   0.00000  Uiso   1.00
C64    C     0.34500   0.49689   0.81484   0.00000  Uiso   1.00
C65    C     0.35547   0.51172   0.92552   0.00000  Uiso   1.00
C66    C     0.31012   0.52695   0.97796   0.00000  Uiso   1.00
C67    C     0.41318   0.53052   0.64826   0.00000  Uiso   1.00
C68    C     0.48098   0.57364   0.61890   0.00000  Uiso   1.00
C69    C     0.49303   0.61721   0.53111   0.00000  Uiso   1.00
H70    H     0.24730   0.47983   0.59411   0.00000  Uiso   1.00
H71    H     0.19319   0.35221   0.53877   0.00000  Uiso   1.00
H72    H     0.20408   0.51275   0.76722   0.00000  Uiso   1.00
H73    H     0.32956   0.57466   0.46064   0.00000  Uiso   1.00
H74    H     0.15694   0.21054   0.50228   0.00000  Uiso   1.00
H75    H     0.17991   0.54908   0.98397   0.00000  Uiso   1.00
H76    H     0.44452   0.67964   0.33750   0.00000  Uiso   1.00
H77    H     0.43034   0.47859   0.78546   0.00000  Uiso   1.00
H78    H     0.38628   0.35089   0.74062   0.00000  Uiso   1.00
H79    H     0.39716   0.51143   0.96907   0.00000  Uiso   1.00
H80    H     0.52265   0.57335   0.66249   0.00000  Uiso   1.00
H81    H     0.31365   0.20947   0.66612   0.00000  Uiso   1.00
H82    H     0.33663   0.54802   0.14780   0.00000  Uiso   1.00
H83    H     0.60124   0.67857   0.50133   0.00000  Uiso   1.00
O84    O     0.20299   0.12602   0.55128   0.00000  Uiso   1.00
O85    O     0.23314   0.57019   0.18322   0.00000  Uiso   1.00
O86    O     0.58030   0.74147   0.33507   0.00000  Uiso   1.00
N87    N     0.19988   0.22782   0.54698   0.00000  Uiso   1.00
N88    N     0.22135   0.54432   0.99733   0.00000  Uiso   1.00
N89    N     0.46874   0.66640   0.39295   0.00000  Uiso   1.00
N90    N     0.28420   0.22724   0.63513   0.00000  Uiso   1.00
N91    N     0.30567   0.54375   0.08548   0.00000  Uiso   1.00
N92    N     0.55306   0.66582   0.48110   0.00000  Uiso   1.00
C93    C     0.52045   0.80969   0.63794   0.00000  Uiso   1.00
C94    C     0.58997   0.87519   0.63440   0.00000  Uiso   1.00
C95    C     0.64809   0.88297   0.58233   0.00000  Uiso   1.00
C96    C     0.70668   0.94697   0.58857   0.00000  Uiso   1.00
C97    C     0.81457   0.04041   0.57455   0.00000  Uiso   1.00
C98    C     0.50275   0.79388   0.75853   0.00000  Uiso   1.00
C99    C     0.48753   0.73329   0.81082   0.00000  Uiso   1.00
C100   C     0.47269   0.72884   0.92155   0.00000  Uiso   1.00
C101   C     0.44511   0.69603   0.10022   0.00000  Uiso   1.00
C102   C     0.46911   0.82842   0.59195   0.00000  Uiso   1.00
C103   C     0.42560   0.79686   0.50420   0.00000  Uiso   1.00
C104   C     0.38243   0.82149   0.47470   0.00000  Uiso   1.00
C105   C     0.30264   0.84232   0.39474   0.00000  Uiso   1.00
C106   C     0.52113   0.90953   0.74162   0.00000  Uiso   1.00
C107   C     0.59033   0.92942   0.69072   0.00000  Uiso   1.00
C108   C     0.64884   0.99343   0.69703   0.00000  Uiso   1.00
C109   C     0.70705   0.00130   0.64498   0.00000  Uiso   1.00
C110   C     0.50311   0.84811   0.81484   0.00000  Uiso   1.00
C111   C     0.48828   0.84375   0.92552   0.00000  Uiso   1.00
C112   C     0.47305   0.78317   0.97796   0.00000  Uiso   1.00
C113   C     0.46948   0.88266   0.64826   0.00000  Uiso   1.00
C114   C     0.42636   0.90733   0.61890   0.00000  Uiso   1.00
C115   C     0.38279   0.87582   0.53111   0.00000  Uiso   1.00
H116   H     0.52017   0.76747   0.59411   0.00000  Uiso   1.00
H117   H     0.64779   0.84098   0.53877   0.00000  Uiso   1.00
H118   H     0.48725   0.69133   0.76722   0.00000  Uiso   1.00
H119   H     0.42534   0.75490   0.46064   0.00000  Uiso   1.00
H120   H     0.78946   0.94639   0.50228   0.00000  Uiso   1.00
H121   H     0.45092   0.63083   0.98397   0.00000  Uiso   1.00
H122   H     0.32036   0.76488   0.33750   0.00000  Uiso   1.00
H123   H     0.52141   0.95176   0.78546   0.00000  Uiso   1.00
H124   H     0.64911   0.03539   0.74062   0.00000  Uiso   1.00
H125   H     0.48857   0.88573   0.96907   0.00000  Uiso   1.00
H126   H     0.42665   0.94930   0.66249   0.00000  Uiso   1.00
H127   H     0.79053   0.10418   0.66612   0.00000  Uiso   1.00
H128   H     0.45198   0.78861   0.14780   0.00000  Uiso   1.00
H129   H     0.32143   0.92267   0.50133   0.00000  Uiso   1.00
O130   O     0.87398   0.07697   0.55128   0.00000  Uiso   1.00
O131   O     0.42981   0.66295   0.18322   0.00000  Uiso   1.00
O132   O     0.25853   0.83883   0.33507   0.00000  Uiso   1.00
N133   N     0.77218   0.97206   0.54698   0.00000  Uiso   1.00
N134   N     0.45568   0.67702   0.99733   0.00000  Uiso   1.00
N135   N     0.33360   0.80234   0.39295   0.00000  Uiso   1.00
N136   N     0.77276   0.05696   0.63513   0.00000  Uiso   1.00
N137   N     0.45625   0.76193   0.08548   0.00000  Uiso   1.00
N138   N     0.33418   0.88724   0.48110   0.00000  Uiso   1.00
C139   C     0.80969   0.28924   0.36206   0.00000  Uiso   1.00
C140   C     0.87519   0.28522   0.36560   0.00000  Uiso   1.00
C141   C     0.88297   0.23487   0.41767   0.00000  Uiso   1.00
C142   C     0.94697   0.24029   0.41143   0.00000  Uiso   1.00
C143   C     0.04041   0.22584   0.42545   0.00000  Uiso   1.00
C144   C     0.79388   0.29113   0.24147   0.00000  Uiso   1.00
C145   C     0.73329   0.24575   0.18918   0.00000  Uiso   1.00
C146   C     0.72884   0.25616   0.07845   0.00000  Uiso   1.00
C147   C     0.69603   0.25092   0.89978   0.00000  Uiso   1.00
C148   C     0.82842   0.35931   0.40805   0.00000  Uiso   1.00
C149   C     0.79686   0.37126   0.49580   0.00000  Uiso   1.00
C150   C     0.82149   0.43907   0.52530   0.00000  Uiso   1.00
C151   C     0.84232   0.53968   0.60526   0.00000  Uiso   1.00
C152   C     0.90953   0.38841   0.25838   0.00000  Uiso   1.00
C153   C     0.92942   0.33909   0.30928   0.00000  Uiso   1.00
C154   C     0.99343   0.34459   0.30297   0.00000  Uiso   1.00
C155   C     0.00130   0.29425   0.35502   0.00000  Uiso   1.00
C156   C     0.84811   0.34500   0.18516   0.00000  Uiso   1.00
C157   C     0.84375   0.35547   0.07448   0.00000  Uiso   1.00
C158   C     0.78317   0.31012   0.02204   0.00000  Uiso   1.00
C159   C     0.88266   0.41318   0.35174   0.00000  Uiso   1.00
C160   C     0.90733   0.48098   0.38110   0.00000  Uiso   1.00
C161   C     0.87582   0.49303   0.46889   0.00000  Uiso   1.00
H162   H     0.76747   0.24730   0.40589   0.00000  Uiso   1.00
H163   H     0.84098   0.19319   0.46123   0.00000  Uiso   1.00
H164   H     0.69133   0.20408   0.23278   0.00000  Uiso   1.00
H165   H     0.75490   0.32956   0.53936   0.00000  Uiso   1.00
H166   H     0.94639   0.15694   0.49772   0.00000  Uiso   1.00
H167   H     0.63083   0.17991   0.01603   0.00000  Uiso   1.00
H168   H     0.76488   0.44452   0.66250   0.00000  Uiso   1.00
H169   H     0.95176   0.43034   0.21454   0.00000  Uiso   1.00
H170   H     0.03539   0.38628   0.25938   0.00000  Uiso   1.00
H171   H     0.88573   0.39716   0.03093   0.00000  Uiso   1.00
H172   H     0.94930   0.52265   0.33751   0.00000  Uiso   1.00
H173   H     0.10418   0.31365   0.33388   0.00000  Uiso   1.00
H174   H     0.78861   0.33663   0.85220   0.00000  Uiso   1.00
H175   H     0.92267   0.60124   0.49867   0.00000  Uiso   1.00
O176   O     0.07697   0.20299   0.44872   0.00000  Uiso   1.00
O177   O     0.66295   0.23314   0.81678   0.00000  Uiso   1.00
O178   O     0.83883   0.58030   0.66493   0.00000  Uiso   1.00
N179   N     0.97206   0.19988   0.45302   0.00000  Uiso   1.00
N180   N     0.67702   0.22135   0.00267   0.00000  Uiso   1.00
N181   N     0.80234   0.46874   0.60705   0.00000  Uiso   1.00
N182   N     0.05696   0.28420   0.36487   0.00000  Uiso   1.00
N183   N     0.76193   0.30567   0.91452   0.00000  Uiso   1.00
N184   N     0.88724   0.55306   0.51890   0.00000  Uiso   1.00
C185   C     0.71076   0.52045   0.36206   0.00000  Uiso   1.00
C186   C     0.71478   0.58997   0.36560   0.00000  Uiso   1.00
C187   C     0.76513   0.64809   0.41767   0.00000  Uiso   1.00
C188   C     0.75971   0.70668   0.41143   0.00000  Uiso   1.00
C189   C     0.77416   0.81457   0.42545   0.00000  Uiso   1.00
C190   C     0.70887   0.50275   0.24147   0.00000  Uiso   1.00
C191   C     0.75425   0.48753   0.18918   0.00000  Uiso   1.00
C192   C     0.74384   0.47269   0.07845   0.00000  Uiso   1.00
C193   C     0.74908   0.44511   0.89978   0.00000  Uiso   1.00
C194   C     0.64069   0.46911   0.40805   0.00000  Uiso   1.00
C195   C     0.62874   0.42560   0.49580   0.00000  Uiso   1.00
C196   C     0.56093   0.38243   0.52530   0.00000  Uiso   1.00
C197   C     0.46032   0.30264   0.60526   0.00000  Uiso   1.00
C198   C     0.61159   0.52113   0.25838   0.00000  Uiso   1.00
C199   C     0.66091   0.59033   0.30928   0.00000  Uiso   1.00
C200   C     0.65541   0.64884   0.30297   0.00000  Uiso   1.00
C201   C     0.70575   0.70705   0.35502   0.00000  Uiso   1.00
C202   C     0.65500   0.50311   0.18516   0.00000  Uiso   1.00
C203   C     0.64453   0.48828   0.07448   0.00000  Uiso   1.00
C204   C     0.68988   0.47305   0.02204   0.00000  Uiso   1.00
C205   C     0.58682   0.46948   0.35174   0.00000  Uiso   1.00
C206   C     0.51902   0.42636   0.38110   0.00000  Uiso   1.00
C207   C     0.50697   0.38279   0.46889   0.00000  Uiso   1.00
H208   H     0.75270   0.52017   0.40589   0.00000  Uiso   1.00
H209   H     0.80681   0.64779   0.46123   0.00000  Uiso   1.00
H210   H     0.79592   0.48725   0.23278   0.00000  Uiso   1.00
H211   H     0.67044   0.42534   0.53936   0.00000  Uiso   1.00
H212   H     0.84306   0.78946   0.49772   0.00000  Uiso   1.00
H213   H     0.82009   0.45092   0.01603   0.00000  Uiso   1.00
H214   H     0.55548   0.32036   0.66250   0.00000  Uiso   1.00
H215   H     0.56966   0.52141   0.21454   0.00000  Uiso   1.00
H216   H     0.61372   0.64911   0.25938   0.00000  Uiso   1.00
H217   H     0.60284   0.48857   0.03093   0.00000  Uiso   1.00
H218   H     0.47735   0.42665   0.33751   0.00000  Uiso   1.00
H219   H     0.68635   0.79053   0.33388   0.00000  Uiso   1.00
H220   H     0.66337   0.45198   0.85220   0.00000  Uiso   1.00
H221   H     0.39876   0.32143   0.49867   0.00000  Uiso   1.00
O222   O     0.79701   0.87398   0.44872   0.00000  Uiso   1.00
O223   O     0.76686   0.42981   0.81678   0.00000  Uiso   1.00
O224   O     0.41970   0.25853   0.66493   0.00000  Uiso   1.00
N225   N     0.80012   0.77218   0.45302   0.00000  Uiso   1.00
N226   N     0.77865   0.45568   0.00267   0.00000  Uiso   1.00
N227   N     0.53126   0.33360   0.60705   0.00000  Uiso   1.00
N228   N     0.71580   0.77276   0.36487   0.00000  Uiso   1.00
N229   N     0.69433   0.45625   0.91452   0.00000  Uiso   1.00
N230   N     0.44694   0.33418   0.51890   0.00000  Uiso   1.00
C231   C     0.47955   0.19031   0.36206   0.00000  Uiso   1.00
C232   C     0.41003   0.12481   0.36560   0.00000  Uiso   1.00
C233   C     0.35191   0.11703   0.41767   0.00000  Uiso   1.00
C234   C     0.29332   0.05303   0.41143   0.00000  Uiso   1.00
C235   C     0.18543   0.95959   0.42545   0.00000  Uiso   1.00
C236   C     0.49725   0.20612   0.24147   0.00000  Uiso   1.00
C237   C     0.51247   0.26671   0.18918   0.00000  Uiso   1.00
C238   C     0.52731   0.27116   0.07845   0.00000  Uiso   1.00
C239   C     0.55489   0.30397   0.89978   0.00000  Uiso   1.00
C240   C     0.53089   0.17158   0.40805   0.00000  Uiso   1.00
C241   C     0.57440   0.20314   0.49580   0.00000  Uiso   1.00
C242   C     0.61757   0.17851   0.52530   0.00000  Uiso   1.00
C243   C     0.69736   0.15768   0.60526   0.00000  Uiso   1.00
C244   C     0.47887   0.09047   0.25838   0.00000  Uiso   1.00
C245   C     0.40967   0.07058   0.30928   0.00000  Uiso   1.00
C246   C     0.35116   0.00657   0.30297   0.00000  Uiso   1.00
C247   C     0.29295   0.99870   0.35502   0.00000  Uiso   1.00
C248   C     0.49689   0.15189   0.18516   0.00000  Uiso   1.00
C249   C     0.51172   0.15625   0.07448   0.00000  Uiso   1.00
C250   C     0.52695   0.21683   0.02204   0.00000  Uiso   1.00
C251   C     0.53052   0.11734   0.35174   0.00000  Uiso   1.00
C252   C     0.57364   0.09267   0.38110   0.00000  Uiso   1.00
C253   C     0.61721   0.12418   0.46889   0.00000  Uiso   1.00
H254   H     0.47983   0.23253   0.40589   0.00000  Uiso   1.00
H255   H     0.35221   0.15902   0.46123   0.00000  Uiso   1.00
H256   H     0.51275   0.30867   0.23278   0.00000  Uiso   1.00
H257   H     0.57466   0.24510   0.53936   0.00000  Uiso   1.00
H258   H     0.21054   0.05361   0.49772   0.00000  Uiso   1.00
H259   H     0.54908   0.36917   0.01603   0.00000  Uiso   1.00
H260   H     0.67964   0.23512   0.66250   0.00000  Uiso   1.00
H261   H     0.47859   0.04824   0.21454   0.00000  Uiso   1.00
H262   H     0.35089   0.96461   0.25938   0.00000  Uiso   1.00
H263   H     0.51143   0.11427   0.03093   0.00000  Uiso   1.00
H264   H     0.57335   0.05070   0.33751   0.00000  Uiso   1.00
H265   H     0.20947   0.89582   0.33388   0.00000  Uiso   1.00
H266   H     0.54802   0.21139   0.85220   0.00000  Uiso   1.00
H267   H     0.67857   0.07733   0.49867   0.00000  Uiso   1.00
O268   O     0.12602   0.92303   0.44872   0.00000  Uiso   1.00
O269   O     0.57019   0.33705   0.81678   0.00000  Uiso   1.00
O270   O     0.74147   0.16117   0.66493   0.00000  Uiso   1.00
N271   N     0.22782   0.02794   0.45302   0.00000  Uiso   1.00
N272   N     0.54432   0.32298   0.00267   0.00000  Uiso   1.00
N273   N     0.66640   0.19766   0.60705   0.00000  Uiso   1.00
N274   N     0.22724   0.94304   0.36487   0.00000  Uiso   1.00
N275   N     0.54375   0.23807   0.91452   0.00000  Uiso   1.00
N276   N     0.66582   0.11276   0.51890   0.00000  Uiso   1.00
