data_job_02860
_audit_creation_date              2018-12-19
_audit_creation_method            'Materials Studio'
_symmetry_space_group_name_H-M    'P1'
_symmetry_Int_Tables_number       1
_symmetry_cell_setting            triclinic
loop_
_symmetry_equiv_pos_as_xyz
  x,y,z
_cell_length_a                    12.5588
_cell_length_b                    17.9615
_cell_length_c                    20.7360
_cell_angle_alpha                 90.0000
_cell_angle_beta                  124.0036
_cell_angle_gamma                 90.0000
loop_
_atom_site_label
_atom_site_type_symbol
_atom_site_fract_x
_atom_site_fract_y
_atom_site_fract_z
_atom_site_U_iso_or_equiv
_atom_site_adp_type
_atom_site_occupancy
C1     C     0.61064   0.66679   0.44935   0.00000  Uiso   1.00
C2     C     0.68389   0.62685   0.52763   0.00000  Uiso   1.00
C3     C     0.72203   0.55282   0.53964   0.00000  Uiso   1.00
C4     C     0.78808   0.52677   0.61562   0.00000  Uiso   1.00
C5     C     0.89768   0.45767   0.72776   0.00000  Uiso   1.00
C6     C     0.48965   0.69806   0.43976   0.00000  Uiso   1.00
C7     C     0.36448   0.68392   0.37787   0.00000  Uiso   1.00
C8     C     0.26702   0.71782   0.37988   0.00000  Uiso   1.00
C9     C     0.07506   0.75933   0.35558   0.00000  Uiso   1.00
C10    C     0.69227   0.73398   0.45852   0.00000  Uiso   1.00
C11    C     0.73743   0.75004   0.41240   0.00000  Uiso   1.00
C12    C     0.81053   0.81420   0.43019   0.00000  Uiso   1.00
C13    C     0.93316   0.91147   0.43502   0.00000  Uiso   1.00
C14    C     0.66012   0.75216   0.56294   0.00000  Uiso   1.00
C15    C     0.71076   0.67322   0.58932   0.00000  Uiso   1.00
C16    C     0.77678   0.64727   0.66530   0.00000  Uiso   1.00
C17    C     0.81501   0.57322   0.67742   0.00000  Uiso   1.00
C18    C     0.51652   0.74443   0.50145   0.00000  Uiso   1.00
C19    C     0.41923   0.77837   0.50354   0.00000  Uiso   1.00
C20    C     0.29394   0.76427   0.44169   0.00000  Uiso   1.00
C21    C     0.71915   0.78035   0.52021   0.00000  Uiso   1.00
C22    C     0.79218   0.84449   0.53807   0.00000  Uiso   1.00
C23    C     0.83745   0.86065   0.49200   0.00000  Uiso   1.00
H24    H     0.58971   0.63070   0.40132   0.00000  Uiso   1.00
H25    H     0.70120   0.51695   0.49187   0.00000  Uiso   1.00
H26    H     0.34371   0.64804   0.33014   0.00000  Uiso   1.00
H27    H     0.71661   0.71415   0.36466   0.00000  Uiso   1.00
H28    H     0.83663   0.41129   0.61947   0.00000  Uiso   1.00
H29    H     0.08284   0.68770   0.27843   0.00000  Uiso   1.00
H30    H     0.86916   0.82712   0.35123   0.00000  Uiso   1.00
H31    H     0.68104   0.78827   0.61097   0.00000  Uiso   1.00
H32    H     0.79756   0.68317   0.71303   0.00000  Uiso   1.00
H33    H     0.44006   0.81425   0.55129   0.00000  Uiso   1.00
H34    H     0.81296   0.88036   0.58582   0.00000  Uiso   1.00
H35    H     0.91483   0.54619   0.79898   0.00000  Uiso   1.00
H36    H     0.16104   0.82261   0.45792   0.00000  Uiso   1.00
H37    H     0.94736   0.96202   0.53073   0.00000  Uiso   1.00
O38    O     0.95069   0.40675   0.77258   0.00000  Uiso   1.00
O39    O     0.96175   0.76941   0.32513   0.00000  Uiso   1.00
O40    O     0.99339   0.95231   0.42065   0.00000  Uiso   1.00
N41    N     0.83907   0.45747   0.64772   0.00000  Uiso   1.00
N42    N     0.13432   0.71589   0.32886   0.00000  Uiso   1.00
N43    N     0.86943   0.84624   0.39691   0.00000  Uiso   1.00
N44    N     0.88115   0.53006   0.74430   0.00000  Uiso   1.00
N45    N     0.17640   0.78848   0.42545   0.00000  Uiso   1.00
N46    N     0.91151   0.91883   0.49350   0.00000  Uiso   1.00
C47    C     0.38936   0.16679   0.05065   0.00000  Uiso   1.00
C48    C     0.31611   0.12685   0.97237   0.00000  Uiso   1.00
C49    C     0.27797   0.05282   0.96036   0.00000  Uiso   1.00
C50    C     0.21192   0.02677   0.88438   0.00000  Uiso   1.00
C51    C     0.10232   0.95767   0.77224   0.00000  Uiso   1.00
C52    C     0.51035   0.19806   0.06024   0.00000  Uiso   1.00
C53    C     0.63552   0.18392   0.12213   0.00000  Uiso   1.00
C54    C     0.73298   0.21782   0.12012   0.00000  Uiso   1.00
C55    C     0.92494   0.25933   0.14442   0.00000  Uiso   1.00
C56    C     0.30773   0.23398   0.04148   0.00000  Uiso   1.00
C57    C     0.26257   0.25004   0.08760   0.00000  Uiso   1.00
C58    C     0.18947   0.31420   0.06981   0.00000  Uiso   1.00
C59    C     0.06684   0.41147   0.06498   0.00000  Uiso   1.00
C60    C     0.33988   0.25216   0.93706   0.00000  Uiso   1.00
C61    C     0.28924   0.17322   0.91068   0.00000  Uiso   1.00
C62    C     0.22322   0.14727   0.83470   0.00000  Uiso   1.00
C63    C     0.18499   0.07322   0.82258   0.00000  Uiso   1.00
C64    C     0.48348   0.24443   0.99855   0.00000  Uiso   1.00
C65    C     0.58077   0.27837   0.99646   0.00000  Uiso   1.00
C66    C     0.70606   0.26427   0.05831   0.00000  Uiso   1.00
C67    C     0.28085   0.28035   0.97979   0.00000  Uiso   1.00
C68    C     0.20782   0.34449   0.96193   0.00000  Uiso   1.00
C69    C     0.16255   0.36065   0.00800   0.00000  Uiso   1.00
H70    H     0.41029   0.13070   0.09868   0.00000  Uiso   1.00
H71    H     0.29880   0.01695   0.00813   0.00000  Uiso   1.00
H72    H     0.65629   0.14804   0.16986   0.00000  Uiso   1.00
H73    H     0.28339   0.21415   0.13534   0.00000  Uiso   1.00
H74    H     0.16337   0.91129   0.88053   0.00000  Uiso   1.00
H75    H     0.91716   0.18770   0.22157   0.00000  Uiso   1.00
H76    H     0.13084   0.32712   0.14877   0.00000  Uiso   1.00
H77    H     0.31896   0.28827   0.88903   0.00000  Uiso   1.00
H78    H     0.20244   0.18317   0.78697   0.00000  Uiso   1.00
H79    H     0.55994   0.31425   0.94871   0.00000  Uiso   1.00
H80    H     0.18704   0.38036   0.91418   0.00000  Uiso   1.00
H81    H     0.08517   0.04619   0.70102   0.00000  Uiso   1.00
H82    H     0.83896   0.32261   0.04208   0.00000  Uiso   1.00
H83    H     0.05264   0.46202   0.96927   0.00000  Uiso   1.00
O84    O     0.04931   0.90675   0.72742   0.00000  Uiso   1.00
O85    O     0.03825   0.26941   0.17487   0.00000  Uiso   1.00
O86    O     0.00661   0.45231   0.07935   0.00000  Uiso   1.00
N87    N     0.16093   0.95747   0.85228   0.00000  Uiso   1.00
N88    N     0.86568   0.21589   0.17114   0.00000  Uiso   1.00
N89    N     0.13057   0.34624   0.10309   0.00000  Uiso   1.00
N90    N     0.11885   0.03006   0.75570   0.00000  Uiso   1.00
N91    N     0.82360   0.28848   0.07455   0.00000  Uiso   1.00
N92    N     0.08849   0.41883   0.00650   0.00000  Uiso   1.00
C93    C     0.38936   0.33321   0.55065   0.00000  Uiso   1.00
C94    C     0.31611   0.37315   0.47237   0.00000  Uiso   1.00
C95    C     0.27797   0.44718   0.46036   0.00000  Uiso   1.00
C96    C     0.21192   0.47323   0.38438   0.00000  Uiso   1.00
C97    C     0.10232   0.54233   0.27224   0.00000  Uiso   1.00
C98    C     0.51035   0.30194   0.56024   0.00000  Uiso   1.00
C99    C     0.63552   0.31608   0.62213   0.00000  Uiso   1.00
C100   C     0.73298   0.28218   0.62012   0.00000  Uiso   1.00
C101   C     0.92494   0.24067   0.64442   0.00000  Uiso   1.00
C102   C     0.30773   0.26602   0.54148   0.00000  Uiso   1.00
C103   C     0.26257   0.24996   0.58760   0.00000  Uiso   1.00
C104   C     0.18947   0.18580   0.56981   0.00000  Uiso   1.00
C105   C     0.06684   0.08853   0.56498   0.00000  Uiso   1.00
C106   C     0.33988   0.24784   0.43706   0.00000  Uiso   1.00
C107   C     0.28924   0.32678   0.41068   0.00000  Uiso   1.00
C108   C     0.22322   0.35273   0.33470   0.00000  Uiso   1.00
C109   C     0.18499   0.42678   0.32258   0.00000  Uiso   1.00
C110   C     0.48348   0.25557   0.49855   0.00000  Uiso   1.00
C111   C     0.58077   0.22163   0.49646   0.00000  Uiso   1.00
C112   C     0.70606   0.23573   0.55831   0.00000  Uiso   1.00
C113   C     0.28085   0.21965   0.47979   0.00000  Uiso   1.00
C114   C     0.20782   0.15551   0.46193   0.00000  Uiso   1.00
C115   C     0.16255   0.13935   0.50800   0.00000  Uiso   1.00
H116   H     0.41029   0.36930   0.59868   0.00000  Uiso   1.00
H117   H     0.29880   0.48305   0.50813   0.00000  Uiso   1.00
H118   H     0.65629   0.35196   0.66986   0.00000  Uiso   1.00
H119   H     0.28339   0.28585   0.63534   0.00000  Uiso   1.00
H120   H     0.16337   0.58871   0.38053   0.00000  Uiso   1.00
H121   H     0.91716   0.31230   0.72157   0.00000  Uiso   1.00
H122   H     0.13084   0.17288   0.64877   0.00000  Uiso   1.00
H123   H     0.31896   0.21173   0.38903   0.00000  Uiso   1.00
H124   H     0.20244   0.31683   0.28697   0.00000  Uiso   1.00
H125   H     0.55994   0.18575   0.44871   0.00000  Uiso   1.00
H126   H     0.18704   0.11964   0.41418   0.00000  Uiso   1.00
H127   H     0.08517   0.45381   0.20102   0.00000  Uiso   1.00
H128   H     0.83896   0.17739   0.54208   0.00000  Uiso   1.00
H129   H     0.05264   0.03798   0.46927   0.00000  Uiso   1.00
O130   O     0.04931   0.59325   0.22742   0.00000  Uiso   1.00
O131   O     0.03825   0.23059   0.67487   0.00000  Uiso   1.00
O132   O     0.00661   0.04769   0.57935   0.00000  Uiso   1.00
N133   N     0.16093   0.54253   0.35228   0.00000  Uiso   1.00
N134   N     0.86568   0.28411   0.67114   0.00000  Uiso   1.00
N135   N     0.13057   0.15376   0.60309   0.00000  Uiso   1.00
N136   N     0.11885   0.46994   0.25570   0.00000  Uiso   1.00
N137   N     0.82360   0.21152   0.57455   0.00000  Uiso   1.00
N138   N     0.08849   0.08117   0.50650   0.00000  Uiso   1.00
C139   C     0.61064   0.83321   0.94935   0.00000  Uiso   1.00
C140   C     0.68389   0.87315   0.02763   0.00000  Uiso   1.00
C141   C     0.72203   0.94718   0.03964   0.00000  Uiso   1.00
C142   C     0.78808   0.97323   0.11562   0.00000  Uiso   1.00
C143   C     0.89768   0.04233   0.22776   0.00000  Uiso   1.00
C144   C     0.48965   0.80194   0.93976   0.00000  Uiso   1.00
C145   C     0.36448   0.81608   0.87787   0.00000  Uiso   1.00
C146   C     0.26702   0.78218   0.87988   0.00000  Uiso   1.00
C147   C     0.07506   0.74067   0.85558   0.00000  Uiso   1.00
C148   C     0.69227   0.76602   0.95852   0.00000  Uiso   1.00
C149   C     0.73743   0.74996   0.91240   0.00000  Uiso   1.00
C150   C     0.81053   0.68580   0.93019   0.00000  Uiso   1.00
C151   C     0.93316   0.58853   0.93502   0.00000  Uiso   1.00
C152   C     0.66012   0.74784   0.06294   0.00000  Uiso   1.00
C153   C     0.71076   0.82678   0.08932   0.00000  Uiso   1.00
C154   C     0.77678   0.85273   0.16530   0.00000  Uiso   1.00
C155   C     0.81501   0.92678   0.17742   0.00000  Uiso   1.00
C156   C     0.51652   0.75557   0.00145   0.00000  Uiso   1.00
C157   C     0.41923   0.72163   0.00354   0.00000  Uiso   1.00
C158   C     0.29394   0.73573   0.94169   0.00000  Uiso   1.00
C159   C     0.71915   0.71965   0.02021   0.00000  Uiso   1.00
C160   C     0.79218   0.65551   0.03807   0.00000  Uiso   1.00
C161   C     0.83745   0.63935   0.99200   0.00000  Uiso   1.00
H162   H     0.58971   0.86930   0.90132   0.00000  Uiso   1.00
H163   H     0.70120   0.98305   0.99187   0.00000  Uiso   1.00
H164   H     0.34371   0.85196   0.83014   0.00000  Uiso   1.00
H165   H     0.71661   0.78585   0.86466   0.00000  Uiso   1.00
H166   H     0.83663   0.08871   0.11947   0.00000  Uiso   1.00
H167   H     0.08284   0.81230   0.77843   0.00000  Uiso   1.00
H168   H     0.86916   0.67288   0.85123   0.00000  Uiso   1.00
H169   H     0.68104   0.71173   0.11097   0.00000  Uiso   1.00
H170   H     0.79756   0.81683   0.21303   0.00000  Uiso   1.00
H171   H     0.44006   0.68575   0.05129   0.00000  Uiso   1.00
H172   H     0.81296   0.61964   0.08582   0.00000  Uiso   1.00
H173   H     0.91483   0.95381   0.29898   0.00000  Uiso   1.00
H174   H     0.16104   0.67739   0.95792   0.00000  Uiso   1.00
H175   H     0.94736   0.53798   0.03073   0.00000  Uiso   1.00
O176   O     0.95069   0.09325   0.27258   0.00000  Uiso   1.00
O177   O     0.96175   0.73059   0.82513   0.00000  Uiso   1.00
O178   O     0.99339   0.54769   0.92065   0.00000  Uiso   1.00
N179   N     0.83907   0.04253   0.14772   0.00000  Uiso   1.00
N180   N     0.13432   0.78411   0.82886   0.00000  Uiso   1.00
N181   N     0.86943   0.65376   0.89691   0.00000  Uiso   1.00
N182   N     0.88115   0.96994   0.24430   0.00000  Uiso   1.00
N183   N     0.17640   0.71152   0.92545   0.00000  Uiso   1.00
N184   N     0.91151   0.58117   0.99350   0.00000  Uiso   1.00
