data_job_05177
_audit_creation_date              2018-12-19
_audit_creation_method            'Materials Studio'
_symmetry_space_group_name_H-M    'P1'
_symmetry_Int_Tables_number       1
_symmetry_cell_setting            triclinic
loop_
_symmetry_equiv_pos_as_xyz
  x,y,z
_cell_length_a                    11.4098
_cell_length_b                    11.4098
_cell_length_c                    34.1508
_cell_angle_alpha                 90.0000
_cell_angle_beta                  90.0000
_cell_angle_gamma                 90.0000
loop_
_atom_site_label
_atom_site_type_symbol
_atom_site_fract_x
_atom_site_fract_y
_atom_site_fract_z
_atom_site_U_iso_or_equiv
_atom_site_adp_type
_atom_site_occupancy
C1     C     0.71825   0.77818   0.24383   0.00000  Uiso   1.00
C2     C     0.70453   0.67272   0.27087   0.00000  Uiso   1.00
C3     C     0.59905   0.62371   0.28275   0.00000  Uiso   1.00
C4     C     0.60511   0.52751   0.30756   0.00000  Uiso   1.00
C5     C     0.56741   0.37071   0.34768   0.00000  Uiso   1.00
C6     C     0.79129   0.86737   0.26642   0.00000  Uiso   1.00
C7     C     0.75876   0.98202   0.27455   0.00000  Uiso   1.00
C8     C     0.83786   0.04967   0.29561   0.00000  Uiso   1.00
C9     C     0.93490   0.19509   0.32879   0.00000  Uiso   1.00
C10    C     0.79486   0.73710   0.20991   0.00000  Uiso   1.00
C11    C     0.76534   0.74224   0.17053   0.00000  Uiso   1.00
C12    C     0.84747   0.70024   0.14401   0.00000  Uiso   1.00
C13    C     0.95004   0.64339   0.08945   0.00000  Uiso   1.00
C14    C     0.91660   0.69447   0.26677   0.00000  Uiso   1.00
C15    C     0.81227   0.62726   0.28333   0.00000  Uiso   1.00
C16    C     0.81850   0.53110   0.30813   0.00000  Uiso   1.00
C17    C     0.71303   0.48196   0.32004   0.00000  Uiso   1.00
C18    C     0.89903   0.82191   0.27888   0.00000  Uiso   1.00
C19    C     0.97821   0.88941   0.29993   0.00000  Uiso   1.00
C20    C     0.94579   0.00413   0.30809   0.00000  Uiso   1.00
C21    C     0.90260   0.69163   0.22237   0.00000  Uiso   1.00
C22    C     0.98479   0.64962   0.19591   0.00000  Uiso   1.00
C23    C     0.95540   0.65469   0.15649   0.00000  Uiso   1.00
H24    H     0.63438   0.81358   0.23413   0.00000  Uiso   1.00
H25    H     0.51569   0.65893   0.27310   0.00000  Uiso   1.00
H26    H     0.67538   0.01718   0.26490   0.00000  Uiso   1.00
H27    H     0.68196   0.77743   0.16090   0.00000  Uiso   1.00
H28    H     0.43161   0.46744   0.32182   0.00000  Uiso   1.00
H29    H     0.76835   0.22285   0.30451   0.00000  Uiso   1.00
H30    H     0.78222   0.71729   0.08520   0.00000  Uiso   1.00
H31    H     0.00049   0.65908   0.27647   0.00000  Uiso   1.00
H32    H     0.90188   0.49594   0.31777   0.00000  Uiso   1.00
H33    H     0.06157   0.85420   0.30957   0.00000  Uiso   1.00
H34    H     0.06815   0.61445   0.20556   0.00000  Uiso   1.00
H35    H     0.74505   0.33516   0.35808   0.00000  Uiso   1.00
H36    H     0.08179   0.09057   0.34077   0.00000  Uiso   1.00
H37    H     0.09567   0.58501   0.12145   0.00000  Uiso   1.00
O38    O     0.51686   0.29679   0.36637   0.00000  Uiso   1.00
O39    O     0.95865   0.28786   0.34365   0.00000  Uiso   1.00
O40    O     0.97686   0.62458   0.05591   0.00000  Uiso   1.00
N41    N     0.51891   0.45868   0.32468   0.00000  Uiso   1.00
N42    N     0.83373   0.16494   0.30850   0.00000  Uiso   1.00
N43    N     0.84672   0.69231   0.10346   0.00000  Uiso   1.00
N44    N     0.68757   0.38750   0.34419   0.00000  Uiso   1.00
N45    N     0.00239   0.09376   0.32801   0.00000  Uiso   1.00
N46    N     0.01538   0.62113   0.12297   0.00000  Uiso   1.00
C47    C     0.28175   0.22182   0.74383   0.00000  Uiso   1.00
C48    C     0.29547   0.32728   0.77087   0.00000  Uiso   1.00
C49    C     0.40095   0.37629   0.78275   0.00000  Uiso   1.00
C50    C     0.39489   0.47249   0.80756   0.00000  Uiso   1.00
C51    C     0.43259   0.62929   0.84768   0.00000  Uiso   1.00
C52    C     0.20871   0.13263   0.76642   0.00000  Uiso   1.00
C53    C     0.24124   0.01798   0.77455   0.00000  Uiso   1.00
C54    C     0.16214   0.95033   0.79561   0.00000  Uiso   1.00
C55    C     0.06510   0.80491   0.82879   0.00000  Uiso   1.00
C56    C     0.20514   0.26290   0.70991   0.00000  Uiso   1.00
C57    C     0.23466   0.25776   0.67053   0.00000  Uiso   1.00
C58    C     0.15253   0.29976   0.64401   0.00000  Uiso   1.00
C59    C     0.04996   0.35661   0.58945   0.00000  Uiso   1.00
C60    C     0.08340   0.30553   0.76677   0.00000  Uiso   1.00
C61    C     0.18773   0.37274   0.78333   0.00000  Uiso   1.00
C62    C     0.18150   0.46890   0.80813   0.00000  Uiso   1.00
C63    C     0.28697   0.51804   0.82004   0.00000  Uiso   1.00
C64    C     0.10097   0.17809   0.77888   0.00000  Uiso   1.00
C65    C     0.02179   0.11059   0.79993   0.00000  Uiso   1.00
C66    C     0.05421   0.99587   0.80809   0.00000  Uiso   1.00
C67    C     0.09740   0.30837   0.72237   0.00000  Uiso   1.00
C68    C     0.01521   0.35038   0.69591   0.00000  Uiso   1.00
C69    C     0.04460   0.34531   0.65649   0.00000  Uiso   1.00
H70    H     0.36562   0.18642   0.73413   0.00000  Uiso   1.00
H71    H     0.48431   0.34107   0.77310   0.00000  Uiso   1.00
H72    H     0.32462   0.98282   0.76490   0.00000  Uiso   1.00
H73    H     0.31804   0.22257   0.66090   0.00000  Uiso   1.00
H74    H     0.56839   0.53256   0.82182   0.00000  Uiso   1.00
H75    H     0.23165   0.77715   0.80451   0.00000  Uiso   1.00
H76    H     0.21778   0.28271   0.58520   0.00000  Uiso   1.00
H77    H     0.99951   0.34092   0.77647   0.00000  Uiso   1.00
H78    H     0.09812   0.50406   0.81777   0.00000  Uiso   1.00
H79    H     0.93843   0.14580   0.80957   0.00000  Uiso   1.00
H80    H     0.93185   0.38555   0.70556   0.00000  Uiso   1.00
H81    H     0.25495   0.66484   0.85808   0.00000  Uiso   1.00
H82    H     0.91821   0.90943   0.84077   0.00000  Uiso   1.00
H83    H     0.90433   0.41499   0.62145   0.00000  Uiso   1.00
O84    O     0.48314   0.70321   0.86637   0.00000  Uiso   1.00
O85    O     0.04135   0.71214   0.84365   0.00000  Uiso   1.00
O86    O     0.02314   0.37542   0.55591   0.00000  Uiso   1.00
N87    N     0.48109   0.54132   0.82468   0.00000  Uiso   1.00
N88    N     0.16627   0.83506   0.80850   0.00000  Uiso   1.00
N89    N     0.15328   0.30769   0.60346   0.00000  Uiso   1.00
N90    N     0.31243   0.61250   0.84419   0.00000  Uiso   1.00
N91    N     0.99761   0.90624   0.82801   0.00000  Uiso   1.00
N92    N     0.98462   0.37887   0.62297   0.00000  Uiso   1.00
C93    C     0.72182   0.21825   0.99383   0.00000  Uiso   1.00
C94    C     0.82728   0.20453   0.02087   0.00000  Uiso   1.00
C95    C     0.87629   0.09905   0.03275   0.00000  Uiso   1.00
C96    C     0.97249   0.10511   0.05756   0.00000  Uiso   1.00
C97    C     0.12929   0.06741   0.09768   0.00000  Uiso   1.00
C98    C     0.63263   0.29129   0.01642   0.00000  Uiso   1.00
C99    C     0.51798   0.25876   0.02455   0.00000  Uiso   1.00
C100   C     0.45033   0.33786   0.04561   0.00000  Uiso   1.00
C101   C     0.30491   0.43490   0.07879   0.00000  Uiso   1.00
C102   C     0.76290   0.29486   0.95991   0.00000  Uiso   1.00
C103   C     0.75776   0.26534   0.92053   0.00000  Uiso   1.00
C104   C     0.79976   0.34747   0.89401   0.00000  Uiso   1.00
C105   C     0.85661   0.45004   0.83945   0.00000  Uiso   1.00
C106   C     0.80553   0.41660   0.01677   0.00000  Uiso   1.00
C107   C     0.87274   0.31227   0.03333   0.00000  Uiso   1.00
C108   C     0.96890   0.31850   0.05813   0.00000  Uiso   1.00
C109   C     0.01804   0.21303   0.07004   0.00000  Uiso   1.00
C110   C     0.67809   0.39903   0.02888   0.00000  Uiso   1.00
C111   C     0.61059   0.47821   0.04993   0.00000  Uiso   1.00
C112   C     0.49587   0.44579   0.05809   0.00000  Uiso   1.00
C113   C     0.80837   0.40260   0.97237   0.00000  Uiso   1.00
C114   C     0.85038   0.48479   0.94591   0.00000  Uiso   1.00
C115   C     0.84531   0.45540   0.90649   0.00000  Uiso   1.00
H116   H     0.68642   0.13438   0.98413   0.00000  Uiso   1.00
H117   H     0.84107   0.01569   0.02310   0.00000  Uiso   1.00
H118   H     0.48282   0.17538   0.01490   0.00000  Uiso   1.00
H119   H     0.72257   0.18196   0.91090   0.00000  Uiso   1.00
H120   H     0.03256   0.93161   0.07182   0.00000  Uiso   1.00
H121   H     0.27715   0.26835   0.05451   0.00000  Uiso   1.00
H122   H     0.78271   0.28222   0.83520   0.00000  Uiso   1.00
H123   H     0.84092   0.50049   0.02647   0.00000  Uiso   1.00
H124   H     0.00406   0.40188   0.06777   0.00000  Uiso   1.00
H125   H     0.64580   0.56157   0.05957   0.00000  Uiso   1.00
H126   H     0.88555   0.56815   0.95556   0.00000  Uiso   1.00
H127   H     0.16484   0.24505   0.10808   0.00000  Uiso   1.00
H128   H     0.40943   0.58179   0.09077   0.00000  Uiso   1.00
H129   H     0.91499   0.59567   0.87145   0.00000  Uiso   1.00
O130   O     0.20321   0.01686   0.11637   0.00000  Uiso   1.00
O131   O     0.21214   0.45865   0.09365   0.00000  Uiso   1.00
O132   O     0.87542   0.47686   0.80591   0.00000  Uiso   1.00
N133   N     0.04132   0.01891   0.07468   0.00000  Uiso   1.00
N134   N     0.33506   0.33373   0.05850   0.00000  Uiso   1.00
N135   N     0.80769   0.34672   0.85346   0.00000  Uiso   1.00
N136   N     0.11250   0.18757   0.09419   0.00000  Uiso   1.00
N137   N     0.40624   0.50239   0.07801   0.00000  Uiso   1.00
N138   N     0.87887   0.51538   0.87297   0.00000  Uiso   1.00
C139   C     0.27818   0.78175   0.49383   0.00000  Uiso   1.00
C140   C     0.17272   0.79547   0.52087   0.00000  Uiso   1.00
C141   C     0.12371   0.90095   0.53275   0.00000  Uiso   1.00
C142   C     0.02751   0.89489   0.55756   0.00000  Uiso   1.00
C143   C     0.87071   0.93259   0.59768   0.00000  Uiso   1.00
C144   C     0.36737   0.70871   0.51642   0.00000  Uiso   1.00
C145   C     0.48202   0.74124   0.52455   0.00000  Uiso   1.00
C146   C     0.54967   0.66214   0.54561   0.00000  Uiso   1.00
C147   C     0.69509   0.56510   0.57879   0.00000  Uiso   1.00
C148   C     0.23710   0.70514   0.45991   0.00000  Uiso   1.00
C149   C     0.24224   0.73466   0.42053   0.00000  Uiso   1.00
C150   C     0.20024   0.65253   0.39401   0.00000  Uiso   1.00
C151   C     0.14339   0.54996   0.33945   0.00000  Uiso   1.00
C152   C     0.19447   0.58340   0.51677   0.00000  Uiso   1.00
C153   C     0.12726   0.68773   0.53333   0.00000  Uiso   1.00
C154   C     0.03110   0.68150   0.55813   0.00000  Uiso   1.00
C155   C     0.98196   0.78697   0.57004   0.00000  Uiso   1.00
C156   C     0.32191   0.60097   0.52888   0.00000  Uiso   1.00
C157   C     0.38941   0.52179   0.54993   0.00000  Uiso   1.00
C158   C     0.50413   0.55421   0.55809   0.00000  Uiso   1.00
C159   C     0.19163   0.59740   0.47237   0.00000  Uiso   1.00
C160   C     0.14962   0.51521   0.44591   0.00000  Uiso   1.00
C161   C     0.15469   0.54460   0.40649   0.00000  Uiso   1.00
H162   H     0.31358   0.86562   0.48413   0.00000  Uiso   1.00
H163   H     0.15893   0.98431   0.52310   0.00000  Uiso   1.00
H164   H     0.51718   0.82462   0.51490   0.00000  Uiso   1.00
H165   H     0.27743   0.81804   0.41090   0.00000  Uiso   1.00
H166   H     0.96744   0.06839   0.57182   0.00000  Uiso   1.00
H167   H     0.72285   0.73165   0.55451   0.00000  Uiso   1.00
H168   H     0.21729   0.71778   0.33520   0.00000  Uiso   1.00
H169   H     0.15908   0.49951   0.52647   0.00000  Uiso   1.00
H170   H     0.99594   0.59812   0.56777   0.00000  Uiso   1.00
H171   H     0.35420   0.43843   0.55957   0.00000  Uiso   1.00
H172   H     0.11445   0.43185   0.45556   0.00000  Uiso   1.00
H173   H     0.83516   0.75495   0.60808   0.00000  Uiso   1.00
H174   H     0.59057   0.41821   0.59077   0.00000  Uiso   1.00
H175   H     0.08501   0.40433   0.37145   0.00000  Uiso   1.00
O176   O     0.79679   0.98314   0.61637   0.00000  Uiso   1.00
O177   O     0.78786   0.54135   0.59365   0.00000  Uiso   1.00
O178   O     0.12458   0.52314   0.30591   0.00000  Uiso   1.00
N179   N     0.95868   0.98109   0.57468   0.00000  Uiso   1.00
N180   N     0.66494   0.66627   0.55850   0.00000  Uiso   1.00
N181   N     0.19231   0.65328   0.35346   0.00000  Uiso   1.00
N182   N     0.88750   0.81243   0.59419   0.00000  Uiso   1.00
N183   N     0.59376   0.49761   0.57801   0.00000  Uiso   1.00
N184   N     0.12113   0.48462   0.37297   0.00000  Uiso   1.00
C185   C     0.78175   0.27818   0.50617   0.00000  Uiso   1.00
C186   C     0.79547   0.17272   0.47913   0.00000  Uiso   1.00
C187   C     0.90095   0.12371   0.46725   0.00000  Uiso   1.00
C188   C     0.89489   0.02751   0.44244   0.00000  Uiso   1.00
C189   C     0.93259   0.87071   0.40232   0.00000  Uiso   1.00
C190   C     0.70871   0.36737   0.48358   0.00000  Uiso   1.00
C191   C     0.74124   0.48202   0.47545   0.00000  Uiso   1.00
C192   C     0.66214   0.54967   0.45439   0.00000  Uiso   1.00
C193   C     0.56510   0.69509   0.42121   0.00000  Uiso   1.00
C194   C     0.70514   0.23710   0.54009   0.00000  Uiso   1.00
C195   C     0.73466   0.24224   0.57947   0.00000  Uiso   1.00
C196   C     0.65253   0.20024   0.60599   0.00000  Uiso   1.00
C197   C     0.54996   0.14339   0.66055   0.00000  Uiso   1.00
C198   C     0.58340   0.19447   0.48323   0.00000  Uiso   1.00
C199   C     0.68773   0.12726   0.46667   0.00000  Uiso   1.00
C200   C     0.68150   0.03110   0.44187   0.00000  Uiso   1.00
C201   C     0.78697   0.98196   0.42996   0.00000  Uiso   1.00
C202   C     0.60097   0.32191   0.47112   0.00000  Uiso   1.00
C203   C     0.52179   0.38941   0.45007   0.00000  Uiso   1.00
C204   C     0.55421   0.50413   0.44191   0.00000  Uiso   1.00
C205   C     0.59740   0.19163   0.52763   0.00000  Uiso   1.00
C206   C     0.51521   0.14962   0.55409   0.00000  Uiso   1.00
C207   C     0.54460   0.15469   0.59351   0.00000  Uiso   1.00
H208   H     0.86562   0.31358   0.51587   0.00000  Uiso   1.00
H209   H     0.98431   0.15893   0.47690   0.00000  Uiso   1.00
H210   H     0.82462   0.51718   0.48510   0.00000  Uiso   1.00
H211   H     0.81804   0.27743   0.58910   0.00000  Uiso   1.00
H212   H     0.06839   0.96744   0.42818   0.00000  Uiso   1.00
H213   H     0.73165   0.72285   0.44549   0.00000  Uiso   1.00
H214   H     0.71778   0.21729   0.66480   0.00000  Uiso   1.00
H215   H     0.49951   0.15908   0.47353   0.00000  Uiso   1.00
H216   H     0.59812   0.99594   0.43223   0.00000  Uiso   1.00
H217   H     0.43843   0.35420   0.44043   0.00000  Uiso   1.00
H218   H     0.43185   0.11445   0.54444   0.00000  Uiso   1.00
H219   H     0.75495   0.83516   0.39192   0.00000  Uiso   1.00
H220   H     0.41821   0.59057   0.40923   0.00000  Uiso   1.00
H221   H     0.40433   0.08501   0.62855   0.00000  Uiso   1.00
O222   O     0.98314   0.79679   0.38363   0.00000  Uiso   1.00
O223   O     0.54135   0.78786   0.40635   0.00000  Uiso   1.00
O224   O     0.52314   0.12458   0.69409   0.00000  Uiso   1.00
N225   N     0.98109   0.95868   0.42532   0.00000  Uiso   1.00
N226   N     0.66627   0.66494   0.44150   0.00000  Uiso   1.00
N227   N     0.65328   0.19231   0.64654   0.00000  Uiso   1.00
N228   N     0.81243   0.88750   0.40581   0.00000  Uiso   1.00
N229   N     0.49761   0.59376   0.42199   0.00000  Uiso   1.00
N230   N     0.48462   0.12113   0.62703   0.00000  Uiso   1.00
C231   C     0.21825   0.72182   0.00617   0.00000  Uiso   1.00
C232   C     0.20453   0.82728   0.97913   0.00000  Uiso   1.00
C233   C     0.09905   0.87629   0.96725   0.00000  Uiso   1.00
C234   C     0.10511   0.97249   0.94244   0.00000  Uiso   1.00
C235   C     0.06741   0.12929   0.90232   0.00000  Uiso   1.00
C236   C     0.29129   0.63263   0.98358   0.00000  Uiso   1.00
C237   C     0.25876   0.51798   0.97545   0.00000  Uiso   1.00
C238   C     0.33786   0.45033   0.95439   0.00000  Uiso   1.00
C239   C     0.43490   0.30491   0.92121   0.00000  Uiso   1.00
C240   C     0.29486   0.76290   0.04009   0.00000  Uiso   1.00
C241   C     0.26534   0.75776   0.07947   0.00000  Uiso   1.00
C242   C     0.34747   0.79976   0.10599   0.00000  Uiso   1.00
C243   C     0.45004   0.85661   0.16055   0.00000  Uiso   1.00
C244   C     0.41660   0.80553   0.98323   0.00000  Uiso   1.00
C245   C     0.31227   0.87274   0.96667   0.00000  Uiso   1.00
C246   C     0.31850   0.96890   0.94187   0.00000  Uiso   1.00
C247   C     0.21303   0.01804   0.92996   0.00000  Uiso   1.00
C248   C     0.39903   0.67809   0.97112   0.00000  Uiso   1.00
C249   C     0.47821   0.61059   0.95007   0.00000  Uiso   1.00
C250   C     0.44579   0.49587   0.94191   0.00000  Uiso   1.00
C251   C     0.40260   0.80837   0.02763   0.00000  Uiso   1.00
C252   C     0.48479   0.85038   0.05409   0.00000  Uiso   1.00
C253   C     0.45540   0.84531   0.09351   0.00000  Uiso   1.00
H254   H     0.13438   0.68642   0.01587   0.00000  Uiso   1.00
H255   H     0.01569   0.84107   0.97690   0.00000  Uiso   1.00
H256   H     0.17538   0.48282   0.98510   0.00000  Uiso   1.00
H257   H     0.18196   0.72257   0.08910   0.00000  Uiso   1.00
H258   H     0.93161   0.03256   0.92818   0.00000  Uiso   1.00
H259   H     0.26835   0.27715   0.94549   0.00000  Uiso   1.00
H260   H     0.28222   0.78271   0.16480   0.00000  Uiso   1.00
H261   H     0.50049   0.84092   0.97353   0.00000  Uiso   1.00
H262   H     0.40188   0.00406   0.93223   0.00000  Uiso   1.00
H263   H     0.56157   0.64580   0.94043   0.00000  Uiso   1.00
H264   H     0.56815   0.88555   0.04444   0.00000  Uiso   1.00
H265   H     0.24505   0.16484   0.89192   0.00000  Uiso   1.00
H266   H     0.58179   0.40943   0.90923   0.00000  Uiso   1.00
H267   H     0.59567   0.91499   0.12855   0.00000  Uiso   1.00
O268   O     0.01686   0.20321   0.88363   0.00000  Uiso   1.00
O269   O     0.45865   0.21214   0.90635   0.00000  Uiso   1.00
O270   O     0.47686   0.87542   0.19409   0.00000  Uiso   1.00
N271   N     0.01891   0.04132   0.92532   0.00000  Uiso   1.00
N272   N     0.33373   0.33506   0.94150   0.00000  Uiso   1.00
N273   N     0.34672   0.80769   0.14654   0.00000  Uiso   1.00
N274   N     0.18757   0.11250   0.90581   0.00000  Uiso   1.00
N275   N     0.50239   0.40624   0.92199   0.00000  Uiso   1.00
N276   N     0.51538   0.87887   0.12703   0.00000  Uiso   1.00
C277   C     0.77818   0.71825   0.75617   0.00000  Uiso   1.00
C278   C     0.67272   0.70453   0.72913   0.00000  Uiso   1.00
C279   C     0.62371   0.59905   0.71725   0.00000  Uiso   1.00
C280   C     0.52751   0.60511   0.69244   0.00000  Uiso   1.00
C281   C     0.37071   0.56741   0.65232   0.00000  Uiso   1.00
C282   C     0.86737   0.79129   0.73358   0.00000  Uiso   1.00
C283   C     0.98202   0.75876   0.72545   0.00000  Uiso   1.00
C284   C     0.04967   0.83786   0.70439   0.00000  Uiso   1.00
C285   C     0.19509   0.93490   0.67121   0.00000  Uiso   1.00
C286   C     0.73710   0.79486   0.79009   0.00000  Uiso   1.00
C287   C     0.74224   0.76534   0.82947   0.00000  Uiso   1.00
C288   C     0.70024   0.84747   0.85599   0.00000  Uiso   1.00
C289   C     0.64339   0.95004   0.91055   0.00000  Uiso   1.00
C290   C     0.69447   0.91660   0.73323   0.00000  Uiso   1.00
C291   C     0.62726   0.81227   0.71667   0.00000  Uiso   1.00
C292   C     0.53110   0.81850   0.69187   0.00000  Uiso   1.00
C293   C     0.48196   0.71303   0.67996   0.00000  Uiso   1.00
C294   C     0.82191   0.89903   0.72112   0.00000  Uiso   1.00
C295   C     0.88941   0.97821   0.70007   0.00000  Uiso   1.00
C296   C     0.00413   0.94579   0.69191   0.00000  Uiso   1.00
C297   C     0.69163   0.90260   0.77763   0.00000  Uiso   1.00
C298   C     0.64962   0.98479   0.80409   0.00000  Uiso   1.00
C299   C     0.65469   0.95540   0.84351   0.00000  Uiso   1.00
H300   H     0.81358   0.63438   0.76587   0.00000  Uiso   1.00
H301   H     0.65893   0.51569   0.72690   0.00000  Uiso   1.00
H302   H     0.01718   0.67538   0.73510   0.00000  Uiso   1.00
H303   H     0.77743   0.68196   0.83910   0.00000  Uiso   1.00
H304   H     0.46744   0.43161   0.67818   0.00000  Uiso   1.00
H305   H     0.22285   0.76835   0.69549   0.00000  Uiso   1.00
H306   H     0.71729   0.78222   0.91480   0.00000  Uiso   1.00
H307   H     0.65908   0.00049   0.72353   0.00000  Uiso   1.00
H308   H     0.49594   0.90188   0.68223   0.00000  Uiso   1.00
H309   H     0.85420   0.06157   0.69043   0.00000  Uiso   1.00
H310   H     0.61445   0.06815   0.79444   0.00000  Uiso   1.00
H311   H     0.33516   0.74505   0.64192   0.00000  Uiso   1.00
H312   H     0.09057   0.08179   0.65923   0.00000  Uiso   1.00
H313   H     0.58501   0.09567   0.87855   0.00000  Uiso   1.00
O314   O     0.29679   0.51686   0.63363   0.00000  Uiso   1.00
O315   O     0.28786   0.95865   0.65635   0.00000  Uiso   1.00
O316   O     0.62458   0.97686   0.94409   0.00000  Uiso   1.00
N317   N     0.45868   0.51891   0.67532   0.00000  Uiso   1.00
N318   N     0.16494   0.83373   0.69150   0.00000  Uiso   1.00
N319   N     0.69231   0.84672   0.89654   0.00000  Uiso   1.00
N320   N     0.38750   0.68757   0.65581   0.00000  Uiso   1.00
N321   N     0.09376   0.00239   0.67199   0.00000  Uiso   1.00
N322   N     0.62113   0.01538   0.87703   0.00000  Uiso   1.00
C323   C     0.22182   0.28175   0.25617   0.00000  Uiso   1.00
C324   C     0.32728   0.29547   0.22913   0.00000  Uiso   1.00
C325   C     0.37629   0.40095   0.21725   0.00000  Uiso   1.00
C326   C     0.47249   0.39489   0.19244   0.00000  Uiso   1.00
C327   C     0.62929   0.43259   0.15232   0.00000  Uiso   1.00
C328   C     0.13263   0.20871   0.23358   0.00000  Uiso   1.00
C329   C     0.01798   0.24124   0.22545   0.00000  Uiso   1.00
C330   C     0.95033   0.16214   0.20439   0.00000  Uiso   1.00
C331   C     0.80491   0.06510   0.17121   0.00000  Uiso   1.00
C332   C     0.26290   0.20514   0.29009   0.00000  Uiso   1.00
C333   C     0.25776   0.23466   0.32947   0.00000  Uiso   1.00
C334   C     0.29976   0.15253   0.35599   0.00000  Uiso   1.00
C335   C     0.35661   0.04996   0.41055   0.00000  Uiso   1.00
C336   C     0.30553   0.08340   0.23323   0.00000  Uiso   1.00
C337   C     0.37274   0.18773   0.21667   0.00000  Uiso   1.00
C338   C     0.46890   0.18150   0.19187   0.00000  Uiso   1.00
C339   C     0.51804   0.28697   0.17996   0.00000  Uiso   1.00
C340   C     0.17809   0.10097   0.22112   0.00000  Uiso   1.00
C341   C     0.11059   0.02179   0.20007   0.00000  Uiso   1.00
C342   C     0.99587   0.05421   0.19191   0.00000  Uiso   1.00
C343   C     0.30837   0.09740   0.27763   0.00000  Uiso   1.00
C344   C     0.35038   0.01521   0.30409   0.00000  Uiso   1.00
C345   C     0.34531   0.04460   0.34351   0.00000  Uiso   1.00
H346   H     0.18642   0.36562   0.26587   0.00000  Uiso   1.00
H347   H     0.34107   0.48431   0.22690   0.00000  Uiso   1.00
H348   H     0.98282   0.32462   0.23510   0.00000  Uiso   1.00
H349   H     0.22257   0.31804   0.33910   0.00000  Uiso   1.00
H350   H     0.53256   0.56839   0.17818   0.00000  Uiso   1.00
H351   H     0.77715   0.23165   0.19549   0.00000  Uiso   1.00
H352   H     0.28271   0.21778   0.41480   0.00000  Uiso   1.00
H353   H     0.34092   0.99951   0.22353   0.00000  Uiso   1.00
H354   H     0.50406   0.09812   0.18223   0.00000  Uiso   1.00
H355   H     0.14580   0.93843   0.19043   0.00000  Uiso   1.00
H356   H     0.38555   0.93185   0.29444   0.00000  Uiso   1.00
H357   H     0.66484   0.25495   0.14192   0.00000  Uiso   1.00
H358   H     0.90943   0.91821   0.15923   0.00000  Uiso   1.00
H359   H     0.41499   0.90433   0.37855   0.00000  Uiso   1.00
O360   O     0.70321   0.48314   0.13363   0.00000  Uiso   1.00
O361   O     0.71214   0.04135   0.15635   0.00000  Uiso   1.00
O362   O     0.37542   0.02314   0.44409   0.00000  Uiso   1.00
N363   N     0.54132   0.48109   0.17532   0.00000  Uiso   1.00
N364   N     0.83506   0.16627   0.19150   0.00000  Uiso   1.00
N365   N     0.30769   0.15328   0.39654   0.00000  Uiso   1.00
N366   N     0.61250   0.31243   0.15581   0.00000  Uiso   1.00
N367   N     0.90624   0.99761   0.17199   0.00000  Uiso   1.00
N368   N     0.37887   0.98462   0.37703   0.00000  Uiso   1.00
