data_job_03996
_audit_creation_date              2018-12-19
_audit_creation_method            'Materials Studio'
_symmetry_space_group_name_H-M    'P1'
_symmetry_Int_Tables_number       1
_symmetry_cell_setting            triclinic
loop_
_symmetry_equiv_pos_as_xyz
  x,y,z
_cell_length_a                    23.8439
_cell_length_b                    20.0337
_cell_length_c                    13.9776
_cell_angle_alpha                 90.0000
_cell_angle_beta                  90.0000
_cell_angle_gamma                 90.0000
loop_
_atom_site_label
_atom_site_type_symbol
_atom_site_fract_x
_atom_site_fract_y
_atom_site_fract_z
_atom_site_U_iso_or_equiv
_atom_site_adp_type
_atom_site_occupancy
C1     C     0.58658   0.08770   0.31504   0.00000  Uiso   1.00
C2     C     0.63458   0.10141   0.24566   0.00000  Uiso   1.00
C3     C     0.66475   0.16047   0.23920   0.00000  Uiso   1.00
C4     C     0.70706   0.16310   0.17105   0.00000  Uiso   1.00
C5     C     0.77979   0.19268   0.07234   0.00000  Uiso   1.00
C6     C     0.53656   0.06751   0.25354   0.00000  Uiso   1.00
C7     C     0.48432   0.09807   0.25370   0.00000  Uiso   1.00
C8     C     0.44412   0.07216   0.19219   0.00000  Uiso   1.00
C9     C     0.36466   0.04909   0.10575   0.00000  Uiso   1.00
C10    C     0.60332   0.02542   0.37087   0.00000  Uiso   1.00
C11    C     0.60721   0.02057   0.46970   0.00000  Uiso   1.00
C12    C     0.62320   0.95921   0.50697   0.00000  Uiso   1.00
C13    C     0.64740   0.87078   0.60272   0.00000  Uiso   1.00
C14    C     0.60806   0.98735   0.20552   0.00000  Uiso   1.00
C15    C     0.64624   0.04690   0.18618   0.00000  Uiso   1.00
C16    C     0.68851   0.04944   0.11802   0.00000  Uiso   1.00
C17    C     0.71875   0.10849   0.11146   0.00000  Uiso   1.00
C18    C     0.54822   0.01300   0.19405   0.00000  Uiso   1.00
C19    C     0.50808   0.98704   0.13253   0.00000  Uiso   1.00
C20    C     0.45580   0.01755   0.13260   0.00000  Uiso   1.00
C21    C     0.61499   0.97091   0.31138   0.00000  Uiso   1.00
C22    C     0.63097   0.90954   0.34852   0.00000  Uiso   1.00
C23    C     0.63488   0.90461   0.44738   0.00000  Uiso   1.00
H24    H     0.57750   0.13014   0.36136   0.00000  Uiso   1.00
H25    H     0.65571   0.20264   0.28524   0.00000  Uiso   1.00
H26    H     0.47531   0.14025   0.29975   0.00000  Uiso   1.00
H27    H     0.59818   0.06276   0.51571   0.00000  Uiso   1.00
H28    H     0.74756   0.25900   0.17460   0.00000  Uiso   1.00
H29    H     0.36716   0.12742   0.20522   0.00000  Uiso   1.00
H30    H     0.62625   0.96403   0.66060   0.00000  Uiso   1.00
H31    H     0.61713   0.94491   0.15921   0.00000  Uiso   1.00
H32    H     0.69753   0.00725   0.07200   0.00000  Uiso   1.00
H33    H     0.51712   0.94485   0.08651   0.00000  Uiso   1.00
H34    H     0.63999   0.86737   0.30246   0.00000  Uiso   1.00
H35    H     0.78149   0.10041   0.00152   0.00000  Uiso   1.00
H36    H     0.40109   0.96883   0.03214   0.00000  Uiso   1.00
H37    H     0.66019   0.80544   0.48752   0.00000  Uiso   1.00
O38    O     0.81668   0.22406   0.03431   0.00000  Uiso   1.00
O39    O     0.31761   0.05143   0.07450   0.00000  Uiso   1.00
O40    O     0.65754   0.83707   0.67196   0.00000  Uiso   1.00
N41    N     0.74452   0.21311   0.14584   0.00000  Uiso   1.00
N42    N     0.38887   0.09010   0.17446   0.00000  Uiso   1.00
N43    N     0.63109   0.93734   0.60021   0.00000  Uiso   1.00
N44    N     0.76278   0.12778   0.05271   0.00000  Uiso   1.00
N45    N     0.40713   0.00477   0.08133   0.00000  Uiso   1.00
N46    N     0.64935   0.85201   0.50708   0.00000  Uiso   1.00
C47    C     0.91342   0.91230   0.31504   0.00000  Uiso   1.00
C48    C     0.86542   0.89859   0.24566   0.00000  Uiso   1.00
C49    C     0.83525   0.83953   0.23920   0.00000  Uiso   1.00
C50    C     0.79294   0.83690   0.17105   0.00000  Uiso   1.00
C51    C     0.72021   0.80732   0.07234   0.00000  Uiso   1.00
C52    C     0.96344   0.93249   0.25354   0.00000  Uiso   1.00
C53    C     0.01568   0.90193   0.25370   0.00000  Uiso   1.00
C54    C     0.05588   0.92784   0.19219   0.00000  Uiso   1.00
C55    C     0.13534   0.95091   0.10575   0.00000  Uiso   1.00
C56    C     0.89668   0.97458   0.37087   0.00000  Uiso   1.00
C57    C     0.89279   0.97943   0.46970   0.00000  Uiso   1.00
C58    C     0.87680   0.04079   0.50697   0.00000  Uiso   1.00
C59    C     0.85260   0.12922   0.60272   0.00000  Uiso   1.00
C60    C     0.89194   0.01265   0.20552   0.00000  Uiso   1.00
C61    C     0.85376   0.95310   0.18618   0.00000  Uiso   1.00
C62    C     0.81149   0.95056   0.11802   0.00000  Uiso   1.00
C63    C     0.78125   0.89151   0.11146   0.00000  Uiso   1.00
C64    C     0.95178   0.98700   0.19405   0.00000  Uiso   1.00
C65    C     0.99192   0.01296   0.13253   0.00000  Uiso   1.00
C66    C     0.04420   0.98245   0.13260   0.00000  Uiso   1.00
C67    C     0.88501   0.02909   0.31138   0.00000  Uiso   1.00
C68    C     0.86903   0.09046   0.34852   0.00000  Uiso   1.00
C69    C     0.86512   0.09539   0.44738   0.00000  Uiso   1.00
H70    H     0.92250   0.86986   0.36136   0.00000  Uiso   1.00
H71    H     0.84429   0.79736   0.28524   0.00000  Uiso   1.00
H72    H     0.02469   0.85975   0.29975   0.00000  Uiso   1.00
H73    H     0.90182   0.93724   0.51571   0.00000  Uiso   1.00
H74    H     0.75244   0.74100   0.17460   0.00000  Uiso   1.00
H75    H     0.13284   0.87258   0.20522   0.00000  Uiso   1.00
H76    H     0.87375   0.03597   0.66060   0.00000  Uiso   1.00
H77    H     0.88287   0.05509   0.15921   0.00000  Uiso   1.00
H78    H     0.80247   0.99275   0.07200   0.00000  Uiso   1.00
H79    H     0.98288   0.05515   0.08651   0.00000  Uiso   1.00
H80    H     0.86001   0.13263   0.30246   0.00000  Uiso   1.00
H81    H     0.71851   0.89959   0.00152   0.00000  Uiso   1.00
H82    H     0.09891   0.03117   0.03214   0.00000  Uiso   1.00
H83    H     0.83981   0.19456   0.48752   0.00000  Uiso   1.00
O84    O     0.68332   0.77594   0.03431   0.00000  Uiso   1.00
O85    O     0.18239   0.94857   0.07450   0.00000  Uiso   1.00
O86    O     0.84246   0.16293   0.67196   0.00000  Uiso   1.00
N87    N     0.75548   0.78689   0.14584   0.00000  Uiso   1.00
N88    N     0.11113   0.90990   0.17446   0.00000  Uiso   1.00
N89    N     0.86891   0.06266   0.60021   0.00000  Uiso   1.00
N90    N     0.73722   0.87222   0.05271   0.00000  Uiso   1.00
N91    N     0.09287   0.99523   0.08133   0.00000  Uiso   1.00
N92    N     0.85065   0.14799   0.50708   0.00000  Uiso   1.00
C93    C     0.91342   0.58770   0.18496   0.00000  Uiso   1.00
C94    C     0.86542   0.60141   0.25434   0.00000  Uiso   1.00
C95    C     0.83525   0.66047   0.26080   0.00000  Uiso   1.00
C96    C     0.79294   0.66310   0.32895   0.00000  Uiso   1.00
C97    C     0.72021   0.69268   0.42766   0.00000  Uiso   1.00
C98    C     0.96344   0.56751   0.24646   0.00000  Uiso   1.00
C99    C     0.01568   0.59807   0.24630   0.00000  Uiso   1.00
C100   C     0.05588   0.57216   0.30781   0.00000  Uiso   1.00
C101   C     0.13534   0.54909   0.39425   0.00000  Uiso   1.00
C102   C     0.89668   0.52542   0.12913   0.00000  Uiso   1.00
C103   C     0.89279   0.52057   0.03030   0.00000  Uiso   1.00
C104   C     0.87680   0.45921   0.99303   0.00000  Uiso   1.00
C105   C     0.85260   0.37078   0.89728   0.00000  Uiso   1.00
C106   C     0.89194   0.48735   0.29448   0.00000  Uiso   1.00
C107   C     0.85376   0.54690   0.31382   0.00000  Uiso   1.00
C108   C     0.81149   0.54944   0.38198   0.00000  Uiso   1.00
C109   C     0.78125   0.60849   0.38854   0.00000  Uiso   1.00
C110   C     0.95178   0.51300   0.30595   0.00000  Uiso   1.00
C111   C     0.99192   0.48704   0.36747   0.00000  Uiso   1.00
C112   C     0.04420   0.51755   0.36740   0.00000  Uiso   1.00
C113   C     0.88501   0.47091   0.18862   0.00000  Uiso   1.00
C114   C     0.86903   0.40954   0.15148   0.00000  Uiso   1.00
C115   C     0.86512   0.40461   0.05262   0.00000  Uiso   1.00
H116   H     0.92250   0.63014   0.13864   0.00000  Uiso   1.00
H117   H     0.84429   0.70264   0.21476   0.00000  Uiso   1.00
H118   H     0.02469   0.64025   0.20025   0.00000  Uiso   1.00
H119   H     0.90182   0.56276   0.98429   0.00000  Uiso   1.00
H120   H     0.75244   0.75900   0.32540   0.00000  Uiso   1.00
H121   H     0.13284   0.62742   0.29478   0.00000  Uiso   1.00
H122   H     0.87375   0.46403   0.83940   0.00000  Uiso   1.00
H123   H     0.88287   0.44491   0.34079   0.00000  Uiso   1.00
H124   H     0.80247   0.50725   0.42800   0.00000  Uiso   1.00
H125   H     0.98288   0.44485   0.41349   0.00000  Uiso   1.00
H126   H     0.86001   0.36737   0.19754   0.00000  Uiso   1.00
H127   H     0.71851   0.60041   0.49848   0.00000  Uiso   1.00
H128   H     0.09891   0.46883   0.46786   0.00000  Uiso   1.00
H129   H     0.83981   0.30544   0.01248   0.00000  Uiso   1.00
O130   O     0.68332   0.72406   0.46569   0.00000  Uiso   1.00
O131   O     0.18239   0.55143   0.42550   0.00000  Uiso   1.00
O132   O     0.84246   0.33707   0.82804   0.00000  Uiso   1.00
N133   N     0.75548   0.71311   0.35416   0.00000  Uiso   1.00
N134   N     0.11113   0.59010   0.32554   0.00000  Uiso   1.00
N135   N     0.86891   0.43734   0.89979   0.00000  Uiso   1.00
N136   N     0.73722   0.62778   0.44729   0.00000  Uiso   1.00
N137   N     0.09287   0.50477   0.41867   0.00000  Uiso   1.00
N138   N     0.85065   0.35201   0.99292   0.00000  Uiso   1.00
C139   C     0.58658   0.41230   0.18496   0.00000  Uiso   1.00
C140   C     0.63458   0.39859   0.25434   0.00000  Uiso   1.00
C141   C     0.66475   0.33953   0.26080   0.00000  Uiso   1.00
C142   C     0.70706   0.33690   0.32895   0.00000  Uiso   1.00
C143   C     0.77979   0.30732   0.42766   0.00000  Uiso   1.00
C144   C     0.53656   0.43249   0.24646   0.00000  Uiso   1.00
C145   C     0.48432   0.40193   0.24630   0.00000  Uiso   1.00
C146   C     0.44412   0.42784   0.30781   0.00000  Uiso   1.00
C147   C     0.36466   0.45091   0.39425   0.00000  Uiso   1.00
C148   C     0.60332   0.47458   0.12913   0.00000  Uiso   1.00
C149   C     0.60721   0.47943   0.03030   0.00000  Uiso   1.00
C150   C     0.62320   0.54079   0.99303   0.00000  Uiso   1.00
C151   C     0.64740   0.62922   0.89728   0.00000  Uiso   1.00
C152   C     0.60806   0.51265   0.29448   0.00000  Uiso   1.00
C153   C     0.64624   0.45310   0.31382   0.00000  Uiso   1.00
C154   C     0.68851   0.45056   0.38198   0.00000  Uiso   1.00
C155   C     0.71875   0.39151   0.38854   0.00000  Uiso   1.00
C156   C     0.54822   0.48700   0.30595   0.00000  Uiso   1.00
C157   C     0.50808   0.51296   0.36747   0.00000  Uiso   1.00
C158   C     0.45580   0.48245   0.36740   0.00000  Uiso   1.00
C159   C     0.61499   0.52909   0.18862   0.00000  Uiso   1.00
C160   C     0.63097   0.59046   0.15148   0.00000  Uiso   1.00
C161   C     0.63488   0.59539   0.05262   0.00000  Uiso   1.00
H162   H     0.57750   0.36986   0.13864   0.00000  Uiso   1.00
H163   H     0.65571   0.29736   0.21476   0.00000  Uiso   1.00
H164   H     0.47531   0.35975   0.20025   0.00000  Uiso   1.00
H165   H     0.59818   0.43724   0.98429   0.00000  Uiso   1.00
H166   H     0.74756   0.24100   0.32540   0.00000  Uiso   1.00
H167   H     0.36716   0.37258   0.29478   0.00000  Uiso   1.00
H168   H     0.62625   0.53597   0.83940   0.00000  Uiso   1.00
H169   H     0.61713   0.55509   0.34079   0.00000  Uiso   1.00
H170   H     0.69753   0.49275   0.42800   0.00000  Uiso   1.00
H171   H     0.51712   0.55515   0.41349   0.00000  Uiso   1.00
H172   H     0.63999   0.63263   0.19754   0.00000  Uiso   1.00
H173   H     0.78149   0.39959   0.49848   0.00000  Uiso   1.00
H174   H     0.40109   0.53117   0.46786   0.00000  Uiso   1.00
H175   H     0.66019   0.69456   0.01248   0.00000  Uiso   1.00
O176   O     0.81668   0.27594   0.46569   0.00000  Uiso   1.00
O177   O     0.31761   0.44857   0.42550   0.00000  Uiso   1.00
O178   O     0.65754   0.66293   0.82804   0.00000  Uiso   1.00
N179   N     0.74452   0.28689   0.35416   0.00000  Uiso   1.00
N180   N     0.38887   0.40990   0.32554   0.00000  Uiso   1.00
N181   N     0.63109   0.56266   0.89979   0.00000  Uiso   1.00
N182   N     0.76278   0.37222   0.44729   0.00000  Uiso   1.00
N183   N     0.40713   0.49523   0.41867   0.00000  Uiso   1.00
N184   N     0.64935   0.64799   0.99292   0.00000  Uiso   1.00
C185   C     0.41342   0.91230   0.68496   0.00000  Uiso   1.00
C186   C     0.36542   0.89859   0.75434   0.00000  Uiso   1.00
C187   C     0.33525   0.83953   0.76080   0.00000  Uiso   1.00
C188   C     0.29294   0.83690   0.82895   0.00000  Uiso   1.00
C189   C     0.22021   0.80732   0.92766   0.00000  Uiso   1.00
C190   C     0.46344   0.93249   0.74646   0.00000  Uiso   1.00
C191   C     0.51568   0.90193   0.74630   0.00000  Uiso   1.00
C192   C     0.55588   0.92784   0.80781   0.00000  Uiso   1.00
C193   C     0.63534   0.95091   0.89425   0.00000  Uiso   1.00
C194   C     0.39668   0.97458   0.62913   0.00000  Uiso   1.00
C195   C     0.39279   0.97943   0.53030   0.00000  Uiso   1.00
C196   C     0.37680   0.04079   0.49303   0.00000  Uiso   1.00
C197   C     0.35260   0.12922   0.39728   0.00000  Uiso   1.00
C198   C     0.39194   0.01265   0.79448   0.00000  Uiso   1.00
C199   C     0.35376   0.95310   0.81382   0.00000  Uiso   1.00
C200   C     0.31149   0.95056   0.88198   0.00000  Uiso   1.00
C201   C     0.28125   0.89151   0.88854   0.00000  Uiso   1.00
C202   C     0.45178   0.98700   0.80595   0.00000  Uiso   1.00
C203   C     0.49192   0.01296   0.86747   0.00000  Uiso   1.00
C204   C     0.54420   0.98245   0.86740   0.00000  Uiso   1.00
C205   C     0.38501   0.02909   0.68862   0.00000  Uiso   1.00
C206   C     0.36903   0.09046   0.65148   0.00000  Uiso   1.00
C207   C     0.36512   0.09539   0.55262   0.00000  Uiso   1.00
H208   H     0.42250   0.86986   0.63864   0.00000  Uiso   1.00
H209   H     0.34429   0.79736   0.71476   0.00000  Uiso   1.00
H210   H     0.52469   0.85975   0.70025   0.00000  Uiso   1.00
H211   H     0.40182   0.93724   0.48429   0.00000  Uiso   1.00
H212   H     0.25244   0.74100   0.82540   0.00000  Uiso   1.00
H213   H     0.63284   0.87258   0.79478   0.00000  Uiso   1.00
H214   H     0.37375   0.03597   0.33940   0.00000  Uiso   1.00
H215   H     0.38287   0.05509   0.84079   0.00000  Uiso   1.00
H216   H     0.30247   0.99275   0.92800   0.00000  Uiso   1.00
H217   H     0.48288   0.05515   0.91349   0.00000  Uiso   1.00
H218   H     0.36001   0.13263   0.69754   0.00000  Uiso   1.00
H219   H     0.21851   0.89959   0.99848   0.00000  Uiso   1.00
H220   H     0.59891   0.03117   0.96786   0.00000  Uiso   1.00
H221   H     0.33981   0.19456   0.51248   0.00000  Uiso   1.00
O222   O     0.18332   0.77594   0.96569   0.00000  Uiso   1.00
O223   O     0.68239   0.94857   0.92550   0.00000  Uiso   1.00
O224   O     0.34246   0.16293   0.32804   0.00000  Uiso   1.00
N225   N     0.25548   0.78689   0.85416   0.00000  Uiso   1.00
N226   N     0.61113   0.90990   0.82554   0.00000  Uiso   1.00
N227   N     0.36891   0.06266   0.39979   0.00000  Uiso   1.00
N228   N     0.23722   0.87222   0.94729   0.00000  Uiso   1.00
N229   N     0.59287   0.99523   0.91867   0.00000  Uiso   1.00
N230   N     0.35065   0.14799   0.49292   0.00000  Uiso   1.00
C231   C     0.08658   0.08770   0.68496   0.00000  Uiso   1.00
C232   C     0.13458   0.10141   0.75434   0.00000  Uiso   1.00
C233   C     0.16475   0.16047   0.76080   0.00000  Uiso   1.00
C234   C     0.20706   0.16310   0.82895   0.00000  Uiso   1.00
C235   C     0.27979   0.19268   0.92766   0.00000  Uiso   1.00
C236   C     0.03656   0.06751   0.74646   0.00000  Uiso   1.00
C237   C     0.98432   0.09807   0.74630   0.00000  Uiso   1.00
C238   C     0.94412   0.07216   0.80781   0.00000  Uiso   1.00
C239   C     0.86466   0.04909   0.89425   0.00000  Uiso   1.00
C240   C     0.10332   0.02542   0.62913   0.00000  Uiso   1.00
C241   C     0.10721   0.02057   0.53030   0.00000  Uiso   1.00
C242   C     0.12320   0.95921   0.49303   0.00000  Uiso   1.00
C243   C     0.14740   0.87078   0.39728   0.00000  Uiso   1.00
C244   C     0.10806   0.98735   0.79448   0.00000  Uiso   1.00
C245   C     0.14624   0.04690   0.81382   0.00000  Uiso   1.00
C246   C     0.18851   0.04944   0.88198   0.00000  Uiso   1.00
C247   C     0.21875   0.10849   0.88854   0.00000  Uiso   1.00
C248   C     0.04822   0.01300   0.80595   0.00000  Uiso   1.00
C249   C     0.00808   0.98704   0.86747   0.00000  Uiso   1.00
C250   C     0.95580   0.01755   0.86740   0.00000  Uiso   1.00
C251   C     0.11499   0.97091   0.68862   0.00000  Uiso   1.00
C252   C     0.13097   0.90954   0.65148   0.00000  Uiso   1.00
C253   C     0.13488   0.90461   0.55262   0.00000  Uiso   1.00
H254   H     0.07750   0.13014   0.63864   0.00000  Uiso   1.00
H255   H     0.15571   0.20264   0.71476   0.00000  Uiso   1.00
H256   H     0.97531   0.14025   0.70025   0.00000  Uiso   1.00
H257   H     0.09818   0.06276   0.48429   0.00000  Uiso   1.00
H258   H     0.24756   0.25900   0.82540   0.00000  Uiso   1.00
H259   H     0.86716   0.12742   0.79478   0.00000  Uiso   1.00
H260   H     0.12625   0.96403   0.33940   0.00000  Uiso   1.00
H261   H     0.11713   0.94491   0.84079   0.00000  Uiso   1.00
H262   H     0.19753   0.00725   0.92800   0.00000  Uiso   1.00
H263   H     0.01712   0.94485   0.91349   0.00000  Uiso   1.00
H264   H     0.13999   0.86737   0.69754   0.00000  Uiso   1.00
H265   H     0.28149   0.10041   0.99848   0.00000  Uiso   1.00
H266   H     0.90109   0.96883   0.96786   0.00000  Uiso   1.00
H267   H     0.16019   0.80544   0.51248   0.00000  Uiso   1.00
O268   O     0.31668   0.22406   0.96569   0.00000  Uiso   1.00
O269   O     0.81761   0.05143   0.92550   0.00000  Uiso   1.00
O270   O     0.15754   0.83707   0.32804   0.00000  Uiso   1.00
N271   N     0.24452   0.21311   0.85416   0.00000  Uiso   1.00
N272   N     0.88887   0.09010   0.82554   0.00000  Uiso   1.00
N273   N     0.13109   0.93734   0.39979   0.00000  Uiso   1.00
N274   N     0.26278   0.12778   0.94729   0.00000  Uiso   1.00
N275   N     0.90713   0.00477   0.91867   0.00000  Uiso   1.00
N276   N     0.14935   0.85201   0.49292   0.00000  Uiso   1.00
C277   C     0.08658   0.41230   0.81504   0.00000  Uiso   1.00
C278   C     0.13458   0.39859   0.74566   0.00000  Uiso   1.00
C279   C     0.16475   0.33953   0.73920   0.00000  Uiso   1.00
C280   C     0.20706   0.33690   0.67105   0.00000  Uiso   1.00
C281   C     0.27979   0.30732   0.57234   0.00000  Uiso   1.00
C282   C     0.03656   0.43249   0.75354   0.00000  Uiso   1.00
C283   C     0.98432   0.40193   0.75370   0.00000  Uiso   1.00
C284   C     0.94412   0.42784   0.69219   0.00000  Uiso   1.00
C285   C     0.86466   0.45091   0.60575   0.00000  Uiso   1.00
C286   C     0.10332   0.47458   0.87087   0.00000  Uiso   1.00
C287   C     0.10721   0.47943   0.96970   0.00000  Uiso   1.00
C288   C     0.12320   0.54079   0.00697   0.00000  Uiso   1.00
C289   C     0.14740   0.62922   0.10272   0.00000  Uiso   1.00
C290   C     0.10806   0.51265   0.70552   0.00000  Uiso   1.00
C291   C     0.14624   0.45310   0.68618   0.00000  Uiso   1.00
C292   C     0.18851   0.45056   0.61802   0.00000  Uiso   1.00
C293   C     0.21875   0.39151   0.61146   0.00000  Uiso   1.00
C294   C     0.04822   0.48700   0.69405   0.00000  Uiso   1.00
C295   C     0.00808   0.51296   0.63253   0.00000  Uiso   1.00
C296   C     0.95580   0.48245   0.63260   0.00000  Uiso   1.00
C297   C     0.11499   0.52909   0.81138   0.00000  Uiso   1.00
C298   C     0.13097   0.59046   0.84852   0.00000  Uiso   1.00
C299   C     0.13488   0.59539   0.94738   0.00000  Uiso   1.00
H300   H     0.07750   0.36986   0.86136   0.00000  Uiso   1.00
H301   H     0.15571   0.29736   0.78524   0.00000  Uiso   1.00
H302   H     0.97531   0.35975   0.79975   0.00000  Uiso   1.00
H303   H     0.09818   0.43724   0.01571   0.00000  Uiso   1.00
H304   H     0.24756   0.24100   0.67460   0.00000  Uiso   1.00
H305   H     0.86716   0.37258   0.70522   0.00000  Uiso   1.00
H306   H     0.12625   0.53597   0.16060   0.00000  Uiso   1.00
H307   H     0.11713   0.55509   0.65921   0.00000  Uiso   1.00
H308   H     0.19753   0.49275   0.57200   0.00000  Uiso   1.00
H309   H     0.01712   0.55515   0.58651   0.00000  Uiso   1.00
H310   H     0.13999   0.63263   0.80246   0.00000  Uiso   1.00
H311   H     0.28149   0.39959   0.50152   0.00000  Uiso   1.00
H312   H     0.90109   0.53117   0.53214   0.00000  Uiso   1.00
H313   H     0.16019   0.69456   0.98752   0.00000  Uiso   1.00
O314   O     0.31668   0.27594   0.53431   0.00000  Uiso   1.00
O315   O     0.81761   0.44857   0.57450   0.00000  Uiso   1.00
O316   O     0.15754   0.66293   0.17196   0.00000  Uiso   1.00
N317   N     0.24452   0.28689   0.64584   0.00000  Uiso   1.00
N318   N     0.88887   0.40990   0.67446   0.00000  Uiso   1.00
N319   N     0.13109   0.56266   0.10021   0.00000  Uiso   1.00
N320   N     0.26278   0.37222   0.55271   0.00000  Uiso   1.00
N321   N     0.90713   0.49523   0.58133   0.00000  Uiso   1.00
N322   N     0.14935   0.64799   0.00708   0.00000  Uiso   1.00
C323   C     0.41342   0.58770   0.81504   0.00000  Uiso   1.00
C324   C     0.36542   0.60141   0.74566   0.00000  Uiso   1.00
C325   C     0.33525   0.66047   0.73920   0.00000  Uiso   1.00
C326   C     0.29294   0.66310   0.67105   0.00000  Uiso   1.00
C327   C     0.22021   0.69268   0.57234   0.00000  Uiso   1.00
C328   C     0.46344   0.56751   0.75354   0.00000  Uiso   1.00
C329   C     0.51568   0.59807   0.75370   0.00000  Uiso   1.00
C330   C     0.55588   0.57216   0.69219   0.00000  Uiso   1.00
C331   C     0.63534   0.54909   0.60575   0.00000  Uiso   1.00
C332   C     0.39668   0.52542   0.87087   0.00000  Uiso   1.00
C333   C     0.39279   0.52057   0.96970   0.00000  Uiso   1.00
C334   C     0.37680   0.45921   0.00697   0.00000  Uiso   1.00
C335   C     0.35260   0.37078   0.10272   0.00000  Uiso   1.00
C336   C     0.39194   0.48735   0.70552   0.00000  Uiso   1.00
C337   C     0.35376   0.54690   0.68618   0.00000  Uiso   1.00
C338   C     0.31149   0.54944   0.61802   0.00000  Uiso   1.00
C339   C     0.28125   0.60849   0.61146   0.00000  Uiso   1.00
C340   C     0.45178   0.51300   0.69405   0.00000  Uiso   1.00
C341   C     0.49192   0.48704   0.63253   0.00000  Uiso   1.00
C342   C     0.54420   0.51755   0.63260   0.00000  Uiso   1.00
C343   C     0.38501   0.47091   0.81138   0.00000  Uiso   1.00
C344   C     0.36903   0.40954   0.84852   0.00000  Uiso   1.00
C345   C     0.36512   0.40461   0.94738   0.00000  Uiso   1.00
H346   H     0.42250   0.63014   0.86136   0.00000  Uiso   1.00
H347   H     0.34429   0.70264   0.78524   0.00000  Uiso   1.00
H348   H     0.52469   0.64025   0.79975   0.00000  Uiso   1.00
H349   H     0.40182   0.56276   0.01571   0.00000  Uiso   1.00
H350   H     0.25244   0.75900   0.67460   0.00000  Uiso   1.00
H351   H     0.63284   0.62742   0.70522   0.00000  Uiso   1.00
H352   H     0.37375   0.46403   0.16060   0.00000  Uiso   1.00
H353   H     0.38287   0.44491   0.65921   0.00000  Uiso   1.00
H354   H     0.30247   0.50725   0.57200   0.00000  Uiso   1.00
H355   H     0.48288   0.44485   0.58651   0.00000  Uiso   1.00
H356   H     0.36001   0.36737   0.80246   0.00000  Uiso   1.00
H357   H     0.21851   0.60041   0.50152   0.00000  Uiso   1.00
H358   H     0.59891   0.46883   0.53214   0.00000  Uiso   1.00
H359   H     0.33981   0.30544   0.98752   0.00000  Uiso   1.00
O360   O     0.18332   0.72406   0.53431   0.00000  Uiso   1.00
O361   O     0.68239   0.55143   0.57450   0.00000  Uiso   1.00
O362   O     0.34246   0.33707   0.17196   0.00000  Uiso   1.00
N363   N     0.25548   0.71311   0.64584   0.00000  Uiso   1.00
N364   N     0.61113   0.59010   0.67446   0.00000  Uiso   1.00
N365   N     0.36891   0.43734   0.10021   0.00000  Uiso   1.00
N366   N     0.23722   0.62778   0.55271   0.00000  Uiso   1.00
N367   N     0.59287   0.50477   0.58133   0.00000  Uiso   1.00
N368   N     0.35065   0.35201   0.00708   0.00000  Uiso   1.00
