data_job_05195
_audit_creation_date              2018-12-19
_audit_creation_method            'Materials Studio'
_symmetry_space_group_name_H-M    'P1'
_symmetry_Int_Tables_number       1
_symmetry_cell_setting            triclinic
loop_
_symmetry_equiv_pos_as_xyz
  x,y,z
_cell_length_a                    43.4902
_cell_length_b                    12.2845
_cell_length_c                    13.2674
_cell_angle_alpha                 90.0000
_cell_angle_beta                  90.0000
_cell_angle_gamma                 90.0000
loop_
_atom_site_label
_atom_site_type_symbol
_atom_site_fract_x
_atom_site_fract_y
_atom_site_fract_z
_atom_site_U_iso_or_equiv
_atom_site_adp_type
_atom_site_occupancy
C1     C     0.34228   0.62695   0.65633   0.00000  Uiso   1.00
C2     C     0.33056   0.71229   0.58222   0.00000  Uiso   1.00
C3     C     0.31808   0.81255   0.60765   0.00000  Uiso   1.00
C4     C     0.30870   0.87904   0.52880   0.00000  Uiso   1.00
C5     C     0.29004   0.01650   0.42903   0.00000  Uiso   1.00
C6     C     0.32452   0.52291   0.63302   0.00000  Uiso   1.00
C7     C     0.30695   0.46395   0.70119   0.00000  Uiso   1.00
C8     C     0.29250   0.37102   0.66511   0.00000  Uiso   1.00
C9     C     0.26447   0.21443   0.64423   0.00000  Uiso   1.00
C10    C     0.37555   0.60438   0.62680   0.00000  Uiso   1.00
C11    C     0.40090   0.61388   0.68974   0.00000  Uiso   1.00
C12    C     0.42942   0.58951   0.64842   0.00000  Uiso   1.00
C13    C     0.48063   0.55942   0.61788   0.00000  Uiso   1.00
C14    C     0.34784   0.56674   0.47107   0.00000  Uiso   1.00
C15    C     0.33358   0.67958   0.48159   0.00000  Uiso   1.00
C16    C     0.32423   0.74593   0.40267   0.00000  Uiso   1.00
C17    C     0.31173   0.84628   0.42799   0.00000  Uiso   1.00
C18    C     0.32754   0.49021   0.53240   0.00000  Uiso   1.00
C19    C     0.31311   0.39733   0.49621   0.00000  Uiso   1.00
C20    C     0.29552   0.33825   0.56430   0.00000  Uiso   1.00
C21    C     0.37858   0.57168   0.52617   0.00000  Uiso   1.00
C22    C     0.40706   0.54727   0.48475   0.00000  Uiso   1.00
C23    C     0.43244   0.55675   0.54761   0.00000  Uiso   1.00
H24    H     0.33992   0.65241   0.73468   0.00000  Uiso   1.00
H25    H     0.31574   0.83783   0.68554   0.00000  Uiso   1.00
H26    H     0.30462   0.48928   0.77906   0.00000  Uiso   1.00
H27    H     0.39855   0.63920   0.76760   0.00000  Uiso   1.00
H28    H     0.29025   0.02896   0.58668   0.00000  Uiso   1.00
H29    H     0.26681   0.29400   0.78388   0.00000  Uiso   1.00
H30    H     0.46489   0.61013   0.75973   0.00000  Uiso   1.00
H31    H     0.35019   0.54127   0.39272   0.00000  Uiso   1.00
H32    H     0.32657   0.72060   0.32481   0.00000  Uiso   1.00
H33    H     0.31545   0.37205   0.41833   0.00000  Uiso   1.00
H34    H     0.40939   0.52197   0.40688   0.00000  Uiso   1.00
H35    H     0.29904   0.93381   0.29390   0.00000  Uiso   1.00
H36    H     0.27561   0.19885   0.49111   0.00000  Uiso   1.00
H37    H     0.47369   0.51499   0.46695   0.00000  Uiso   1.00
O38    O     0.27891   0.10134   0.40179   0.00000  Uiso   1.00
O39    O     0.24817   0.13710   0.66052   0.00000  Uiso   1.00
O40    O     0.50805   0.55186   0.62883   0.00000  Uiso   1.00
N41    N     0.29557   0.98197   0.52709   0.00000  Uiso   1.00
N42    N     0.27365   0.29483   0.71146   0.00000  Uiso   1.00
N43    N     0.45884   0.59036   0.68889   0.00000  Uiso   1.00
N44    N     0.30030   0.93077   0.36955   0.00000  Uiso   1.00
N45    N     0.27838   0.24364   0.55392   0.00000  Uiso   1.00
N46    N     0.46357   0.53916   0.53135   0.00000  Uiso   1.00
C47    C     0.15772   0.37305   0.65633   0.00000  Uiso   1.00
C48    C     0.16944   0.28771   0.58222   0.00000  Uiso   1.00
C49    C     0.18192   0.18745   0.60765   0.00000  Uiso   1.00
C50    C     0.19130   0.12096   0.52880   0.00000  Uiso   1.00
C51    C     0.20996   0.98350   0.42903   0.00000  Uiso   1.00
C52    C     0.17548   0.47709   0.63302   0.00000  Uiso   1.00
C53    C     0.19305   0.53605   0.70119   0.00000  Uiso   1.00
C54    C     0.20750   0.62898   0.66511   0.00000  Uiso   1.00
C55    C     0.23553   0.78557   0.64423   0.00000  Uiso   1.00
C56    C     0.12445   0.39562   0.62680   0.00000  Uiso   1.00
C57    C     0.09910   0.38612   0.68974   0.00000  Uiso   1.00
C58    C     0.07058   0.41049   0.64842   0.00000  Uiso   1.00
C59    C     0.01937   0.44058   0.61788   0.00000  Uiso   1.00
C60    C     0.15216   0.43326   0.47107   0.00000  Uiso   1.00
C61    C     0.16642   0.32042   0.48159   0.00000  Uiso   1.00
C62    C     0.17577   0.25407   0.40267   0.00000  Uiso   1.00
C63    C     0.18827   0.15372   0.42799   0.00000  Uiso   1.00
C64    C     0.17246   0.50979   0.53240   0.00000  Uiso   1.00
C65    C     0.18689   0.60267   0.49621   0.00000  Uiso   1.00
C66    C     0.20448   0.66175   0.56430   0.00000  Uiso   1.00
C67    C     0.12142   0.42832   0.52617   0.00000  Uiso   1.00
C68    C     0.09294   0.45273   0.48475   0.00000  Uiso   1.00
C69    C     0.06756   0.44325   0.54761   0.00000  Uiso   1.00
H70    H     0.16008   0.34759   0.73468   0.00000  Uiso   1.00
H71    H     0.18426   0.16217   0.68554   0.00000  Uiso   1.00
H72    H     0.19538   0.51072   0.77906   0.00000  Uiso   1.00
H73    H     0.10145   0.36080   0.76760   0.00000  Uiso   1.00
H74    H     0.20975   0.97104   0.58668   0.00000  Uiso   1.00
H75    H     0.23319   0.70600   0.78388   0.00000  Uiso   1.00
H76    H     0.03511   0.38987   0.75973   0.00000  Uiso   1.00
H77    H     0.14981   0.45873   0.39272   0.00000  Uiso   1.00
H78    H     0.17343   0.27940   0.32481   0.00000  Uiso   1.00
H79    H     0.18455   0.62795   0.41833   0.00000  Uiso   1.00
H80    H     0.09061   0.47803   0.40688   0.00000  Uiso   1.00
H81    H     0.20096   0.06619   0.29390   0.00000  Uiso   1.00
H82    H     0.22439   0.80115   0.49111   0.00000  Uiso   1.00
H83    H     0.02631   0.48501   0.46695   0.00000  Uiso   1.00
O84    O     0.22109   0.89866   0.40179   0.00000  Uiso   1.00
O85    O     0.25183   0.86290   0.66052   0.00000  Uiso   1.00
O86    O     0.99195   0.44814   0.62883   0.00000  Uiso   1.00
N87    N     0.20443   0.01803   0.52709   0.00000  Uiso   1.00
N88    N     0.22635   0.70517   0.71146   0.00000  Uiso   1.00
N89    N     0.04116   0.40964   0.68889   0.00000  Uiso   1.00
N90    N     0.19970   0.06923   0.36955   0.00000  Uiso   1.00
N91    N     0.22162   0.75636   0.55392   0.00000  Uiso   1.00
N92    N     0.03643   0.46084   0.53135   0.00000  Uiso   1.00
C93    C     0.65772   0.62695   0.84367   0.00000  Uiso   1.00
C94    C     0.66944   0.71229   0.91778   0.00000  Uiso   1.00
C95    C     0.68192   0.81255   0.89235   0.00000  Uiso   1.00
C96    C     0.69130   0.87904   0.97120   0.00000  Uiso   1.00
C97    C     0.70996   0.01650   0.07097   0.00000  Uiso   1.00
C98    C     0.67548   0.52291   0.86698   0.00000  Uiso   1.00
C99    C     0.69305   0.46395   0.79881   0.00000  Uiso   1.00
C100   C     0.70750   0.37102   0.83489   0.00000  Uiso   1.00
C101   C     0.73553   0.21443   0.85577   0.00000  Uiso   1.00
C102   C     0.62445   0.60438   0.87320   0.00000  Uiso   1.00
C103   C     0.59910   0.61388   0.81026   0.00000  Uiso   1.00
C104   C     0.57058   0.58951   0.85158   0.00000  Uiso   1.00
C105   C     0.51937   0.55942   0.88212   0.00000  Uiso   1.00
C106   C     0.65216   0.56674   0.02893   0.00000  Uiso   1.00
C107   C     0.66642   0.67958   0.01841   0.00000  Uiso   1.00
C108   C     0.67577   0.74593   0.09733   0.00000  Uiso   1.00
C109   C     0.68827   0.84628   0.07201   0.00000  Uiso   1.00
C110   C     0.67246   0.49021   0.96760   0.00000  Uiso   1.00
C111   C     0.68689   0.39733   0.00379   0.00000  Uiso   1.00
C112   C     0.70448   0.33825   0.93570   0.00000  Uiso   1.00
C113   C     0.62142   0.57168   0.97383   0.00000  Uiso   1.00
C114   C     0.59294   0.54727   0.01525   0.00000  Uiso   1.00
C115   C     0.56756   0.55675   0.95239   0.00000  Uiso   1.00
H116   H     0.66008   0.65241   0.76532   0.00000  Uiso   1.00
H117   H     0.68426   0.83783   0.81446   0.00000  Uiso   1.00
H118   H     0.69538   0.48928   0.72094   0.00000  Uiso   1.00
H119   H     0.60145   0.63920   0.73240   0.00000  Uiso   1.00
H120   H     0.70975   0.02896   0.91332   0.00000  Uiso   1.00
H121   H     0.73319   0.29400   0.71612   0.00000  Uiso   1.00
H122   H     0.53511   0.61013   0.74027   0.00000  Uiso   1.00
H123   H     0.64981   0.54127   0.10728   0.00000  Uiso   1.00
H124   H     0.67343   0.72060   0.17519   0.00000  Uiso   1.00
H125   H     0.68455   0.37205   0.08167   0.00000  Uiso   1.00
H126   H     0.59061   0.52197   0.09312   0.00000  Uiso   1.00
H127   H     0.70096   0.93381   0.20610   0.00000  Uiso   1.00
H128   H     0.72439   0.19885   0.00889   0.00000  Uiso   1.00
H129   H     0.52631   0.51499   0.03305   0.00000  Uiso   1.00
O130   O     0.72109   0.10134   0.09821   0.00000  Uiso   1.00
O131   O     0.75183   0.13710   0.83948   0.00000  Uiso   1.00
O132   O     0.49195   0.55186   0.87117   0.00000  Uiso   1.00
N133   N     0.70443   0.98197   0.97291   0.00000  Uiso   1.00
N134   N     0.72635   0.29483   0.78854   0.00000  Uiso   1.00
N135   N     0.54116   0.59036   0.81111   0.00000  Uiso   1.00
N136   N     0.69970   0.93077   0.13045   0.00000  Uiso   1.00
N137   N     0.72162   0.24364   0.94608   0.00000  Uiso   1.00
N138   N     0.53643   0.53916   0.96865   0.00000  Uiso   1.00
C139   C     0.84228   0.37305   0.84367   0.00000  Uiso   1.00
C140   C     0.83056   0.28771   0.91778   0.00000  Uiso   1.00
C141   C     0.81808   0.18745   0.89235   0.00000  Uiso   1.00
C142   C     0.80870   0.12096   0.97120   0.00000  Uiso   1.00
C143   C     0.79004   0.98350   0.07097   0.00000  Uiso   1.00
C144   C     0.82452   0.47709   0.86698   0.00000  Uiso   1.00
C145   C     0.80695   0.53605   0.79881   0.00000  Uiso   1.00
C146   C     0.79250   0.62898   0.83489   0.00000  Uiso   1.00
C147   C     0.76447   0.78557   0.85577   0.00000  Uiso   1.00
C148   C     0.87555   0.39562   0.87320   0.00000  Uiso   1.00
C149   C     0.90090   0.38612   0.81026   0.00000  Uiso   1.00
C150   C     0.92942   0.41049   0.85158   0.00000  Uiso   1.00
C151   C     0.98063   0.44058   0.88212   0.00000  Uiso   1.00
C152   C     0.84784   0.43326   0.02893   0.00000  Uiso   1.00
C153   C     0.83358   0.32042   0.01841   0.00000  Uiso   1.00
C154   C     0.82423   0.25407   0.09733   0.00000  Uiso   1.00
C155   C     0.81173   0.15372   0.07201   0.00000  Uiso   1.00
C156   C     0.82754   0.50979   0.96760   0.00000  Uiso   1.00
C157   C     0.81311   0.60267   0.00379   0.00000  Uiso   1.00
C158   C     0.79552   0.66175   0.93570   0.00000  Uiso   1.00
C159   C     0.87858   0.42832   0.97383   0.00000  Uiso   1.00
C160   C     0.90706   0.45273   0.01525   0.00000  Uiso   1.00
C161   C     0.93244   0.44325   0.95239   0.00000  Uiso   1.00
H162   H     0.83992   0.34759   0.76532   0.00000  Uiso   1.00
H163   H     0.81574   0.16217   0.81446   0.00000  Uiso   1.00
H164   H     0.80462   0.51072   0.72094   0.00000  Uiso   1.00
H165   H     0.89855   0.36080   0.73240   0.00000  Uiso   1.00
H166   H     0.79025   0.97104   0.91332   0.00000  Uiso   1.00
H167   H     0.76681   0.70600   0.71612   0.00000  Uiso   1.00
H168   H     0.96489   0.38987   0.74027   0.00000  Uiso   1.00
H169   H     0.85019   0.45873   0.10728   0.00000  Uiso   1.00
H170   H     0.82657   0.27940   0.17519   0.00000  Uiso   1.00
H171   H     0.81545   0.62795   0.08167   0.00000  Uiso   1.00
H172   H     0.90939   0.47803   0.09312   0.00000  Uiso   1.00
H173   H     0.79904   0.06619   0.20610   0.00000  Uiso   1.00
H174   H     0.77561   0.80115   0.00889   0.00000  Uiso   1.00
H175   H     0.97369   0.48501   0.03305   0.00000  Uiso   1.00
O176   O     0.77891   0.89866   0.09821   0.00000  Uiso   1.00
O177   O     0.74817   0.86290   0.83948   0.00000  Uiso   1.00
O178   O     0.00805   0.44814   0.87117   0.00000  Uiso   1.00
N179   N     0.79557   0.01803   0.97291   0.00000  Uiso   1.00
N180   N     0.77365   0.70517   0.78854   0.00000  Uiso   1.00
N181   N     0.95884   0.40964   0.81111   0.00000  Uiso   1.00
N182   N     0.80030   0.06923   0.13045   0.00000  Uiso   1.00
N183   N     0.77838   0.75636   0.94608   0.00000  Uiso   1.00
N184   N     0.96357   0.46084   0.96865   0.00000  Uiso   1.00
C185   C     0.65772   0.37305   0.34367   0.00000  Uiso   1.00
C186   C     0.66944   0.28771   0.41778   0.00000  Uiso   1.00
C187   C     0.68192   0.18745   0.39235   0.00000  Uiso   1.00
C188   C     0.69130   0.12096   0.47120   0.00000  Uiso   1.00
C189   C     0.70996   0.98350   0.57097   0.00000  Uiso   1.00
C190   C     0.67548   0.47709   0.36698   0.00000  Uiso   1.00
C191   C     0.69305   0.53605   0.29881   0.00000  Uiso   1.00
C192   C     0.70750   0.62898   0.33489   0.00000  Uiso   1.00
C193   C     0.73553   0.78557   0.35577   0.00000  Uiso   1.00
C194   C     0.62445   0.39562   0.37320   0.00000  Uiso   1.00
C195   C     0.59910   0.38612   0.31026   0.00000  Uiso   1.00
C196   C     0.57058   0.41049   0.35158   0.00000  Uiso   1.00
C197   C     0.51937   0.44058   0.38212   0.00000  Uiso   1.00
C198   C     0.65216   0.43326   0.52893   0.00000  Uiso   1.00
C199   C     0.66642   0.32042   0.51841   0.00000  Uiso   1.00
C200   C     0.67577   0.25407   0.59733   0.00000  Uiso   1.00
C201   C     0.68827   0.15372   0.57201   0.00000  Uiso   1.00
C202   C     0.67246   0.50979   0.46760   0.00000  Uiso   1.00
C203   C     0.68689   0.60267   0.50379   0.00000  Uiso   1.00
C204   C     0.70448   0.66175   0.43570   0.00000  Uiso   1.00
C205   C     0.62142   0.42832   0.47383   0.00000  Uiso   1.00
C206   C     0.59294   0.45273   0.51525   0.00000  Uiso   1.00
C207   C     0.56756   0.44325   0.45239   0.00000  Uiso   1.00
H208   H     0.66008   0.34759   0.26532   0.00000  Uiso   1.00
H209   H     0.68426   0.16217   0.31446   0.00000  Uiso   1.00
H210   H     0.69538   0.51072   0.22094   0.00000  Uiso   1.00
H211   H     0.60145   0.36080   0.23240   0.00000  Uiso   1.00
H212   H     0.70975   0.97104   0.41332   0.00000  Uiso   1.00
H213   H     0.73319   0.70600   0.21612   0.00000  Uiso   1.00
H214   H     0.53511   0.38987   0.24027   0.00000  Uiso   1.00
H215   H     0.64981   0.45873   0.60728   0.00000  Uiso   1.00
H216   H     0.67343   0.27940   0.67519   0.00000  Uiso   1.00
H217   H     0.68455   0.62795   0.58167   0.00000  Uiso   1.00
H218   H     0.59061   0.47803   0.59312   0.00000  Uiso   1.00
H219   H     0.70096   0.06619   0.70610   0.00000  Uiso   1.00
H220   H     0.72439   0.80115   0.50889   0.00000  Uiso   1.00
H221   H     0.52631   0.48501   0.53305   0.00000  Uiso   1.00
O222   O     0.72109   0.89866   0.59821   0.00000  Uiso   1.00
O223   O     0.75183   0.86290   0.33948   0.00000  Uiso   1.00
O224   O     0.49195   0.44814   0.37117   0.00000  Uiso   1.00
N225   N     0.70443   0.01803   0.47291   0.00000  Uiso   1.00
N226   N     0.72635   0.70517   0.28854   0.00000  Uiso   1.00
N227   N     0.54116   0.40964   0.31111   0.00000  Uiso   1.00
N228   N     0.69970   0.06923   0.63045   0.00000  Uiso   1.00
N229   N     0.72162   0.75636   0.44608   0.00000  Uiso   1.00
N230   N     0.53643   0.46084   0.46865   0.00000  Uiso   1.00
C231   C     0.84228   0.62695   0.34367   0.00000  Uiso   1.00
C232   C     0.83056   0.71229   0.41778   0.00000  Uiso   1.00
C233   C     0.81808   0.81255   0.39235   0.00000  Uiso   1.00
C234   C     0.80870   0.87904   0.47120   0.00000  Uiso   1.00
C235   C     0.79004   0.01650   0.57097   0.00000  Uiso   1.00
C236   C     0.82452   0.52291   0.36698   0.00000  Uiso   1.00
C237   C     0.80695   0.46395   0.29881   0.00000  Uiso   1.00
C238   C     0.79250   0.37102   0.33489   0.00000  Uiso   1.00
C239   C     0.76447   0.21443   0.35577   0.00000  Uiso   1.00
C240   C     0.87555   0.60438   0.37320   0.00000  Uiso   1.00
C241   C     0.90090   0.61388   0.31026   0.00000  Uiso   1.00
C242   C     0.92942   0.58951   0.35158   0.00000  Uiso   1.00
C243   C     0.98063   0.55942   0.38212   0.00000  Uiso   1.00
C244   C     0.84784   0.56674   0.52893   0.00000  Uiso   1.00
C245   C     0.83358   0.67958   0.51841   0.00000  Uiso   1.00
C246   C     0.82423   0.74593   0.59733   0.00000  Uiso   1.00
C247   C     0.81173   0.84628   0.57201   0.00000  Uiso   1.00
C248   C     0.82754   0.49021   0.46760   0.00000  Uiso   1.00
C249   C     0.81311   0.39733   0.50379   0.00000  Uiso   1.00
C250   C     0.79552   0.33825   0.43570   0.00000  Uiso   1.00
C251   C     0.87858   0.57168   0.47383   0.00000  Uiso   1.00
C252   C     0.90706   0.54727   0.51525   0.00000  Uiso   1.00
C253   C     0.93244   0.55675   0.45239   0.00000  Uiso   1.00
H254   H     0.83992   0.65241   0.26532   0.00000  Uiso   1.00
H255   H     0.81574   0.83783   0.31446   0.00000  Uiso   1.00
H256   H     0.80462   0.48928   0.22094   0.00000  Uiso   1.00
H257   H     0.89855   0.63920   0.23240   0.00000  Uiso   1.00
H258   H     0.79025   0.02896   0.41332   0.00000  Uiso   1.00
H259   H     0.76681   0.29400   0.21612   0.00000  Uiso   1.00
H260   H     0.96489   0.61013   0.24027   0.00000  Uiso   1.00
H261   H     0.85019   0.54127   0.60728   0.00000  Uiso   1.00
H262   H     0.82657   0.72060   0.67519   0.00000  Uiso   1.00
H263   H     0.81545   0.37205   0.58167   0.00000  Uiso   1.00
H264   H     0.90939   0.52197   0.59312   0.00000  Uiso   1.00
H265   H     0.79904   0.93381   0.70610   0.00000  Uiso   1.00
H266   H     0.77561   0.19885   0.50889   0.00000  Uiso   1.00
H267   H     0.97369   0.51499   0.53305   0.00000  Uiso   1.00
O268   O     0.77891   0.10134   0.59821   0.00000  Uiso   1.00
O269   O     0.74817   0.13710   0.33948   0.00000  Uiso   1.00
O270   O     0.00805   0.55186   0.37117   0.00000  Uiso   1.00
N271   N     0.79557   0.98197   0.47291   0.00000  Uiso   1.00
N272   N     0.77365   0.29483   0.28854   0.00000  Uiso   1.00
N273   N     0.95884   0.59036   0.31111   0.00000  Uiso   1.00
N274   N     0.80030   0.93077   0.63045   0.00000  Uiso   1.00
N275   N     0.77838   0.24364   0.44608   0.00000  Uiso   1.00
N276   N     0.96357   0.53916   0.46865   0.00000  Uiso   1.00
C277   C     0.34228   0.37305   0.15633   0.00000  Uiso   1.00
C278   C     0.33056   0.28771   0.08222   0.00000  Uiso   1.00
C279   C     0.31808   0.18745   0.10765   0.00000  Uiso   1.00
C280   C     0.30870   0.12096   0.02880   0.00000  Uiso   1.00
C281   C     0.29004   0.98350   0.92903   0.00000  Uiso   1.00
C282   C     0.32452   0.47709   0.13302   0.00000  Uiso   1.00
C283   C     0.30695   0.53605   0.20119   0.00000  Uiso   1.00
C284   C     0.29250   0.62898   0.16511   0.00000  Uiso   1.00
C285   C     0.26447   0.78557   0.14423   0.00000  Uiso   1.00
C286   C     0.37555   0.39562   0.12680   0.00000  Uiso   1.00
C287   C     0.40090   0.38612   0.18974   0.00000  Uiso   1.00
C288   C     0.42942   0.41049   0.14842   0.00000  Uiso   1.00
C289   C     0.48063   0.44058   0.11788   0.00000  Uiso   1.00
C290   C     0.34784   0.43326   0.97107   0.00000  Uiso   1.00
C291   C     0.33358   0.32042   0.98159   0.00000  Uiso   1.00
C292   C     0.32423   0.25407   0.90267   0.00000  Uiso   1.00
C293   C     0.31173   0.15372   0.92799   0.00000  Uiso   1.00
C294   C     0.32754   0.50979   0.03240   0.00000  Uiso   1.00
C295   C     0.31311   0.60267   0.99621   0.00000  Uiso   1.00
C296   C     0.29552   0.66175   0.06430   0.00000  Uiso   1.00
C297   C     0.37858   0.42832   0.02617   0.00000  Uiso   1.00
C298   C     0.40706   0.45273   0.98475   0.00000  Uiso   1.00
C299   C     0.43244   0.44325   0.04761   0.00000  Uiso   1.00
H300   H     0.33992   0.34759   0.23468   0.00000  Uiso   1.00
H301   H     0.31574   0.16217   0.18554   0.00000  Uiso   1.00
H302   H     0.30462   0.51072   0.27906   0.00000  Uiso   1.00
H303   H     0.39855   0.36080   0.26760   0.00000  Uiso   1.00
H304   H     0.29025   0.97104   0.08668   0.00000  Uiso   1.00
H305   H     0.26681   0.70600   0.28388   0.00000  Uiso   1.00
H306   H     0.46489   0.38987   0.25973   0.00000  Uiso   1.00
H307   H     0.35019   0.45873   0.89272   0.00000  Uiso   1.00
H308   H     0.32657   0.27940   0.82481   0.00000  Uiso   1.00
H309   H     0.31545   0.62795   0.91833   0.00000  Uiso   1.00
H310   H     0.40939   0.47803   0.90688   0.00000  Uiso   1.00
H311   H     0.29904   0.06619   0.79390   0.00000  Uiso   1.00
H312   H     0.27561   0.80115   0.99111   0.00000  Uiso   1.00
H313   H     0.47369   0.48501   0.96695   0.00000  Uiso   1.00
O314   O     0.27891   0.89866   0.90179   0.00000  Uiso   1.00
O315   O     0.24817   0.86290   0.16052   0.00000  Uiso   1.00
O316   O     0.50805   0.44814   0.12883   0.00000  Uiso   1.00
N317   N     0.29557   0.01803   0.02709   0.00000  Uiso   1.00
N318   N     0.27365   0.70517   0.21146   0.00000  Uiso   1.00
N319   N     0.45884   0.40964   0.18889   0.00000  Uiso   1.00
N320   N     0.30030   0.06923   0.86955   0.00000  Uiso   1.00
N321   N     0.27838   0.75636   0.05392   0.00000  Uiso   1.00
N322   N     0.46357   0.46084   0.03135   0.00000  Uiso   1.00
C323   C     0.15772   0.62695   0.15633   0.00000  Uiso   1.00
C324   C     0.16944   0.71229   0.08222   0.00000  Uiso   1.00
C325   C     0.18192   0.81255   0.10765   0.00000  Uiso   1.00
C326   C     0.19130   0.87904   0.02880   0.00000  Uiso   1.00
C327   C     0.20996   0.01650   0.92903   0.00000  Uiso   1.00
C328   C     0.17548   0.52291   0.13302   0.00000  Uiso   1.00
C329   C     0.19305   0.46395   0.20119   0.00000  Uiso   1.00
C330   C     0.20750   0.37102   0.16511   0.00000  Uiso   1.00
C331   C     0.23553   0.21443   0.14423   0.00000  Uiso   1.00
C332   C     0.12445   0.60438   0.12680   0.00000  Uiso   1.00
C333   C     0.09910   0.61388   0.18974   0.00000  Uiso   1.00
C334   C     0.07058   0.58951   0.14842   0.00000  Uiso   1.00
C335   C     0.01937   0.55942   0.11788   0.00000  Uiso   1.00
C336   C     0.15216   0.56674   0.97107   0.00000  Uiso   1.00
C337   C     0.16642   0.67958   0.98159   0.00000  Uiso   1.00
C338   C     0.17577   0.74593   0.90267   0.00000  Uiso   1.00
C339   C     0.18827   0.84628   0.92799   0.00000  Uiso   1.00
C340   C     0.17246   0.49021   0.03240   0.00000  Uiso   1.00
C341   C     0.18689   0.39733   0.99621   0.00000  Uiso   1.00
C342   C     0.20448   0.33825   0.06430   0.00000  Uiso   1.00
C343   C     0.12142   0.57168   0.02617   0.00000  Uiso   1.00
C344   C     0.09294   0.54727   0.98475   0.00000  Uiso   1.00
C345   C     0.06756   0.55675   0.04761   0.00000  Uiso   1.00
H346   H     0.16008   0.65241   0.23468   0.00000  Uiso   1.00
H347   H     0.18426   0.83783   0.18554   0.00000  Uiso   1.00
H348   H     0.19538   0.48928   0.27906   0.00000  Uiso   1.00
H349   H     0.10145   0.63920   0.26760   0.00000  Uiso   1.00
H350   H     0.20975   0.02896   0.08668   0.00000  Uiso   1.00
H351   H     0.23319   0.29400   0.28388   0.00000  Uiso   1.00
H352   H     0.03511   0.61013   0.25973   0.00000  Uiso   1.00
H353   H     0.14981   0.54127   0.89272   0.00000  Uiso   1.00
H354   H     0.17343   0.72060   0.82481   0.00000  Uiso   1.00
H355   H     0.18455   0.37205   0.91833   0.00000  Uiso   1.00
H356   H     0.09061   0.52197   0.90688   0.00000  Uiso   1.00
H357   H     0.20096   0.93381   0.79390   0.00000  Uiso   1.00
H358   H     0.22439   0.19885   0.99111   0.00000  Uiso   1.00
H359   H     0.02631   0.51499   0.96695   0.00000  Uiso   1.00
O360   O     0.22109   0.10134   0.90179   0.00000  Uiso   1.00
O361   O     0.25183   0.13710   0.16052   0.00000  Uiso   1.00
O362   O     0.99195   0.55186   0.12883   0.00000  Uiso   1.00
N363   N     0.20443   0.98197   0.02709   0.00000  Uiso   1.00
N364   N     0.22635   0.29483   0.21146   0.00000  Uiso   1.00
N365   N     0.04116   0.59036   0.18889   0.00000  Uiso   1.00
N366   N     0.19970   0.93077   0.86955   0.00000  Uiso   1.00
N367   N     0.22162   0.24364   0.05392   0.00000  Uiso   1.00
N368   N     0.03643   0.53916   0.03135   0.00000  Uiso   1.00
