data_job_01465
_audit_creation_date              2018-12-19
_audit_creation_method            'Materials Studio'
_symmetry_space_group_name_H-M    'P1'
_symmetry_Int_Tables_number       1
_symmetry_cell_setting            triclinic
loop_
_symmetry_equiv_pos_as_xyz
  x,y,z
_cell_length_a                    23.7183
_cell_length_b                    14.8614
_cell_length_c                    32.2896
_cell_angle_alpha                 90.0000
_cell_angle_beta                  151.5664
_cell_angle_gamma                 90.0000
loop_
_atom_site_label
_atom_site_type_symbol
_atom_site_fract_x
_atom_site_fract_y
_atom_site_fract_z
_atom_site_U_iso_or_equiv
_atom_site_adp_type
_atom_site_occupancy
C1     C     0.06517   0.04566   0.38650   0.00000  Uiso   1.00
C2     C     0.19843   0.04808   0.46505   0.00000  Uiso   1.00
C3     C     0.25474   0.09145   0.46885   0.00000  Uiso   1.00
C4     C     0.37738   0.08572   0.54664   0.00000  Uiso   1.00
C5     C     0.57458   0.09665   0.65774   0.00000  Uiso   1.00
C6     C     0.03139   0.94640   0.36663   0.00000  Uiso   1.00
C7     C     0.94724   0.90429   0.28766   0.00000  Uiso   1.00
C8     C     0.92926   0.81297   0.28260   0.00000  Uiso   1.00
C9     C     0.86707   0.66606   0.24087   0.00000  Uiso   1.00
C10    C     0.04632   0.08268   0.41788   0.00000  Uiso   1.00
C11    C     0.97469   0.15513   0.38199   0.00000  Uiso   1.00
C12    C     0.96925   0.17853   0.42007   0.00000  Uiso   1.00
C13    C     0.93023   0.24321   0.45791   0.00000  Uiso   1.00
C14    C     0.18284   0.95838   0.51791   0.00000  Uiso   1.00
C15    C     0.26235   0.00067   0.53643   0.00000  Uiso   1.00
C16    C     0.38494   0.99488   0.61424   0.00000  Uiso   1.00
C17    C     0.44142   0.03823   0.61815   0.00000  Uiso   1.00
C18    C     0.09531   0.89899   0.43800   0.00000  Uiso   1.00
C19    C     0.07744   0.80772   0.43305   0.00000  Uiso   1.00
C20    C     0.99329   0.76547   0.35410   0.00000  Uiso   1.00
C21    C     0.11024   0.03527   0.48925   0.00000  Uiso   1.00
C22    C     0.10490   0.05856   0.52738   0.00000  Uiso   1.00
C23    C     0.03328   0.13103   0.49157   0.00000  Uiso   1.00
H24    H     0.01540   0.08257   0.33093   0.00000  Uiso   1.00
H25    H     0.20524   0.12813   0.41360   0.00000  Uiso   1.00
H26    H     0.89779   0.94100   0.23244   0.00000  Uiso   1.00
H27    H     0.92524   0.19180   0.32676   0.00000  Uiso   1.00
H28    H     0.44390   0.15770   0.53672   0.00000  Uiso   1.00
H29    H     0.79559   0.76313   0.15472   0.00000  Uiso   1.00
H30    H     0.85347   0.29200   0.35361   0.00000  Uiso   1.00
H31    H     0.23261   0.92146   0.57348   0.00000  Uiso   1.00
H32    H     0.43438   0.95818   0.66946   0.00000  Uiso   1.00
H33    H     0.12692   0.77105   0.48829   0.00000  Uiso   1.00
H34    H     0.15437   0.02186   0.58261   0.00000  Uiso   1.00
H35    H     0.62987   0.01976   0.74438   0.00000  Uiso   1.00
H36    H     0.98155   0.62520   0.36238   0.00000  Uiso   1.00
H37    H     0.03944   0.15407   0.56127   0.00000  Uiso   1.00
O38    O     0.66569   0.11577   0.69930   0.00000  Uiso   1.00
O39    O     0.81511   0.59812   0.19813   0.00000  Uiso   1.00
O40    O     0.89106   0.29198   0.45907   0.00000  Uiso   1.00
N41    N     0.45998   0.12021   0.57242   0.00000  Uiso   1.00
N42    N     0.85386   0.75131   0.21528   0.00000  Uiso   1.00
N43    N     0.90795   0.24575   0.40121   0.00000  Uiso   1.00
N44    N     0.56005   0.04599   0.68416   0.00000  Uiso   1.00
N45    N     0.95393   0.67709   0.32703   0.00000  Uiso   1.00
N46    N     0.00802   0.17153   0.51295   0.00000  Uiso   1.00
C47    C     0.56517   0.54566   0.38650   0.00000  Uiso   1.00
C48    C     0.69843   0.54808   0.46505   0.00000  Uiso   1.00
C49    C     0.75474   0.59145   0.46885   0.00000  Uiso   1.00
C50    C     0.87738   0.58572   0.54664   0.00000  Uiso   1.00
C51    C     0.07458   0.59665   0.65774   0.00000  Uiso   1.00
C52    C     0.53139   0.44640   0.36663   0.00000  Uiso   1.00
C53    C     0.44724   0.40429   0.28766   0.00000  Uiso   1.00
C54    C     0.42926   0.31297   0.28260   0.00000  Uiso   1.00
C55    C     0.36707   0.16606   0.24087   0.00000  Uiso   1.00
C56    C     0.54632   0.58268   0.41788   0.00000  Uiso   1.00
C57    C     0.47469   0.65513   0.38199   0.00000  Uiso   1.00
C58    C     0.46925   0.67853   0.42007   0.00000  Uiso   1.00
C59    C     0.43023   0.74321   0.45791   0.00000  Uiso   1.00
C60    C     0.68284   0.45838   0.51791   0.00000  Uiso   1.00
C61    C     0.76235   0.50067   0.53643   0.00000  Uiso   1.00
C62    C     0.88494   0.49488   0.61424   0.00000  Uiso   1.00
C63    C     0.94142   0.53823   0.61815   0.00000  Uiso   1.00
C64    C     0.59531   0.39899   0.43800   0.00000  Uiso   1.00
C65    C     0.57744   0.30772   0.43305   0.00000  Uiso   1.00
C66    C     0.49329   0.26547   0.35410   0.00000  Uiso   1.00
C67    C     0.61024   0.53527   0.48925   0.00000  Uiso   1.00
C68    C     0.60490   0.55856   0.52738   0.00000  Uiso   1.00
C69    C     0.53328   0.63103   0.49157   0.00000  Uiso   1.00
H70    H     0.51540   0.58257   0.33093   0.00000  Uiso   1.00
H71    H     0.70524   0.62813   0.41360   0.00000  Uiso   1.00
H72    H     0.39779   0.44100   0.23244   0.00000  Uiso   1.00
H73    H     0.42524   0.69180   0.32676   0.00000  Uiso   1.00
H74    H     0.94390   0.65770   0.53672   0.00000  Uiso   1.00
H75    H     0.29559   0.26313   0.15472   0.00000  Uiso   1.00
H76    H     0.35347   0.79200   0.35361   0.00000  Uiso   1.00
H77    H     0.73261   0.42146   0.57348   0.00000  Uiso   1.00
H78    H     0.93438   0.45818   0.66946   0.00000  Uiso   1.00
H79    H     0.62692   0.27105   0.48829   0.00000  Uiso   1.00
H80    H     0.65437   0.52186   0.58261   0.00000  Uiso   1.00
H81    H     0.12987   0.51976   0.74438   0.00000  Uiso   1.00
H82    H     0.48155   0.12520   0.36238   0.00000  Uiso   1.00
H83    H     0.53944   0.65407   0.56127   0.00000  Uiso   1.00
O84    O     0.16569   0.61577   0.69930   0.00000  Uiso   1.00
O85    O     0.31511   0.09812   0.19813   0.00000  Uiso   1.00
O86    O     0.39106   0.79198   0.45907   0.00000  Uiso   1.00
N87    N     0.95998   0.62021   0.57242   0.00000  Uiso   1.00
N88    N     0.35386   0.25131   0.21528   0.00000  Uiso   1.00
N89    N     0.40795   0.74575   0.40121   0.00000  Uiso   1.00
N90    N     0.06005   0.54599   0.68416   0.00000  Uiso   1.00
N91    N     0.45393   0.17709   0.32703   0.00000  Uiso   1.00
N92    N     0.50802   0.67153   0.51295   0.00000  Uiso   1.00
C93    C     0.93483   0.04566   0.11350   0.00000  Uiso   1.00
C94    C     0.80157   0.04808   0.03495   0.00000  Uiso   1.00
C95    C     0.74526   0.09145   0.03115   0.00000  Uiso   1.00
C96    C     0.62262   0.08572   0.95336   0.00000  Uiso   1.00
C97    C     0.42542   0.09665   0.84226   0.00000  Uiso   1.00
C98    C     0.96861   0.94640   0.13337   0.00000  Uiso   1.00
C99    C     0.05276   0.90429   0.21234   0.00000  Uiso   1.00
C100   C     0.07074   0.81297   0.21740   0.00000  Uiso   1.00
C101   C     0.13293   0.66606   0.25913   0.00000  Uiso   1.00
C102   C     0.95368   0.08268   0.08212   0.00000  Uiso   1.00
C103   C     0.02531   0.15513   0.11801   0.00000  Uiso   1.00
C104   C     0.03075   0.17853   0.07993   0.00000  Uiso   1.00
C105   C     0.06977   0.24321   0.04209   0.00000  Uiso   1.00
C106   C     0.81716   0.95838   0.98209   0.00000  Uiso   1.00
C107   C     0.73765   0.00067   0.96357   0.00000  Uiso   1.00
C108   C     0.61506   0.99488   0.88576   0.00000  Uiso   1.00
C109   C     0.55858   0.03823   0.88185   0.00000  Uiso   1.00
C110   C     0.90469   0.89899   0.06200   0.00000  Uiso   1.00
C111   C     0.92256   0.80772   0.06695   0.00000  Uiso   1.00
C112   C     0.00671   0.76547   0.14590   0.00000  Uiso   1.00
C113   C     0.88976   0.03527   0.01075   0.00000  Uiso   1.00
C114   C     0.89510   0.05856   0.97262   0.00000  Uiso   1.00
C115   C     0.96672   0.13103   0.00843   0.00000  Uiso   1.00
H116   H     0.98460   0.08257   0.16907   0.00000  Uiso   1.00
H117   H     0.79476   0.12813   0.08640   0.00000  Uiso   1.00
H118   H     0.10221   0.94100   0.26756   0.00000  Uiso   1.00
H119   H     0.07476   0.19180   0.17324   0.00000  Uiso   1.00
H120   H     0.55610   0.15770   0.96328   0.00000  Uiso   1.00
H121   H     0.20441   0.76313   0.34528   0.00000  Uiso   1.00
H122   H     0.14653   0.29200   0.14639   0.00000  Uiso   1.00
H123   H     0.76739   0.92146   0.92652   0.00000  Uiso   1.00
H124   H     0.56562   0.95818   0.83054   0.00000  Uiso   1.00
H125   H     0.87308   0.77105   0.01171   0.00000  Uiso   1.00
H126   H     0.84563   0.02186   0.91739   0.00000  Uiso   1.00
H127   H     0.37013   0.01976   0.75562   0.00000  Uiso   1.00
H128   H     0.01845   0.62520   0.13762   0.00000  Uiso   1.00
H129   H     0.96056   0.15407   0.93873   0.00000  Uiso   1.00
O130   O     0.33431   0.11577   0.80070   0.00000  Uiso   1.00
O131   O     0.18489   0.59812   0.30187   0.00000  Uiso   1.00
O132   O     0.10894   0.29198   0.04093   0.00000  Uiso   1.00
N133   N     0.54002   0.12021   0.92758   0.00000  Uiso   1.00
N134   N     0.14614   0.75131   0.28472   0.00000  Uiso   1.00
N135   N     0.09205   0.24575   0.09879   0.00000  Uiso   1.00
N136   N     0.43995   0.04599   0.81584   0.00000  Uiso   1.00
N137   N     0.04607   0.67709   0.17297   0.00000  Uiso   1.00
N138   N     0.99198   0.17153   0.98705   0.00000  Uiso   1.00
C139   C     0.43483   0.54566   0.11350   0.00000  Uiso   1.00
C140   C     0.30157   0.54808   0.03495   0.00000  Uiso   1.00
C141   C     0.24526   0.59145   0.03115   0.00000  Uiso   1.00
C142   C     0.12262   0.58572   0.95336   0.00000  Uiso   1.00
C143   C     0.92542   0.59665   0.84226   0.00000  Uiso   1.00
C144   C     0.46861   0.44640   0.13337   0.00000  Uiso   1.00
C145   C     0.55276   0.40429   0.21234   0.00000  Uiso   1.00
C146   C     0.57074   0.31297   0.21740   0.00000  Uiso   1.00
C147   C     0.63293   0.16606   0.25913   0.00000  Uiso   1.00
C148   C     0.45368   0.58268   0.08212   0.00000  Uiso   1.00
C149   C     0.52531   0.65513   0.11801   0.00000  Uiso   1.00
C150   C     0.53075   0.67853   0.07993   0.00000  Uiso   1.00
C151   C     0.56977   0.74321   0.04209   0.00000  Uiso   1.00
C152   C     0.31716   0.45838   0.98209   0.00000  Uiso   1.00
C153   C     0.23765   0.50067   0.96357   0.00000  Uiso   1.00
C154   C     0.11506   0.49488   0.88576   0.00000  Uiso   1.00
C155   C     0.05858   0.53823   0.88185   0.00000  Uiso   1.00
C156   C     0.40469   0.39899   0.06200   0.00000  Uiso   1.00
C157   C     0.42256   0.30772   0.06695   0.00000  Uiso   1.00
C158   C     0.50671   0.26547   0.14590   0.00000  Uiso   1.00
C159   C     0.38976   0.53527   0.01075   0.00000  Uiso   1.00
C160   C     0.39510   0.55856   0.97262   0.00000  Uiso   1.00
C161   C     0.46672   0.63103   0.00843   0.00000  Uiso   1.00
H162   H     0.48460   0.58257   0.16907   0.00000  Uiso   1.00
H163   H     0.29476   0.62813   0.08640   0.00000  Uiso   1.00
H164   H     0.60221   0.44100   0.26756   0.00000  Uiso   1.00
H165   H     0.57476   0.69180   0.17324   0.00000  Uiso   1.00
H166   H     0.05610   0.65770   0.96328   0.00000  Uiso   1.00
H167   H     0.70441   0.26313   0.34528   0.00000  Uiso   1.00
H168   H     0.64653   0.79200   0.14639   0.00000  Uiso   1.00
H169   H     0.26739   0.42146   0.92652   0.00000  Uiso   1.00
H170   H     0.06562   0.45818   0.83054   0.00000  Uiso   1.00
H171   H     0.37308   0.27105   0.01171   0.00000  Uiso   1.00
H172   H     0.34563   0.52186   0.91739   0.00000  Uiso   1.00
H173   H     0.87013   0.51976   0.75562   0.00000  Uiso   1.00
H174   H     0.51845   0.12520   0.13762   0.00000  Uiso   1.00
H175   H     0.46056   0.65407   0.93873   0.00000  Uiso   1.00
O176   O     0.83431   0.61577   0.80070   0.00000  Uiso   1.00
O177   O     0.68489   0.09812   0.30187   0.00000  Uiso   1.00
O178   O     0.60894   0.79198   0.04093   0.00000  Uiso   1.00
N179   N     0.04002   0.62021   0.92758   0.00000  Uiso   1.00
N180   N     0.64614   0.25131   0.28472   0.00000  Uiso   1.00
N181   N     0.59205   0.74575   0.09879   0.00000  Uiso   1.00
N182   N     0.93995   0.54599   0.81584   0.00000  Uiso   1.00
N183   N     0.54607   0.17709   0.17297   0.00000  Uiso   1.00
N184   N     0.49198   0.67153   0.98705   0.00000  Uiso   1.00
C185   C     0.93483   0.95434   0.61350   0.00000  Uiso   1.00
C186   C     0.80157   0.95192   0.53495   0.00000  Uiso   1.00
C187   C     0.74526   0.90855   0.53115   0.00000  Uiso   1.00
C188   C     0.62262   0.91428   0.45336   0.00000  Uiso   1.00
C189   C     0.42542   0.90335   0.34226   0.00000  Uiso   1.00
C190   C     0.96861   0.05360   0.63337   0.00000  Uiso   1.00
C191   C     0.05276   0.09571   0.71234   0.00000  Uiso   1.00
C192   C     0.07074   0.18703   0.71740   0.00000  Uiso   1.00
C193   C     0.13293   0.33394   0.75913   0.00000  Uiso   1.00
C194   C     0.95368   0.91732   0.58212   0.00000  Uiso   1.00
C195   C     0.02531   0.84487   0.61801   0.00000  Uiso   1.00
C196   C     0.03075   0.82147   0.57993   0.00000  Uiso   1.00
C197   C     0.06977   0.75679   0.54209   0.00000  Uiso   1.00
C198   C     0.81716   0.04162   0.48209   0.00000  Uiso   1.00
C199   C     0.73765   0.99933   0.46357   0.00000  Uiso   1.00
C200   C     0.61506   0.00512   0.38576   0.00000  Uiso   1.00
C201   C     0.55858   0.96177   0.38185   0.00000  Uiso   1.00
C202   C     0.90469   0.10101   0.56200   0.00000  Uiso   1.00
C203   C     0.92256   0.19228   0.56695   0.00000  Uiso   1.00
C204   C     0.00671   0.23453   0.64590   0.00000  Uiso   1.00
C205   C     0.88976   0.96473   0.51075   0.00000  Uiso   1.00
C206   C     0.89510   0.94144   0.47262   0.00000  Uiso   1.00
C207   C     0.96672   0.86897   0.50843   0.00000  Uiso   1.00
H208   H     0.98460   0.91743   0.66907   0.00000  Uiso   1.00
H209   H     0.79476   0.87187   0.58640   0.00000  Uiso   1.00
H210   H     0.10221   0.05900   0.76756   0.00000  Uiso   1.00
H211   H     0.07476   0.80820   0.67324   0.00000  Uiso   1.00
H212   H     0.55610   0.84230   0.46328   0.00000  Uiso   1.00
H213   H     0.20441   0.23687   0.84528   0.00000  Uiso   1.00
H214   H     0.14653   0.70800   0.64639   0.00000  Uiso   1.00
H215   H     0.76739   0.07854   0.42652   0.00000  Uiso   1.00
H216   H     0.56562   0.04182   0.33054   0.00000  Uiso   1.00
H217   H     0.87308   0.22895   0.51171   0.00000  Uiso   1.00
H218   H     0.84563   0.97814   0.41739   0.00000  Uiso   1.00
H219   H     0.37013   0.98024   0.25562   0.00000  Uiso   1.00
H220   H     0.01845   0.37480   0.63762   0.00000  Uiso   1.00
H221   H     0.96056   0.84593   0.43873   0.00000  Uiso   1.00
O222   O     0.33431   0.88423   0.30070   0.00000  Uiso   1.00
O223   O     0.18489   0.40188   0.80187   0.00000  Uiso   1.00
O224   O     0.10894   0.70802   0.54093   0.00000  Uiso   1.00
N225   N     0.54002   0.87979   0.42758   0.00000  Uiso   1.00
N226   N     0.14614   0.24869   0.78472   0.00000  Uiso   1.00
N227   N     0.09205   0.75425   0.59879   0.00000  Uiso   1.00
N228   N     0.43995   0.95401   0.31584   0.00000  Uiso   1.00
N229   N     0.04607   0.32291   0.67297   0.00000  Uiso   1.00
N230   N     0.99198   0.82847   0.48705   0.00000  Uiso   1.00
C231   C     0.43483   0.45434   0.61350   0.00000  Uiso   1.00
C232   C     0.30157   0.45192   0.53495   0.00000  Uiso   1.00
C233   C     0.24526   0.40855   0.53115   0.00000  Uiso   1.00
C234   C     0.12262   0.41428   0.45336   0.00000  Uiso   1.00
C235   C     0.92542   0.40335   0.34226   0.00000  Uiso   1.00
C236   C     0.46861   0.55360   0.63337   0.00000  Uiso   1.00
C237   C     0.55276   0.59571   0.71234   0.00000  Uiso   1.00
C238   C     0.57074   0.68703   0.71740   0.00000  Uiso   1.00
C239   C     0.63293   0.83394   0.75913   0.00000  Uiso   1.00
C240   C     0.45368   0.41732   0.58212   0.00000  Uiso   1.00
C241   C     0.52531   0.34487   0.61801   0.00000  Uiso   1.00
C242   C     0.53075   0.32147   0.57993   0.00000  Uiso   1.00
C243   C     0.56977   0.25679   0.54209   0.00000  Uiso   1.00
C244   C     0.31716   0.54162   0.48209   0.00000  Uiso   1.00
C245   C     0.23765   0.49933   0.46357   0.00000  Uiso   1.00
C246   C     0.11506   0.50512   0.38576   0.00000  Uiso   1.00
C247   C     0.05858   0.46177   0.38185   0.00000  Uiso   1.00
C248   C     0.40469   0.60101   0.56200   0.00000  Uiso   1.00
C249   C     0.42256   0.69228   0.56695   0.00000  Uiso   1.00
C250   C     0.50671   0.73453   0.64590   0.00000  Uiso   1.00
C251   C     0.38976   0.46473   0.51075   0.00000  Uiso   1.00
C252   C     0.39510   0.44144   0.47262   0.00000  Uiso   1.00
C253   C     0.46672   0.36897   0.50843   0.00000  Uiso   1.00
H254   H     0.48460   0.41743   0.66907   0.00000  Uiso   1.00
H255   H     0.29476   0.37187   0.58640   0.00000  Uiso   1.00
H256   H     0.60221   0.55900   0.76756   0.00000  Uiso   1.00
H257   H     0.57476   0.30820   0.67324   0.00000  Uiso   1.00
H258   H     0.05610   0.34230   0.46328   0.00000  Uiso   1.00
H259   H     0.70441   0.73687   0.84528   0.00000  Uiso   1.00
H260   H     0.64653   0.20800   0.64639   0.00000  Uiso   1.00
H261   H     0.26739   0.57854   0.42652   0.00000  Uiso   1.00
H262   H     0.06562   0.54182   0.33054   0.00000  Uiso   1.00
H263   H     0.37308   0.72895   0.51171   0.00000  Uiso   1.00
H264   H     0.34563   0.47814   0.41739   0.00000  Uiso   1.00
H265   H     0.87013   0.48024   0.25562   0.00000  Uiso   1.00
H266   H     0.51845   0.87480   0.63762   0.00000  Uiso   1.00
H267   H     0.46056   0.34593   0.43873   0.00000  Uiso   1.00
O268   O     0.83431   0.38423   0.30070   0.00000  Uiso   1.00
O269   O     0.68489   0.90188   0.80187   0.00000  Uiso   1.00
O270   O     0.60894   0.20802   0.54093   0.00000  Uiso   1.00
N271   N     0.04002   0.37979   0.42758   0.00000  Uiso   1.00
N272   N     0.64614   0.74869   0.78472   0.00000  Uiso   1.00
N273   N     0.59205   0.25425   0.59879   0.00000  Uiso   1.00
N274   N     0.93995   0.45401   0.31584   0.00000  Uiso   1.00
N275   N     0.54607   0.82291   0.67297   0.00000  Uiso   1.00
N276   N     0.49198   0.32847   0.48705   0.00000  Uiso   1.00
C277   C     0.06517   0.95434   0.88650   0.00000  Uiso   1.00
C278   C     0.19843   0.95192   0.96505   0.00000  Uiso   1.00
C279   C     0.25474   0.90855   0.96885   0.00000  Uiso   1.00
C280   C     0.37738   0.91428   0.04664   0.00000  Uiso   1.00
C281   C     0.57458   0.90335   0.15774   0.00000  Uiso   1.00
C282   C     0.03139   0.05360   0.86663   0.00000  Uiso   1.00
C283   C     0.94724   0.09571   0.78766   0.00000  Uiso   1.00
C284   C     0.92926   0.18703   0.78260   0.00000  Uiso   1.00
C285   C     0.86707   0.33394   0.74087   0.00000  Uiso   1.00
C286   C     0.04632   0.91732   0.91788   0.00000  Uiso   1.00
C287   C     0.97469   0.84487   0.88199   0.00000  Uiso   1.00
C288   C     0.96925   0.82147   0.92007   0.00000  Uiso   1.00
C289   C     0.93023   0.75679   0.95791   0.00000  Uiso   1.00
C290   C     0.18284   0.04162   0.01791   0.00000  Uiso   1.00
C291   C     0.26235   0.99933   0.03643   0.00000  Uiso   1.00
C292   C     0.38494   0.00512   0.11424   0.00000  Uiso   1.00
C293   C     0.44142   0.96177   0.11815   0.00000  Uiso   1.00
C294   C     0.09531   0.10101   0.93800   0.00000  Uiso   1.00
C295   C     0.07744   0.19228   0.93305   0.00000  Uiso   1.00
C296   C     0.99329   0.23453   0.85410   0.00000  Uiso   1.00
C297   C     0.11024   0.96473   0.98925   0.00000  Uiso   1.00
C298   C     0.10490   0.94144   0.02738   0.00000  Uiso   1.00
C299   C     0.03328   0.86897   0.99157   0.00000  Uiso   1.00
H300   H     0.01540   0.91743   0.83093   0.00000  Uiso   1.00
H301   H     0.20524   0.87187   0.91360   0.00000  Uiso   1.00
H302   H     0.89779   0.05900   0.73244   0.00000  Uiso   1.00
H303   H     0.92524   0.80820   0.82676   0.00000  Uiso   1.00
H304   H     0.44390   0.84230   0.03672   0.00000  Uiso   1.00
H305   H     0.79559   0.23687   0.65472   0.00000  Uiso   1.00
H306   H     0.85347   0.70800   0.85361   0.00000  Uiso   1.00
H307   H     0.23261   0.07854   0.07348   0.00000  Uiso   1.00
H308   H     0.43438   0.04182   0.16946   0.00000  Uiso   1.00
H309   H     0.12692   0.22895   0.98829   0.00000  Uiso   1.00
H310   H     0.15437   0.97814   0.08261   0.00000  Uiso   1.00
H311   H     0.62987   0.98024   0.24438   0.00000  Uiso   1.00
H312   H     0.98155   0.37480   0.86238   0.00000  Uiso   1.00
H313   H     0.03944   0.84593   0.06127   0.00000  Uiso   1.00
O314   O     0.66569   0.88423   0.19930   0.00000  Uiso   1.00
O315   O     0.81511   0.40188   0.69813   0.00000  Uiso   1.00
O316   O     0.89106   0.70802   0.95907   0.00000  Uiso   1.00
N317   N     0.45998   0.87979   0.07242   0.00000  Uiso   1.00
N318   N     0.85386   0.24869   0.71528   0.00000  Uiso   1.00
N319   N     0.90795   0.75425   0.90121   0.00000  Uiso   1.00
N320   N     0.56005   0.95401   0.18416   0.00000  Uiso   1.00
N321   N     0.95393   0.32291   0.82703   0.00000  Uiso   1.00
N322   N     0.00802   0.82847   0.01295   0.00000  Uiso   1.00
C323   C     0.56517   0.45434   0.88650   0.00000  Uiso   1.00
C324   C     0.69843   0.45192   0.96505   0.00000  Uiso   1.00
C325   C     0.75474   0.40855   0.96885   0.00000  Uiso   1.00
C326   C     0.87738   0.41428   0.04664   0.00000  Uiso   1.00
C327   C     0.07458   0.40335   0.15774   0.00000  Uiso   1.00
C328   C     0.53139   0.55360   0.86663   0.00000  Uiso   1.00
C329   C     0.44724   0.59571   0.78766   0.00000  Uiso   1.00
C330   C     0.42926   0.68703   0.78260   0.00000  Uiso   1.00
C331   C     0.36707   0.83394   0.74087   0.00000  Uiso   1.00
C332   C     0.54632   0.41732   0.91788   0.00000  Uiso   1.00
C333   C     0.47469   0.34487   0.88199   0.00000  Uiso   1.00
C334   C     0.46925   0.32147   0.92007   0.00000  Uiso   1.00
C335   C     0.43023   0.25679   0.95791   0.00000  Uiso   1.00
C336   C     0.68284   0.54162   0.01791   0.00000  Uiso   1.00
C337   C     0.76235   0.49933   0.03643   0.00000  Uiso   1.00
C338   C     0.88494   0.50512   0.11424   0.00000  Uiso   1.00
C339   C     0.94142   0.46177   0.11815   0.00000  Uiso   1.00
C340   C     0.59531   0.60101   0.93800   0.00000  Uiso   1.00
C341   C     0.57744   0.69228   0.93305   0.00000  Uiso   1.00
C342   C     0.49329   0.73453   0.85410   0.00000  Uiso   1.00
C343   C     0.61024   0.46473   0.98925   0.00000  Uiso   1.00
C344   C     0.60490   0.44144   0.02738   0.00000  Uiso   1.00
C345   C     0.53328   0.36897   0.99157   0.00000  Uiso   1.00
H346   H     0.51540   0.41743   0.83093   0.00000  Uiso   1.00
H347   H     0.70524   0.37187   0.91360   0.00000  Uiso   1.00
H348   H     0.39779   0.55900   0.73244   0.00000  Uiso   1.00
H349   H     0.42524   0.30820   0.82676   0.00000  Uiso   1.00
H350   H     0.94390   0.34230   0.03672   0.00000  Uiso   1.00
H351   H     0.29559   0.73687   0.65472   0.00000  Uiso   1.00
H352   H     0.35347   0.20800   0.85361   0.00000  Uiso   1.00
H353   H     0.73261   0.57854   0.07348   0.00000  Uiso   1.00
H354   H     0.93438   0.54182   0.16946   0.00000  Uiso   1.00
H355   H     0.62692   0.72895   0.98829   0.00000  Uiso   1.00
H356   H     0.65437   0.47814   0.08261   0.00000  Uiso   1.00
H357   H     0.12987   0.48024   0.24438   0.00000  Uiso   1.00
H358   H     0.48155   0.87480   0.86238   0.00000  Uiso   1.00
H359   H     0.53944   0.34593   0.06127   0.00000  Uiso   1.00
O360   O     0.16569   0.38423   0.19930   0.00000  Uiso   1.00
O361   O     0.31511   0.90188   0.69813   0.00000  Uiso   1.00
O362   O     0.39106   0.20802   0.95907   0.00000  Uiso   1.00
N363   N     0.95998   0.37979   0.07242   0.00000  Uiso   1.00
N364   N     0.35386   0.74869   0.71528   0.00000  Uiso   1.00
N365   N     0.40795   0.25425   0.90121   0.00000  Uiso   1.00
N366   N     0.06005   0.45401   0.18416   0.00000  Uiso   1.00
N367   N     0.45393   0.82291   0.82703   0.00000  Uiso   1.00
N368   N     0.50802   0.32847   0.01295   0.00000  Uiso   1.00
