data_job_01436
_audit_creation_date              2018-12-19
_audit_creation_method            'Materials Studio'
_symmetry_space_group_name_H-M    'P1'
_symmetry_Int_Tables_number       1
_symmetry_cell_setting            triclinic
loop_
_symmetry_equiv_pos_as_xyz
  x,y,z
_cell_length_a                    18.8586
_cell_length_b                    16.5537
_cell_length_c                    18.6959
_cell_angle_alpha                 90.0000
_cell_angle_beta                  81.6807
_cell_angle_gamma                 90.0000
loop_
_atom_site_label
_atom_site_type_symbol
_atom_site_fract_x
_atom_site_fract_y
_atom_site_fract_z
_atom_site_U_iso_or_equiv
_atom_site_adp_type
_atom_site_occupancy
C1     C     0.00328   0.31782   0.97378   0.00000  Uiso   1.00
C2     C     0.04138   0.26766   0.91135   0.00000  Uiso   1.00
C3     C     0.04992   0.28905   0.83884   0.00000  Uiso   1.00
C4     C     0.08639   0.23490   0.79003   0.00000  Uiso   1.00
C5     C     0.14142   0.16808   0.68959   0.00000  Uiso   1.00
C6     C     0.94488   0.26360   0.01313   0.00000  Uiso   1.00
C7     C     0.87228   0.28158   0.02620   0.00000  Uiso   1.00
C8     C     0.82751   0.22401   0.06308   0.00000  Uiso   1.00
C9     C     0.73273   0.15091   0.12071   0.00000  Uiso   1.00
C10    C     0.05756   0.33024   0.02583   0.00000  Uiso   1.00
C11    C     0.07970   0.40424   0.04960   0.00000  Uiso   1.00
C12    C     0.12979   0.40278   0.09718   0.00000  Uiso   1.00
C13    C     0.20997   0.43314   0.17452   0.00000  Uiso   1.00
C14    C     0.05288   0.18363   0.01605   0.00000  Uiso   1.00
C15    C     0.06832   0.19477   0.93431   0.00000  Uiso   1.00
C16    C     0.10479   0.14058   0.88560   0.00000  Uiso   1.00
C17    C     0.11338   0.16188   0.81303   0.00000  Uiso   1.00
C18    C     0.97181   0.19071   0.03609   0.00000  Uiso   1.00
C19    C     0.92715   0.13311   0.07296   0.00000  Uiso   1.00
C20    C     0.85450   0.15099   0.08608   0.00000  Uiso   1.00
C21    C     0.08451   0.25735   0.04879   0.00000  Uiso   1.00
C22    C     0.13457   0.25577   0.09635   0.00000  Uiso   1.00
C23    C     0.15678   0.32976   0.12018   0.00000  Uiso   1.00
H24    H     0.98230   0.37457   0.95592   0.00000  Uiso   1.00
H25    H     0.02905   0.34546   0.82110   0.00000  Uiso   1.00
H26    H     0.85145   0.33799   0.00844   0.00000  Uiso   1.00
H27    H     0.05884   0.46063   0.03182   0.00000  Uiso   1.00
H28    H     0.09274   0.28103   0.68175   0.00000  Uiso   1.00
H29    H     0.71825   0.26529   0.07679   0.00000  Uiso   1.00
H30    H     0.15557   0.52391   0.12610   0.00000  Uiso   1.00
H31    H     0.07385   0.12688   0.03392   0.00000  Uiso   1.00
H32    H     0.12563   0.08418   0.90338   0.00000  Uiso   1.00
H33    H     0.94802   0.07671   0.09072   0.00000  Uiso   1.00
H34    H     0.15541   0.19935   0.11410   0.00000  Uiso   1.00
H35    H     0.17112   0.06896   0.74853   0.00000  Uiso   1.00
H36    H     0.79662   0.05323   0.14357   0.00000  Uiso   1.00
H37    H     0.23395   0.31185   0.19288   0.00000  Uiso   1.00
O38    O     0.16432   0.15136   0.62785   0.00000  Uiso   1.00
O39    O     0.67300   0.13073   0.14614   0.00000  Uiso   1.00
O40    O     0.24676   0.47003   0.21083   0.00000  Uiso   1.00
N41    N     0.10410   0.23698   0.71538   0.00000  Uiso   1.00
N42    N     0.75396   0.22227   0.08471   0.00000  Uiso   1.00
N43    N     0.16281   0.46406   0.13083   0.00000  Uiso   1.00
N44    N     0.14627   0.12287   0.75131   0.00000  Uiso   1.00
N45    N     0.79614   0.10816   0.12064   0.00000  Uiso   1.00
N46    N     0.20499   0.34995   0.16676   0.00000  Uiso   1.00
C47    C     0.50328   0.81782   0.97378   0.00000  Uiso   1.00
C48    C     0.54138   0.76766   0.91135   0.00000  Uiso   1.00
C49    C     0.54992   0.78905   0.83884   0.00000  Uiso   1.00
C50    C     0.58639   0.73490   0.79003   0.00000  Uiso   1.00
C51    C     0.64142   0.66808   0.68959   0.00000  Uiso   1.00
C52    C     0.44488   0.76360   0.01313   0.00000  Uiso   1.00
C53    C     0.37228   0.78158   0.02620   0.00000  Uiso   1.00
C54    C     0.32751   0.72401   0.06308   0.00000  Uiso   1.00
C55    C     0.23273   0.65091   0.12071   0.00000  Uiso   1.00
C56    C     0.55756   0.83024   0.02583   0.00000  Uiso   1.00
C57    C     0.57970   0.90424   0.04960   0.00000  Uiso   1.00
C58    C     0.62979   0.90278   0.09718   0.00000  Uiso   1.00
C59    C     0.70997   0.93314   0.17452   0.00000  Uiso   1.00
C60    C     0.55288   0.68363   0.01605   0.00000  Uiso   1.00
C61    C     0.56832   0.69477   0.93431   0.00000  Uiso   1.00
C62    C     0.60479   0.64058   0.88560   0.00000  Uiso   1.00
C63    C     0.61338   0.66188   0.81303   0.00000  Uiso   1.00
C64    C     0.47181   0.69071   0.03609   0.00000  Uiso   1.00
C65    C     0.42715   0.63311   0.07296   0.00000  Uiso   1.00
C66    C     0.35450   0.65099   0.08608   0.00000  Uiso   1.00
C67    C     0.58451   0.75735   0.04879   0.00000  Uiso   1.00
C68    C     0.63457   0.75577   0.09635   0.00000  Uiso   1.00
C69    C     0.65678   0.82976   0.12018   0.00000  Uiso   1.00
H70    H     0.48230   0.87457   0.95592   0.00000  Uiso   1.00
H71    H     0.52905   0.84546   0.82110   0.00000  Uiso   1.00
H72    H     0.35145   0.83799   0.00844   0.00000  Uiso   1.00
H73    H     0.55884   0.96063   0.03182   0.00000  Uiso   1.00
H74    H     0.59274   0.78103   0.68175   0.00000  Uiso   1.00
H75    H     0.21825   0.76529   0.07679   0.00000  Uiso   1.00
H76    H     0.65557   0.02391   0.12610   0.00000  Uiso   1.00
H77    H     0.57385   0.62688   0.03392   0.00000  Uiso   1.00
H78    H     0.62563   0.58418   0.90338   0.00000  Uiso   1.00
H79    H     0.44802   0.57671   0.09072   0.00000  Uiso   1.00
H80    H     0.65541   0.69935   0.11410   0.00000  Uiso   1.00
H81    H     0.67112   0.56896   0.74853   0.00000  Uiso   1.00
H82    H     0.29662   0.55323   0.14357   0.00000  Uiso   1.00
H83    H     0.73395   0.81185   0.19288   0.00000  Uiso   1.00
O84    O     0.66432   0.65136   0.62785   0.00000  Uiso   1.00
O85    O     0.17300   0.63073   0.14614   0.00000  Uiso   1.00
O86    O     0.74676   0.97003   0.21083   0.00000  Uiso   1.00
N87    N     0.60410   0.73698   0.71538   0.00000  Uiso   1.00
N88    N     0.25396   0.72227   0.08471   0.00000  Uiso   1.00
N89    N     0.66281   0.96406   0.13083   0.00000  Uiso   1.00
N90    N     0.64627   0.62287   0.75131   0.00000  Uiso   1.00
N91    N     0.29614   0.60816   0.12064   0.00000  Uiso   1.00
N92    N     0.70499   0.84995   0.16676   0.00000  Uiso   1.00
C93    C     0.99672   0.31782   0.52622   0.00000  Uiso   1.00
C94    C     0.95862   0.26766   0.58865   0.00000  Uiso   1.00
C95    C     0.95008   0.28905   0.66116   0.00000  Uiso   1.00
C96    C     0.91361   0.23490   0.70997   0.00000  Uiso   1.00
C97    C     0.85858   0.16808   0.81041   0.00000  Uiso   1.00
C98    C     0.05512   0.26360   0.48687   0.00000  Uiso   1.00
C99    C     0.12772   0.28158   0.47380   0.00000  Uiso   1.00
C100   C     0.17249   0.22401   0.43692   0.00000  Uiso   1.00
C101   C     0.26727   0.15091   0.37929   0.00000  Uiso   1.00
C102   C     0.94244   0.33024   0.47417   0.00000  Uiso   1.00
C103   C     0.92030   0.40424   0.45040   0.00000  Uiso   1.00
C104   C     0.87021   0.40278   0.40282   0.00000  Uiso   1.00
C105   C     0.79003   0.43314   0.32548   0.00000  Uiso   1.00
C106   C     0.94712   0.18363   0.48395   0.00000  Uiso   1.00
C107   C     0.93168   0.19477   0.56569   0.00000  Uiso   1.00
C108   C     0.89521   0.14058   0.61440   0.00000  Uiso   1.00
C109   C     0.88662   0.16188   0.68697   0.00000  Uiso   1.00
C110   C     0.02819   0.19071   0.46391   0.00000  Uiso   1.00
C111   C     0.07285   0.13311   0.42704   0.00000  Uiso   1.00
C112   C     0.14550   0.15099   0.41392   0.00000  Uiso   1.00
C113   C     0.91549   0.25735   0.45121   0.00000  Uiso   1.00
C114   C     0.86543   0.25577   0.40365   0.00000  Uiso   1.00
C115   C     0.84322   0.32976   0.37982   0.00000  Uiso   1.00
H116   H     0.01770   0.37457   0.54408   0.00000  Uiso   1.00
H117   H     0.97095   0.34546   0.67890   0.00000  Uiso   1.00
H118   H     0.14855   0.33799   0.49156   0.00000  Uiso   1.00
H119   H     0.94116   0.46063   0.46818   0.00000  Uiso   1.00
H120   H     0.90726   0.28103   0.81825   0.00000  Uiso   1.00
H121   H     0.28175   0.26529   0.42321   0.00000  Uiso   1.00
H122   H     0.84443   0.52391   0.37390   0.00000  Uiso   1.00
H123   H     0.92615   0.12688   0.46608   0.00000  Uiso   1.00
H124   H     0.87437   0.08418   0.59662   0.00000  Uiso   1.00
H125   H     0.05198   0.07671   0.40928   0.00000  Uiso   1.00
H126   H     0.84459   0.19935   0.38590   0.00000  Uiso   1.00
H127   H     0.82888   0.06896   0.75147   0.00000  Uiso   1.00
H128   H     0.20338   0.05323   0.35643   0.00000  Uiso   1.00
H129   H     0.76605   0.31185   0.30712   0.00000  Uiso   1.00
O130   O     0.83568   0.15136   0.87215   0.00000  Uiso   1.00
O131   O     0.32700   0.13073   0.35386   0.00000  Uiso   1.00
O132   O     0.75324   0.47003   0.28917   0.00000  Uiso   1.00
N133   N     0.89590   0.23698   0.78462   0.00000  Uiso   1.00
N134   N     0.24604   0.22227   0.41529   0.00000  Uiso   1.00
N135   N     0.83719   0.46406   0.36917   0.00000  Uiso   1.00
N136   N     0.85373   0.12287   0.74869   0.00000  Uiso   1.00
N137   N     0.20386   0.10816   0.37936   0.00000  Uiso   1.00
N138   N     0.79501   0.34995   0.33324   0.00000  Uiso   1.00
C139   C     0.49672   0.81782   0.52622   0.00000  Uiso   1.00
C140   C     0.45862   0.76766   0.58865   0.00000  Uiso   1.00
C141   C     0.45008   0.78905   0.66116   0.00000  Uiso   1.00
C142   C     0.41361   0.73490   0.70997   0.00000  Uiso   1.00
C143   C     0.35858   0.66808   0.81041   0.00000  Uiso   1.00
C144   C     0.55512   0.76360   0.48687   0.00000  Uiso   1.00
C145   C     0.62772   0.78158   0.47380   0.00000  Uiso   1.00
C146   C     0.67249   0.72401   0.43692   0.00000  Uiso   1.00
C147   C     0.76727   0.65091   0.37929   0.00000  Uiso   1.00
C148   C     0.44244   0.83024   0.47417   0.00000  Uiso   1.00
C149   C     0.42030   0.90424   0.45040   0.00000  Uiso   1.00
C150   C     0.37021   0.90278   0.40282   0.00000  Uiso   1.00
C151   C     0.29003   0.93314   0.32548   0.00000  Uiso   1.00
C152   C     0.44712   0.68363   0.48395   0.00000  Uiso   1.00
C153   C     0.43168   0.69477   0.56569   0.00000  Uiso   1.00
C154   C     0.39521   0.64058   0.61440   0.00000  Uiso   1.00
C155   C     0.38662   0.66188   0.68697   0.00000  Uiso   1.00
C156   C     0.52819   0.69071   0.46391   0.00000  Uiso   1.00
C157   C     0.57285   0.63311   0.42704   0.00000  Uiso   1.00
C158   C     0.64550   0.65099   0.41392   0.00000  Uiso   1.00
C159   C     0.41549   0.75735   0.45121   0.00000  Uiso   1.00
C160   C     0.36543   0.75577   0.40365   0.00000  Uiso   1.00
C161   C     0.34322   0.82976   0.37982   0.00000  Uiso   1.00
H162   H     0.51770   0.87457   0.54408   0.00000  Uiso   1.00
H163   H     0.47095   0.84546   0.67890   0.00000  Uiso   1.00
H164   H     0.64855   0.83799   0.49156   0.00000  Uiso   1.00
H165   H     0.44116   0.96063   0.46818   0.00000  Uiso   1.00
H166   H     0.40726   0.78103   0.81825   0.00000  Uiso   1.00
H167   H     0.78175   0.76529   0.42321   0.00000  Uiso   1.00
H168   H     0.34443   0.02391   0.37390   0.00000  Uiso   1.00
H169   H     0.42615   0.62688   0.46608   0.00000  Uiso   1.00
H170   H     0.37437   0.58418   0.59662   0.00000  Uiso   1.00
H171   H     0.55198   0.57671   0.40928   0.00000  Uiso   1.00
H172   H     0.34459   0.69935   0.38590   0.00000  Uiso   1.00
H173   H     0.32888   0.56896   0.75147   0.00000  Uiso   1.00
H174   H     0.70338   0.55323   0.35643   0.00000  Uiso   1.00
H175   H     0.26605   0.81185   0.30712   0.00000  Uiso   1.00
O176   O     0.33568   0.65136   0.87215   0.00000  Uiso   1.00
O177   O     0.82700   0.63073   0.35386   0.00000  Uiso   1.00
O178   O     0.25324   0.97003   0.28917   0.00000  Uiso   1.00
N179   N     0.39590   0.73698   0.78462   0.00000  Uiso   1.00
N180   N     0.74604   0.72227   0.41529   0.00000  Uiso   1.00
N181   N     0.33719   0.96406   0.36917   0.00000  Uiso   1.00
N182   N     0.35373   0.62287   0.74869   0.00000  Uiso   1.00
N183   N     0.70386   0.60816   0.37936   0.00000  Uiso   1.00
N184   N     0.29501   0.84995   0.33324   0.00000  Uiso   1.00
C185   C     0.99672   0.68218   0.02622   0.00000  Uiso   1.00
C186   C     0.95862   0.73234   0.08865   0.00000  Uiso   1.00
C187   C     0.95008   0.71095   0.16116   0.00000  Uiso   1.00
C188   C     0.91361   0.76510   0.20997   0.00000  Uiso   1.00
C189   C     0.85858   0.83192   0.31041   0.00000  Uiso   1.00
C190   C     0.05512   0.73640   0.98687   0.00000  Uiso   1.00
C191   C     0.12772   0.71842   0.97380   0.00000  Uiso   1.00
C192   C     0.17249   0.77599   0.93692   0.00000  Uiso   1.00
C193   C     0.26727   0.84909   0.87929   0.00000  Uiso   1.00
C194   C     0.94244   0.66976   0.97417   0.00000  Uiso   1.00
C195   C     0.92030   0.59576   0.95040   0.00000  Uiso   1.00
C196   C     0.87021   0.59722   0.90282   0.00000  Uiso   1.00
C197   C     0.79003   0.56686   0.82548   0.00000  Uiso   1.00
C198   C     0.94712   0.81637   0.98395   0.00000  Uiso   1.00
C199   C     0.93168   0.80523   0.06569   0.00000  Uiso   1.00
C200   C     0.89521   0.85942   0.11440   0.00000  Uiso   1.00
C201   C     0.88662   0.83812   0.18697   0.00000  Uiso   1.00
C202   C     0.02819   0.80929   0.96391   0.00000  Uiso   1.00
C203   C     0.07285   0.86689   0.92704   0.00000  Uiso   1.00
C204   C     0.14550   0.84901   0.91392   0.00000  Uiso   1.00
C205   C     0.91549   0.74265   0.95121   0.00000  Uiso   1.00
C206   C     0.86543   0.74423   0.90365   0.00000  Uiso   1.00
C207   C     0.84322   0.67024   0.87982   0.00000  Uiso   1.00
H208   H     0.01770   0.62543   0.04408   0.00000  Uiso   1.00
H209   H     0.97095   0.65454   0.17890   0.00000  Uiso   1.00
H210   H     0.14855   0.66201   0.99156   0.00000  Uiso   1.00
H211   H     0.94116   0.53937   0.96818   0.00000  Uiso   1.00
H212   H     0.90726   0.71897   0.31825   0.00000  Uiso   1.00
H213   H     0.28175   0.73471   0.92321   0.00000  Uiso   1.00
H214   H     0.84443   0.47609   0.87390   0.00000  Uiso   1.00
H215   H     0.92615   0.87312   0.96608   0.00000  Uiso   1.00
H216   H     0.87437   0.91582   0.09662   0.00000  Uiso   1.00
H217   H     0.05198   0.92329   0.90928   0.00000  Uiso   1.00
H218   H     0.84459   0.80065   0.88590   0.00000  Uiso   1.00
H219   H     0.82888   0.93104   0.25147   0.00000  Uiso   1.00
H220   H     0.20338   0.94677   0.85643   0.00000  Uiso   1.00
H221   H     0.76605   0.68815   0.80712   0.00000  Uiso   1.00
O222   O     0.83568   0.84864   0.37215   0.00000  Uiso   1.00
O223   O     0.32700   0.86927   0.85386   0.00000  Uiso   1.00
O224   O     0.75324   0.52997   0.78917   0.00000  Uiso   1.00
N225   N     0.89590   0.76302   0.28462   0.00000  Uiso   1.00
N226   N     0.24604   0.77773   0.91529   0.00000  Uiso   1.00
N227   N     0.83719   0.53594   0.86917   0.00000  Uiso   1.00
N228   N     0.85373   0.87713   0.24869   0.00000  Uiso   1.00
N229   N     0.20386   0.89184   0.87936   0.00000  Uiso   1.00
N230   N     0.79501   0.65005   0.83324   0.00000  Uiso   1.00
C231   C     0.49672   0.18218   0.02622   0.00000  Uiso   1.00
C232   C     0.45862   0.23234   0.08865   0.00000  Uiso   1.00
C233   C     0.45008   0.21095   0.16116   0.00000  Uiso   1.00
C234   C     0.41361   0.26510   0.20997   0.00000  Uiso   1.00
C235   C     0.35858   0.33192   0.31041   0.00000  Uiso   1.00
C236   C     0.55512   0.23640   0.98687   0.00000  Uiso   1.00
C237   C     0.62772   0.21842   0.97380   0.00000  Uiso   1.00
C238   C     0.67249   0.27599   0.93692   0.00000  Uiso   1.00
C239   C     0.76727   0.34909   0.87929   0.00000  Uiso   1.00
C240   C     0.44244   0.16976   0.97417   0.00000  Uiso   1.00
C241   C     0.42030   0.09576   0.95040   0.00000  Uiso   1.00
C242   C     0.37021   0.09722   0.90282   0.00000  Uiso   1.00
C243   C     0.29003   0.06686   0.82548   0.00000  Uiso   1.00
C244   C     0.44712   0.31637   0.98395   0.00000  Uiso   1.00
C245   C     0.43168   0.30523   0.06569   0.00000  Uiso   1.00
C246   C     0.39521   0.35942   0.11440   0.00000  Uiso   1.00
C247   C     0.38662   0.33812   0.18697   0.00000  Uiso   1.00
C248   C     0.52819   0.30929   0.96391   0.00000  Uiso   1.00
C249   C     0.57285   0.36689   0.92704   0.00000  Uiso   1.00
C250   C     0.64550   0.34901   0.91392   0.00000  Uiso   1.00
C251   C     0.41549   0.24265   0.95121   0.00000  Uiso   1.00
C252   C     0.36543   0.24423   0.90365   0.00000  Uiso   1.00
C253   C     0.34322   0.17024   0.87982   0.00000  Uiso   1.00
H254   H     0.51770   0.12543   0.04408   0.00000  Uiso   1.00
H255   H     0.47095   0.15454   0.17890   0.00000  Uiso   1.00
H256   H     0.64855   0.16201   0.99156   0.00000  Uiso   1.00
H257   H     0.44116   0.03937   0.96818   0.00000  Uiso   1.00
H258   H     0.40726   0.21897   0.31825   0.00000  Uiso   1.00
H259   H     0.78175   0.23471   0.92321   0.00000  Uiso   1.00
H260   H     0.34443   0.97609   0.87390   0.00000  Uiso   1.00
H261   H     0.42615   0.37312   0.96608   0.00000  Uiso   1.00
H262   H     0.37437   0.41582   0.09662   0.00000  Uiso   1.00
H263   H     0.55198   0.42329   0.90928   0.00000  Uiso   1.00
H264   H     0.34459   0.30065   0.88590   0.00000  Uiso   1.00
H265   H     0.32888   0.43104   0.25147   0.00000  Uiso   1.00
H266   H     0.70338   0.44677   0.85643   0.00000  Uiso   1.00
H267   H     0.26605   0.18815   0.80712   0.00000  Uiso   1.00
O268   O     0.33568   0.34864   0.37215   0.00000  Uiso   1.00
O269   O     0.82700   0.36927   0.85386   0.00000  Uiso   1.00
O270   O     0.25324   0.02997   0.78917   0.00000  Uiso   1.00
N271   N     0.39590   0.26302   0.28462   0.00000  Uiso   1.00
N272   N     0.74604   0.27773   0.91529   0.00000  Uiso   1.00
N273   N     0.33719   0.03594   0.86917   0.00000  Uiso   1.00
N274   N     0.35373   0.37713   0.24869   0.00000  Uiso   1.00
N275   N     0.70386   0.39184   0.87936   0.00000  Uiso   1.00
N276   N     0.29501   0.15005   0.83324   0.00000  Uiso   1.00
C277   C     0.00328   0.68218   0.47378   0.00000  Uiso   1.00
C278   C     0.04138   0.73234   0.41135   0.00000  Uiso   1.00
C279   C     0.04992   0.71095   0.33884   0.00000  Uiso   1.00
C280   C     0.08639   0.76510   0.29003   0.00000  Uiso   1.00
C281   C     0.14142   0.83192   0.18959   0.00000  Uiso   1.00
C282   C     0.94488   0.73640   0.51313   0.00000  Uiso   1.00
C283   C     0.87228   0.71842   0.52620   0.00000  Uiso   1.00
C284   C     0.82751   0.77599   0.56308   0.00000  Uiso   1.00
C285   C     0.73273   0.84909   0.62071   0.00000  Uiso   1.00
C286   C     0.05756   0.66976   0.52583   0.00000  Uiso   1.00
C287   C     0.07970   0.59576   0.54960   0.00000  Uiso   1.00
C288   C     0.12979   0.59722   0.59718   0.00000  Uiso   1.00
C289   C     0.20997   0.56686   0.67452   0.00000  Uiso   1.00
C290   C     0.05288   0.81637   0.51605   0.00000  Uiso   1.00
C291   C     0.06832   0.80523   0.43431   0.00000  Uiso   1.00
C292   C     0.10479   0.85942   0.38560   0.00000  Uiso   1.00
C293   C     0.11338   0.83812   0.31303   0.00000  Uiso   1.00
C294   C     0.97181   0.80929   0.53609   0.00000  Uiso   1.00
C295   C     0.92715   0.86689   0.57296   0.00000  Uiso   1.00
C296   C     0.85450   0.84901   0.58608   0.00000  Uiso   1.00
C297   C     0.08451   0.74265   0.54879   0.00000  Uiso   1.00
C298   C     0.13457   0.74423   0.59635   0.00000  Uiso   1.00
C299   C     0.15678   0.67024   0.62018   0.00000  Uiso   1.00
H300   H     0.98230   0.62543   0.45592   0.00000  Uiso   1.00
H301   H     0.02905   0.65454   0.32110   0.00000  Uiso   1.00
H302   H     0.85145   0.66201   0.50844   0.00000  Uiso   1.00
H303   H     0.05884   0.53937   0.53182   0.00000  Uiso   1.00
H304   H     0.09274   0.71897   0.18175   0.00000  Uiso   1.00
H305   H     0.71825   0.73471   0.57679   0.00000  Uiso   1.00
H306   H     0.15557   0.47609   0.62610   0.00000  Uiso   1.00
H307   H     0.07385   0.87312   0.53392   0.00000  Uiso   1.00
H308   H     0.12563   0.91582   0.40338   0.00000  Uiso   1.00
H309   H     0.94802   0.92329   0.59072   0.00000  Uiso   1.00
H310   H     0.15541   0.80065   0.61410   0.00000  Uiso   1.00
H311   H     0.17112   0.93104   0.24853   0.00000  Uiso   1.00
H312   H     0.79662   0.94677   0.64357   0.00000  Uiso   1.00
H313   H     0.23395   0.68815   0.69288   0.00000  Uiso   1.00
O314   O     0.16432   0.84864   0.12785   0.00000  Uiso   1.00
O315   O     0.67300   0.86927   0.64614   0.00000  Uiso   1.00
O316   O     0.24676   0.52997   0.71083   0.00000  Uiso   1.00
N317   N     0.10410   0.76302   0.21538   0.00000  Uiso   1.00
N318   N     0.75396   0.77773   0.58471   0.00000  Uiso   1.00
N319   N     0.16281   0.53594   0.63083   0.00000  Uiso   1.00
N320   N     0.14627   0.87713   0.25131   0.00000  Uiso   1.00
N321   N     0.79614   0.89184   0.62064   0.00000  Uiso   1.00
N322   N     0.20499   0.65005   0.66676   0.00000  Uiso   1.00
C323   C     0.50328   0.18218   0.47378   0.00000  Uiso   1.00
C324   C     0.54138   0.23234   0.41135   0.00000  Uiso   1.00
C325   C     0.54992   0.21095   0.33884   0.00000  Uiso   1.00
C326   C     0.58639   0.26510   0.29003   0.00000  Uiso   1.00
C327   C     0.64142   0.33192   0.18959   0.00000  Uiso   1.00
C328   C     0.44488   0.23640   0.51313   0.00000  Uiso   1.00
C329   C     0.37228   0.21842   0.52620   0.00000  Uiso   1.00
C330   C     0.32751   0.27599   0.56308   0.00000  Uiso   1.00
C331   C     0.23273   0.34909   0.62071   0.00000  Uiso   1.00
C332   C     0.55756   0.16976   0.52583   0.00000  Uiso   1.00
C333   C     0.57970   0.09576   0.54960   0.00000  Uiso   1.00
C334   C     0.62979   0.09722   0.59718   0.00000  Uiso   1.00
C335   C     0.70997   0.06686   0.67452   0.00000  Uiso   1.00
C336   C     0.55288   0.31637   0.51605   0.00000  Uiso   1.00
C337   C     0.56832   0.30523   0.43431   0.00000  Uiso   1.00
C338   C     0.60479   0.35942   0.38560   0.00000  Uiso   1.00
C339   C     0.61338   0.33812   0.31303   0.00000  Uiso   1.00
C340   C     0.47181   0.30929   0.53609   0.00000  Uiso   1.00
C341   C     0.42715   0.36689   0.57296   0.00000  Uiso   1.00
C342   C     0.35450   0.34901   0.58608   0.00000  Uiso   1.00
C343   C     0.58451   0.24265   0.54879   0.00000  Uiso   1.00
C344   C     0.63457   0.24423   0.59635   0.00000  Uiso   1.00
C345   C     0.65678   0.17024   0.62018   0.00000  Uiso   1.00
H346   H     0.48230   0.12543   0.45592   0.00000  Uiso   1.00
H347   H     0.52905   0.15454   0.32110   0.00000  Uiso   1.00
H348   H     0.35145   0.16201   0.50844   0.00000  Uiso   1.00
H349   H     0.55884   0.03937   0.53182   0.00000  Uiso   1.00
H350   H     0.59274   0.21897   0.18175   0.00000  Uiso   1.00
H351   H     0.21825   0.23471   0.57679   0.00000  Uiso   1.00
H352   H     0.65557   0.97609   0.62610   0.00000  Uiso   1.00
H353   H     0.57385   0.37312   0.53392   0.00000  Uiso   1.00
H354   H     0.62563   0.41582   0.40338   0.00000  Uiso   1.00
H355   H     0.44802   0.42329   0.59072   0.00000  Uiso   1.00
H356   H     0.65541   0.30065   0.61410   0.00000  Uiso   1.00
H357   H     0.67112   0.43104   0.24853   0.00000  Uiso   1.00
H358   H     0.29662   0.44677   0.64357   0.00000  Uiso   1.00
H359   H     0.73395   0.18815   0.69288   0.00000  Uiso   1.00
O360   O     0.66432   0.34864   0.12785   0.00000  Uiso   1.00
O361   O     0.17300   0.36927   0.64614   0.00000  Uiso   1.00
O362   O     0.74676   0.02997   0.71083   0.00000  Uiso   1.00
N363   N     0.60410   0.26302   0.21538   0.00000  Uiso   1.00
N364   N     0.25396   0.27773   0.58471   0.00000  Uiso   1.00
N365   N     0.66281   0.03594   0.63083   0.00000  Uiso   1.00
N366   N     0.64627   0.37713   0.25131   0.00000  Uiso   1.00
N367   N     0.29614   0.39184   0.62064   0.00000  Uiso   1.00
N368   N     0.70499   0.15005   0.66676   0.00000  Uiso   1.00
