data_job_01831
_audit_creation_date              2018-12-19
_audit_creation_method            'Materials Studio'
_symmetry_space_group_name_H-M    'P1'
_symmetry_Int_Tables_number       1
_symmetry_cell_setting            triclinic
loop_
_symmetry_equiv_pos_as_xyz
  x,y,z
_cell_length_a                    22.9074
_cell_length_b                    13.1594
_cell_length_c                    23.7859
_cell_angle_alpha                 90.0000
_cell_angle_beta                  28.3320
_cell_angle_gamma                 90.0000
loop_
_atom_site_label
_atom_site_type_symbol
_atom_site_fract_x
_atom_site_fract_y
_atom_site_fract_z
_atom_site_U_iso_or_equiv
_atom_site_adp_type
_atom_site_occupancy
C1     C     0.89259   0.71776   0.18369   0.00000  Uiso   1.00
C2     C     0.83048   0.61746   0.22133   0.00000  Uiso   1.00
C3     C     0.88544   0.52231   0.17631   0.00000  Uiso   1.00
C4     C     0.81307   0.43990   0.22236   0.00000  Uiso   1.00
C5     C     0.73535   0.28227   0.26740   0.00000  Uiso   1.00
C6     C     0.87849   0.78585   0.14417   0.00000  Uiso   1.00
C7     C     0.97380   0.83230   0.03428   0.00000  Uiso   1.00
C8     C     0.94184   0.89166   0.01538   0.00000  Uiso   1.00
C9     C     0.93864   0.99553   0.94065   0.00000  Uiso   1.00
C10    C     0.81376   0.76562   0.29646   0.00000  Uiso   1.00
C11    C     0.85465   0.79508   0.31461   0.00000  Uiso   1.00
C12    C     0.76818   0.83742   0.42392   0.00000  Uiso   1.00
C13    C     0.66448   0.90987   0.58564   0.00000  Uiso   1.00
C14    C     0.66634   0.74059   0.34552   0.00000  Uiso   1.00
C15    C     0.70760   0.62986   0.30923   0.00000  Uiso   1.00
C16    C     0.63512   0.54757   0.35536   0.00000  Uiso   1.00
C17    C     0.68996   0.45232   0.31042   0.00000  Uiso   1.00
C18    C     0.75560   0.79825   0.23206   0.00000  Uiso   1.00
C19    C     0.72349   0.85756   0.21333   0.00000  Uiso   1.00
C20    C     0.81873   0.90408   0.10344   0.00000  Uiso   1.00
C21    C     0.69086   0.77801   0.38436   0.00000  Uiso   1.00
C22    C     0.60433   0.82033   0.49366   0.00000  Uiso   1.00
C23    C     0.64508   0.84984   0.51198   0.00000  Uiso   1.00
H24    H     0.98826   0.70811   0.11525   0.00000  Uiso   1.00
H25    H     0.98055   0.51275   0.10828   0.00000  Uiso   1.00
H26    H     0.06889   0.82270   0.96628   0.00000  Uiso   1.00
H27    H     0.94975   0.78548   0.24657   0.00000  Uiso   1.00
H28    H     0.91781   0.30163   0.13929   0.00000  Uiso   1.00
H29    H     0.10409   0.95520   0.83988   0.00000  Uiso   1.00
H30    H     0.85286   0.87671   0.43092   0.00000  Uiso   1.00
H31    H     0.57067   0.75024   0.41396   0.00000  Uiso   1.00
H32    H     0.54003   0.55718   0.42338   0.00000  Uiso   1.00
H33    H     0.62838   0.86714   0.28137   0.00000  Uiso   1.00
H34    H     0.50924   0.82991   0.56166   0.00000  Uiso   1.00
H35    H     0.56027   0.33769   0.39503   0.00000  Uiso   1.00
H36    H     0.74655   0.99127   0.09562   0.00000  Uiso   1.00
H37    H     0.49532   0.91277   0.68666   0.00000  Uiso   1.00
O38    O     0.72643   0.19191   0.26794   0.00000  Uiso   1.00
O39    O     0.97083   0.04938   0.87514   0.00000  Uiso   1.00
O40    O     0.64122   0.94640   0.65057   0.00000  Uiso   1.00
N41    N     0.83786   0.33661   0.19820   0.00000  Uiso   1.00
N42    N     0.01202   0.94765   0.91827   0.00000  Uiso   1.00
N43    N     0.77715   0.87429   0.47082   0.00000  Uiso   1.00
N44    N     0.64547   0.35601   0.33582   0.00000  Uiso   1.00
N45    N     0.81963   0.96705   0.05588   0.00000  Uiso   1.00
N46    N     0.58476   0.89369   0.60844   0.00000  Uiso   1.00
C47    C     0.10741   0.71776   0.31631   0.00000  Uiso   1.00
C48    C     0.16952   0.61746   0.27867   0.00000  Uiso   1.00
C49    C     0.11456   0.52231   0.32369   0.00000  Uiso   1.00
C50    C     0.18693   0.43990   0.27764   0.00000  Uiso   1.00
C51    C     0.26465   0.28227   0.23260   0.00000  Uiso   1.00
C52    C     0.12151   0.78585   0.35583   0.00000  Uiso   1.00
C53    C     0.02620   0.83230   0.46572   0.00000  Uiso   1.00
C54    C     0.05816   0.89166   0.48462   0.00000  Uiso   1.00
C55    C     0.06136   0.99553   0.55935   0.00000  Uiso   1.00
C56    C     0.18624   0.76562   0.20354   0.00000  Uiso   1.00
C57    C     0.14535   0.79508   0.18539   0.00000  Uiso   1.00
C58    C     0.23182   0.83742   0.07608   0.00000  Uiso   1.00
C59    C     0.33552   0.90987   0.91436   0.00000  Uiso   1.00
C60    C     0.33366   0.74059   0.15448   0.00000  Uiso   1.00
C61    C     0.29240   0.62986   0.19077   0.00000  Uiso   1.00
C62    C     0.36488   0.54757   0.14464   0.00000  Uiso   1.00
C63    C     0.31004   0.45232   0.18958   0.00000  Uiso   1.00
C64    C     0.24440   0.79825   0.26794   0.00000  Uiso   1.00
C65    C     0.27651   0.85756   0.28667   0.00000  Uiso   1.00
C66    C     0.18127   0.90408   0.39656   0.00000  Uiso   1.00
C67    C     0.30914   0.77801   0.11564   0.00000  Uiso   1.00
C68    C     0.39567   0.82033   0.00634   0.00000  Uiso   1.00
C69    C     0.35492   0.84984   0.98802   0.00000  Uiso   1.00
H70    H     0.01174   0.70811   0.38475   0.00000  Uiso   1.00
H71    H     0.01945   0.51275   0.39172   0.00000  Uiso   1.00
H72    H     0.93111   0.82270   0.53372   0.00000  Uiso   1.00
H73    H     0.05025   0.78548   0.25343   0.00000  Uiso   1.00
H74    H     0.08219   0.30163   0.36071   0.00000  Uiso   1.00
H75    H     0.89591   0.95520   0.66012   0.00000  Uiso   1.00
H76    H     0.14714   0.87671   0.06908   0.00000  Uiso   1.00
H77    H     0.42933   0.75024   0.08604   0.00000  Uiso   1.00
H78    H     0.45997   0.55718   0.07662   0.00000  Uiso   1.00
H79    H     0.37162   0.86714   0.21863   0.00000  Uiso   1.00
H80    H     0.49076   0.82991   0.93834   0.00000  Uiso   1.00
H81    H     0.43973   0.33769   0.10497   0.00000  Uiso   1.00
H82    H     0.25345   0.99127   0.40438   0.00000  Uiso   1.00
H83    H     0.50468   0.91277   0.81334   0.00000  Uiso   1.00
O84    O     0.27357   0.19191   0.23206   0.00000  Uiso   1.00
O85    O     0.02917   0.04938   0.62486   0.00000  Uiso   1.00
O86    O     0.35878   0.94640   0.84943   0.00000  Uiso   1.00
N87    N     0.16214   0.33661   0.30180   0.00000  Uiso   1.00
N88    N     0.98798   0.94765   0.58173   0.00000  Uiso   1.00
N89    N     0.22285   0.87429   0.02918   0.00000  Uiso   1.00
N90    N     0.35453   0.35601   0.16418   0.00000  Uiso   1.00
N91    N     0.18037   0.96705   0.44412   0.00000  Uiso   1.00
N92    N     0.41524   0.89369   0.89156   0.00000  Uiso   1.00
C93    C     0.10741   0.28224   0.81631   0.00000  Uiso   1.00
C94    C     0.16952   0.38254   0.77867   0.00000  Uiso   1.00
C95    C     0.11456   0.47769   0.82369   0.00000  Uiso   1.00
C96    C     0.18693   0.56010   0.77764   0.00000  Uiso   1.00
C97    C     0.26465   0.71773   0.73260   0.00000  Uiso   1.00
C98    C     0.12151   0.21415   0.85583   0.00000  Uiso   1.00
C99    C     0.02620   0.16770   0.96572   0.00000  Uiso   1.00
C100   C     0.05816   0.10834   0.98462   0.00000  Uiso   1.00
C101   C     0.06136   0.00447   0.05935   0.00000  Uiso   1.00
C102   C     0.18624   0.23438   0.70354   0.00000  Uiso   1.00
C103   C     0.14535   0.20492   0.68539   0.00000  Uiso   1.00
C104   C     0.23182   0.16258   0.57608   0.00000  Uiso   1.00
C105   C     0.33552   0.09013   0.41436   0.00000  Uiso   1.00
C106   C     0.33366   0.25941   0.65448   0.00000  Uiso   1.00
C107   C     0.29240   0.37014   0.69077   0.00000  Uiso   1.00
C108   C     0.36488   0.45243   0.64464   0.00000  Uiso   1.00
C109   C     0.31004   0.54768   0.68958   0.00000  Uiso   1.00
C110   C     0.24440   0.20175   0.76794   0.00000  Uiso   1.00
C111   C     0.27651   0.14244   0.78667   0.00000  Uiso   1.00
C112   C     0.18127   0.09592   0.89656   0.00000  Uiso   1.00
C113   C     0.30914   0.22199   0.61564   0.00000  Uiso   1.00
C114   C     0.39567   0.17967   0.50634   0.00000  Uiso   1.00
C115   C     0.35492   0.15016   0.48802   0.00000  Uiso   1.00
H116   H     0.01174   0.29189   0.88475   0.00000  Uiso   1.00
H117   H     0.01945   0.48725   0.89172   0.00000  Uiso   1.00
H118   H     0.93111   0.17730   0.03372   0.00000  Uiso   1.00
H119   H     0.05025   0.21452   0.75343   0.00000  Uiso   1.00
H120   H     0.08219   0.69837   0.86071   0.00000  Uiso   1.00
H121   H     0.89591   0.04480   0.16012   0.00000  Uiso   1.00
H122   H     0.14714   0.12329   0.56908   0.00000  Uiso   1.00
H123   H     0.42933   0.24976   0.58604   0.00000  Uiso   1.00
H124   H     0.45997   0.44282   0.57662   0.00000  Uiso   1.00
H125   H     0.37162   0.13286   0.71863   0.00000  Uiso   1.00
H126   H     0.49076   0.17009   0.43834   0.00000  Uiso   1.00
H127   H     0.43973   0.66231   0.60497   0.00000  Uiso   1.00
H128   H     0.25345   0.00873   0.90438   0.00000  Uiso   1.00
H129   H     0.50468   0.08723   0.31334   0.00000  Uiso   1.00
O130   O     0.27357   0.80809   0.73206   0.00000  Uiso   1.00
O131   O     0.02917   0.95062   0.12486   0.00000  Uiso   1.00
O132   O     0.35878   0.05360   0.34943   0.00000  Uiso   1.00
N133   N     0.16214   0.66339   0.80180   0.00000  Uiso   1.00
N134   N     0.98798   0.05235   0.08173   0.00000  Uiso   1.00
N135   N     0.22285   0.12571   0.52918   0.00000  Uiso   1.00
N136   N     0.35453   0.64399   0.66418   0.00000  Uiso   1.00
N137   N     0.18037   0.03295   0.94412   0.00000  Uiso   1.00
N138   N     0.41524   0.10631   0.39156   0.00000  Uiso   1.00
C139   C     0.89259   0.28224   0.68369   0.00000  Uiso   1.00
C140   C     0.83048   0.38254   0.72133   0.00000  Uiso   1.00
C141   C     0.88544   0.47769   0.67631   0.00000  Uiso   1.00
C142   C     0.81307   0.56010   0.72236   0.00000  Uiso   1.00
C143   C     0.73535   0.71773   0.76740   0.00000  Uiso   1.00
C144   C     0.87849   0.21415   0.64417   0.00000  Uiso   1.00
C145   C     0.97380   0.16770   0.53428   0.00000  Uiso   1.00
C146   C     0.94184   0.10834   0.51538   0.00000  Uiso   1.00
C147   C     0.93864   0.00447   0.44065   0.00000  Uiso   1.00
C148   C     0.81376   0.23438   0.79646   0.00000  Uiso   1.00
C149   C     0.85465   0.20492   0.81461   0.00000  Uiso   1.00
C150   C     0.76818   0.16258   0.92392   0.00000  Uiso   1.00
C151   C     0.66448   0.09013   0.08564   0.00000  Uiso   1.00
C152   C     0.66634   0.25941   0.84552   0.00000  Uiso   1.00
C153   C     0.70760   0.37014   0.80923   0.00000  Uiso   1.00
C154   C     0.63512   0.45243   0.85536   0.00000  Uiso   1.00
C155   C     0.68996   0.54768   0.81042   0.00000  Uiso   1.00
C156   C     0.75560   0.20175   0.73206   0.00000  Uiso   1.00
C157   C     0.72349   0.14244   0.71333   0.00000  Uiso   1.00
C158   C     0.81873   0.09592   0.60344   0.00000  Uiso   1.00
C159   C     0.69086   0.22199   0.88436   0.00000  Uiso   1.00
C160   C     0.60433   0.17967   0.99366   0.00000  Uiso   1.00
C161   C     0.64508   0.15016   0.01198   0.00000  Uiso   1.00
H162   H     0.98826   0.29189   0.61525   0.00000  Uiso   1.00
H163   H     0.98055   0.48725   0.60828   0.00000  Uiso   1.00
H164   H     0.06889   0.17730   0.46628   0.00000  Uiso   1.00
H165   H     0.94975   0.21452   0.74657   0.00000  Uiso   1.00
H166   H     0.91781   0.69837   0.63929   0.00000  Uiso   1.00
H167   H     0.10409   0.04480   0.33988   0.00000  Uiso   1.00
H168   H     0.85286   0.12329   0.93092   0.00000  Uiso   1.00
H169   H     0.57067   0.24976   0.91396   0.00000  Uiso   1.00
H170   H     0.54003   0.44282   0.92338   0.00000  Uiso   1.00
H171   H     0.62838   0.13286   0.78137   0.00000  Uiso   1.00
H172   H     0.50924   0.17009   0.06166   0.00000  Uiso   1.00
H173   H     0.56027   0.66231   0.89503   0.00000  Uiso   1.00
H174   H     0.74655   0.00873   0.59562   0.00000  Uiso   1.00
H175   H     0.49532   0.08723   0.18666   0.00000  Uiso   1.00
O176   O     0.72643   0.80809   0.76794   0.00000  Uiso   1.00
O177   O     0.97083   0.95062   0.37514   0.00000  Uiso   1.00
O178   O     0.64122   0.05360   0.15057   0.00000  Uiso   1.00
N179   N     0.83786   0.66339   0.69820   0.00000  Uiso   1.00
N180   N     0.01202   0.05235   0.41827   0.00000  Uiso   1.00
N181   N     0.77715   0.12571   0.97082   0.00000  Uiso   1.00
N182   N     0.64547   0.64399   0.83582   0.00000  Uiso   1.00
N183   N     0.81963   0.03295   0.55588   0.00000  Uiso   1.00
N184   N     0.58476   0.10631   0.10844   0.00000  Uiso   1.00
