data_job_04081
_audit_creation_date              2018-12-19
_audit_creation_method            'Materials Studio'
_symmetry_space_group_name_H-M    'P1'
_symmetry_Int_Tables_number       1
_symmetry_cell_setting            triclinic
loop_
_symmetry_equiv_pos_as_xyz
  x,y,z
_cell_length_a                    10.2539
_cell_length_b                    10.6801
_cell_length_c                    14.5350
_cell_angle_alpha                 110.4117
_cell_angle_beta                  103.8426
_cell_angle_gamma                 78.5357
loop_
_atom_site_label
_atom_site_type_symbol
_atom_site_fract_x
_atom_site_fract_y
_atom_site_fract_z
_atom_site_U_iso_or_equiv
_atom_site_adp_type
_atom_site_occupancy
C1     C     0.28656   0.29337   0.77386   0.00000  Uiso   1.00
C2     C     0.43622   0.30446   0.78642   0.00000  Uiso   1.00
C3     C     0.49106   0.42229   0.80723   0.00000  Uiso   1.00
C4     C     0.63036   0.41127   0.81586   0.00000  Uiso   1.00
C5     C     0.85035   0.44740   0.83711   0.00000  Uiso   1.00
C6     C     0.24867   0.19145   0.67102   0.00000  Uiso   1.00
C7     C     0.14581   0.21427   0.59480   0.00000  Uiso   1.00
C8     C     0.12723   0.10812   0.50630   0.00000  Uiso   1.00
C9     C     0.05598   0.96878   0.34841   0.00000  Uiso   1.00
C10    C     0.27749   0.22720   0.84928   0.00000  Uiso   1.00
C11    C     0.19883   0.28006   0.92294   0.00000  Uiso   1.00
C12    C     0.20449   0.20399   0.98451   0.00000  Uiso   1.00
C13    C     0.17800   0.12017   0.10340   0.00000  Uiso   1.00
C14    C     0.43644   0.06427   0.75220   0.00000  Uiso   1.00
C15    C     0.51763   0.18001   0.77466   0.00000  Uiso   1.00
C16    C     0.65688   0.16881   0.78327   0.00000  Uiso   1.00
C17    C     0.71192   0.28661   0.80408   0.00000  Uiso   1.00
C18    C     0.33008   0.06702   0.65926   0.00000  Uiso   1.00
C19    C     0.31164   0.96080   0.57085   0.00000  Uiso   1.00
C20    C     0.20878   0.98346   0.49452   0.00000  Uiso   1.00
C21    C     0.35891   0.10276   0.83753   0.00000  Uiso   1.00
C22    C     0.36467   0.02659   0.89899   0.00000  Uiso   1.00
C23    C     0.28605   0.07933   0.97273   0.00000  Uiso   1.00
H24    H     0.22317   0.39025   0.78301   0.00000  Uiso   1.00
H25    H     0.42802   0.51857   0.81631   0.00000  Uiso   1.00
H26    H     0.08282   0.31058   0.60393   0.00000  Uiso   1.00
H27    H     0.13585   0.37636   0.93202   0.00000  Uiso   1.00
H28    H     0.69102   0.60595   0.84801   0.00000  Uiso   1.00
H29    H     0.96312   0.16738   0.40021   0.00000  Uiso   1.00
H30    H     0.07494   0.30610   0.09204   0.00000  Uiso   1.00
H31    H     0.49982   0.96738   0.74305   0.00000  Uiso   1.00
H32    H     0.71986   0.07250   0.77416   0.00000  Uiso   1.00
H33    H     0.37465   0.86452   0.56178   0.00000  Uiso   1.00
H34    H     0.42768   0.93030   0.88986   0.00000  Uiso   1.00
H35    H     0.92789   0.24391   0.81380   0.00000  Uiso   1.00
H36    H     0.19998   0.80534   0.36599   0.00000  Uiso   1.00
H37    H     0.31180   0.94405   0.05783   0.00000  Uiso   1.00
O38    O     0.94920   0.50170   0.85206   0.00000  Uiso   1.00
O39    O     0.99420   0.92631   0.26457   0.00000  Uiso   1.00
O40    O     0.14091   0.10831   0.17224   0.00000  Uiso   1.00
N41    N     0.71658   0.50632   0.83571   0.00000  Uiso   1.00
N42    N     0.03604   0.09629   0.41703   0.00000  Uiso   1.00
N43    N     0.14055   0.22597   0.06382   0.00000  Uiso   1.00
N44    N     0.84403   0.31151   0.81730   0.00000  Uiso   1.00
N45    N     0.16350   0.90148   0.39862   0.00000  Uiso   1.00
N46    N     0.26801   0.03115   0.04541   0.00000  Uiso   1.00
C47    C     0.71344   0.70663   0.22614   0.00000  Uiso   1.00
C48    C     0.56378   0.69554   0.21358   0.00000  Uiso   1.00
C49    C     0.50894   0.57771   0.19277   0.00000  Uiso   1.00
C50    C     0.36964   0.58873   0.18414   0.00000  Uiso   1.00
C51    C     0.14965   0.55260   0.16289   0.00000  Uiso   1.00
C52    C     0.75133   0.80855   0.32898   0.00000  Uiso   1.00
C53    C     0.85419   0.78573   0.40520   0.00000  Uiso   1.00
C54    C     0.87277   0.89188   0.49370   0.00000  Uiso   1.00
C55    C     0.94402   0.03122   0.65159   0.00000  Uiso   1.00
C56    C     0.72251   0.77280   0.15072   0.00000  Uiso   1.00
C57    C     0.80117   0.71994   0.07706   0.00000  Uiso   1.00
C58    C     0.79551   0.79601   0.01549   0.00000  Uiso   1.00
C59    C     0.82200   0.87983   0.89660   0.00000  Uiso   1.00
C60    C     0.56356   0.93573   0.24780   0.00000  Uiso   1.00
C61    C     0.48237   0.81999   0.22534   0.00000  Uiso   1.00
C62    C     0.34312   0.83119   0.21673   0.00000  Uiso   1.00
C63    C     0.28808   0.71339   0.19592   0.00000  Uiso   1.00
C64    C     0.66992   0.93298   0.34074   0.00000  Uiso   1.00
C65    C     0.68836   0.03920   0.42915   0.00000  Uiso   1.00
C66    C     0.79122   0.01654   0.50548   0.00000  Uiso   1.00
C67    C     0.64109   0.89724   0.16247   0.00000  Uiso   1.00
C68    C     0.63533   0.97341   0.10101   0.00000  Uiso   1.00
C69    C     0.71395   0.92067   0.02727   0.00000  Uiso   1.00
H70    H     0.77683   0.60975   0.21699   0.00000  Uiso   1.00
H71    H     0.57198   0.48143   0.18369   0.00000  Uiso   1.00
H72    H     0.91718   0.68942   0.39607   0.00000  Uiso   1.00
H73    H     0.86415   0.62364   0.06798   0.00000  Uiso   1.00
H74    H     0.30898   0.39405   0.15199   0.00000  Uiso   1.00
H75    H     0.03688   0.83262   0.59979   0.00000  Uiso   1.00
H76    H     0.92506   0.69390   0.90796   0.00000  Uiso   1.00
H77    H     0.50018   0.03262   0.25695   0.00000  Uiso   1.00
H78    H     0.28014   0.92750   0.22584   0.00000  Uiso   1.00
H79    H     0.62535   0.13548   0.43822   0.00000  Uiso   1.00
H80    H     0.57232   0.06970   0.11014   0.00000  Uiso   1.00
H81    H     0.07211   0.75609   0.18620   0.00000  Uiso   1.00
H82    H     0.80002   0.19466   0.63401   0.00000  Uiso   1.00
H83    H     0.68820   0.05595   0.94217   0.00000  Uiso   1.00
O84    O     0.05080   0.49830   0.14794   0.00000  Uiso   1.00
O85    O     0.00580   0.07369   0.73543   0.00000  Uiso   1.00
O86    O     0.85909   0.89169   0.82776   0.00000  Uiso   1.00
N87    N     0.28342   0.49368   0.16429   0.00000  Uiso   1.00
N88    N     0.96396   0.90371   0.58297   0.00000  Uiso   1.00
N89    N     0.85945   0.77403   0.93618   0.00000  Uiso   1.00
N90    N     0.15597   0.68849   0.18270   0.00000  Uiso   1.00
N91    N     0.83650   0.09852   0.60138   0.00000  Uiso   1.00
N92    N     0.73199   0.96885   0.95459   0.00000  Uiso   1.00
