data_job_06901
_audit_creation_date              2018-12-19
_audit_creation_method            'Materials Studio'
_symmetry_space_group_name_H-M    'P1'
_symmetry_Int_Tables_number       1
_symmetry_cell_setting            triclinic
loop_
_symmetry_equiv_pos_as_xyz
  x,y,z
_cell_length_a                    19.3796
_cell_length_b                    20.9064
_cell_length_c                    21.9041
_cell_angle_alpha                 102.1643
_cell_angle_beta                  84.0033
_cell_angle_gamma                 116.0376
loop_
_atom_site_label
_atom_site_type_symbol
_atom_site_fract_x
_atom_site_fract_y
_atom_site_fract_z
_atom_site_U_iso_or_equiv
_atom_site_adp_type
_atom_site_occupancy
C1     C     0.05003   0.78948   0.11107   0.00000  Uiso   1.00
C2     C     0.08826   0.74332   0.07341   0.00000  Uiso   1.00
C3     C     0.05847   0.66838   0.06424   0.00000  Uiso   1.00
C4     C     0.10227   0.63629   0.02833   0.00000  Uiso   1.00
C5     C     0.15084   0.55831   0.97380   0.00000  Uiso   1.00
C6     C     0.10775   0.84345   0.16047   0.00000  Uiso   1.00
C7     C     0.09434   0.85270   0.22451   0.00000  Uiso   1.00
C8     C     0.15455   0.90490   0.26188   0.00000  Uiso   1.00
C9     C     0.23336   0.98241   0.34251   0.00000  Uiso   1.00
C10    C     0.04369   0.83395   0.06679   0.00000  Uiso   1.00
C11    C     0.97643   0.83524   0.05207   0.00000  Uiso   1.00
C12    C     0.98271   0.87947   0.01058   0.00000  Uiso   1.00
C13    C     0.96207   0.94223   0.94577   0.00000  Uiso   1.00
C14    C     0.18079   0.86576   0.06357   0.00000  Uiso   1.00
C15    C     0.15928   0.78475   0.04761   0.00000  Uiso   1.00
C16    C     0.20314   0.75276   0.01169   0.00000  Uiso   1.00
C17    C     0.17342   0.67779   0.00248   0.00000  Uiso   1.00
C18    C     0.17877   0.88488   0.13467   0.00000  Uiso   1.00
C19    C     0.23901   0.93708   0.17196   0.00000  Uiso   1.00
C20    C     0.22570   0.94641   0.23603   0.00000  Uiso   1.00
C21    C     0.11472   0.87538   0.04099   0.00000  Uiso   1.00
C22    C     0.12110   0.91962   0.99952   0.00000  Uiso   1.00
C23    C     0.05386   0.92097   0.98474   0.00000  Uiso   1.00
H24    H     0.99473   0.75723   0.13116   0.00000  Uiso   1.00
H25    H     0.00350   0.63634   0.08422   0.00000  Uiso   1.00
H26    H     0.03937   0.82063   0.24446   0.00000  Uiso   1.00
H27    H     0.92148   0.80317   0.07205   0.00000  Uiso   1.00
H28    H     0.04456   0.52057   0.02083   0.00000  Uiso   1.00
H29    H     0.12017   0.90919   0.35869   0.00000  Uiso   1.00
H30    H     0.87158   0.87237   0.99513   0.00000  Uiso   1.00
H31    H     0.23609   0.89801   0.04349   0.00000  Uiso   1.00
H32    H     0.25810   0.78484   0.99174   0.00000  Uiso   1.00
H33    H     0.29396   0.96914   0.15198   0.00000  Uiso   1.00
H34    H     0.17608   0.95167   0.97957   0.00000  Uiso   1.00
H35    H     0.25120   0.64110   0.94577   0.00000  Uiso   1.00
H36    H     0.32681   0.02972   0.28363   0.00000  Uiso   1.00
H37    H     0.07822   0.99290   0.92007   0.00000  Uiso   1.00
O38    O     0.15802   0.50385   0.95085   0.00000  Uiso   1.00
O39    O     0.25721   0.01371   0.39412   0.00000  Uiso   1.00
O40    O     0.93106   0.96540   0.91713   0.00000  Uiso   1.00
N41    N     0.09016   0.56447   0.01025   0.00000  Uiso   1.00
N42    N     0.16086   0.92780   0.32614   0.00000  Uiso   1.00
N43    N     0.92845   0.89339   0.98625   0.00000  Uiso   1.00
N44    N     0.20136   0.62933   0.96986   0.00000  Uiso   1.00
N45    N     0.27205   0.99265   0.28575   0.00000  Uiso   1.00
N46    N     0.03964   0.95824   0.94586   0.00000  Uiso   1.00
C47    C     0.94564   0.97793   0.21895   0.00000  Uiso   1.00
C48    C     0.03308   0.01716   0.22015   0.00000  Uiso   1.00
C49    C     0.08174   0.02360   0.16831   0.00000  Uiso   1.00
C50    C     0.16002   0.06159   0.17923   0.00000  Uiso   1.00
C51    C     0.29147   0.11785   0.17188   0.00000  Uiso   1.00
C52    C     0.92300   0.92158   0.26054   0.00000  Uiso   1.00
C53    C     0.87908   0.84765   0.24266   0.00000  Uiso   1.00
C54    C     0.86469   0.80518   0.28759   0.00000  Uiso   1.00
C55    C     0.82518   0.71305   0.34295   0.00000  Uiso   1.00
C56    C     0.91681   0.03344   0.25262   0.00000  Uiso   1.00
C57    C     0.86767   0.05355   0.22809   0.00000  Uiso   1.00
C58    C     0.84805   0.10525   0.26636   0.00000  Uiso   1.00
C59    C     0.79893   0.18680   0.30943   0.00000  Uiso   1.00
C60    C     0.99814   0.03396   0.33053   0.00000  Uiso   1.00
C61    C     0.06160   0.04759   0.28076   0.00000  Uiso   1.00
C62    C     0.13984   0.08559   0.29176   0.00000  Uiso   1.00
C63    C     0.18860   0.09208   0.23994   0.00000  Uiso   1.00
C64    C     0.95152   0.95201   0.32115   0.00000  Uiso   1.00
C65    C     0.93718   0.90964   0.36611   0.00000  Uiso   1.00
C66    C     0.89326   0.83567   0.34830   0.00000  Uiso   1.00
C67    C     0.94533   0.06387   0.31323   0.00000  Uiso   1.00
C68    C     0.92577   0.11555   0.35154   0.00000  Uiso   1.00
C69    C     0.87662   0.13574   0.32707   0.00000  Uiso   1.00
H70    H     0.92343   0.95423   0.17177   0.00000  Uiso   1.00
H71    H     0.05964   0.00003   0.12142   0.00000  Uiso   1.00
H72    H     0.85701   0.82412   0.19576   0.00000  Uiso   1.00
H73    H     0.84561   0.02999   0.18119   0.00000  Uiso   1.00
H74    H     0.22324   0.06421   0.09232   0.00000  Uiso   1.00
H75    H     0.79597   0.69328   0.24908   0.00000  Uiso   1.00
H76    H     0.77192   0.12741   0.21836   0.00000  Uiso   1.00
H77    H     0.02035   0.05765   0.37772   0.00000  Uiso   1.00
H78    H     0.16189   0.10913   0.33867   0.00000  Uiso   1.00
H79    H     0.95926   0.93321   0.41301   0.00000  Uiso   1.00
H80    H     0.94786   0.13909   0.39844   0.00000  Uiso   1.00
H81    H     0.30623   0.15276   0.26865   0.00000  Uiso   1.00
H82    H     0.87895   0.78183   0.42541   0.00000  Uiso   1.00
H83    H     0.85490   0.21595   0.39469   0.00000  Uiso   1.00
O84    O     0.35610   0.14046   0.15108   0.00000  Uiso   1.00
O85    O     0.79551   0.65382   0.35675   0.00000  Uiso   1.00
O86    O     0.76397   0.22338   0.31644   0.00000  Uiso   1.00
N87    N     0.22335   0.07800   0.13918   0.00000  Uiso   1.00
N88    N     0.82388   0.73120   0.28574   0.00000  Uiso   1.00
N89    N     0.80138   0.13706   0.25702   0.00000  Uiso   1.00
N90    N     0.26800   0.12564   0.23406   0.00000  Uiso   1.00
N91    N     0.86853   0.77885   0.38062   0.00000  Uiso   1.00
N92    N     0.84604   0.18470   0.35190   0.00000  Uiso   1.00
C93    C     0.77724   0.70574   0.00670   0.00000  Uiso   1.00
C94    C     0.72772   0.71712   0.06295   0.00000  Uiso   1.00
C95    C     0.75126   0.77509   0.11269   0.00000  Uiso   1.00
C96    C     0.69735   0.77560   0.15958   0.00000  Uiso   1.00
C97    C     0.63183   0.80170   0.24735   0.00000  Uiso   1.00
C98    C     0.77541   0.63159   0.00435   0.00000  Uiso   1.00
C99    C     0.83905   0.61764   0.00481   0.00000  Uiso   1.00
C100   C     0.82529   0.54614   0.00237   0.00000  Uiso   1.00
C101   C     0.83382   0.43944   0.99912   0.00000  Uiso   1.00
C102   C     0.73430   0.69848   0.94928   0.00000  Uiso   1.00
C103   C     0.76339   0.74076   0.90342   0.00000  Uiso   1.00
C104   C     0.71502   0.72556   0.85461   0.00000  Uiso   1.00
C105   C     0.65973   0.72272   0.76585   0.00000  Uiso   1.00
C106   C     0.63964   0.60356   0.00153   0.00000  Uiso   1.00
C107   C     0.65297   0.66162   0.06013   0.00000  Uiso   1.00
C108   C     0.59901   0.66204   0.10696   0.00000  Uiso   1.00
C109   C     0.62247   0.72000   0.15677   0.00000  Uiso   1.00
C110   C     0.70067   0.57609   0.00154   0.00000  Uiso   1.00
C111   C     0.68681   0.50459   0.99909   0.00000  Uiso   1.00
C112   C     0.75041   0.49054   0.99956   0.00000  Uiso   1.00
C113   C     0.65956   0.64298   0.94646   0.00000  Uiso   1.00
C114   C     0.61114   0.62771   0.89770   0.00000  Uiso   1.00
C115   C     0.64015   0.66996   0.85179   0.00000  Uiso   1.00
H116   H     0.83543   0.74894   0.00889   0.00000  Uiso   1.00
H117   H     0.80911   0.81803   0.11485   0.00000  Uiso   1.00
H118   H     0.89689   0.66060   0.00699   0.00000  Uiso   1.00
H119   H     0.82123   0.78370   0.90562   0.00000  Uiso   1.00
H120   H     0.74697   0.87013   0.23109   0.00000  Uiso   1.00
H121   H     0.93206   0.53818   0.00364   0.00000  Uiso   1.00
H122   H     0.77253   0.79776   0.78987   0.00000  Uiso   1.00
H123   H     0.58144   0.56035   0.99934   0.00000  Uiso   1.00
H124   H     0.54118   0.61909   0.10477   0.00000  Uiso   1.00
H125   H     0.62896   0.46166   0.99691   0.00000  Uiso   1.00
H126   H     0.55331   0.58476   0.89554   0.00000  Uiso   1.00
H127   H     0.52950   0.70866   0.22292   0.00000  Uiso   1.00
H128   H     0.71460   0.37671   0.99546   0.00000  Uiso   1.00
H129   H     0.55507   0.63629   0.78170   0.00000  Uiso   1.00
O130   O     0.61634   0.83142   0.29655   0.00000  Uiso   1.00
O131   O     0.85917   0.39592   0.99812   0.00000  Uiso   1.00
O132   O     0.64987   0.73649   0.71767   0.00000  Uiso   1.00
N133   N     0.70131   0.82407   0.21469   0.00000  Uiso   1.00
N134   N     0.87436   0.51372   0.00204   0.00000  Uiso   1.00
N135   N     0.72522   0.75640   0.80219   0.00000  Uiso   1.00
N136   N     0.58429   0.73719   0.21029   0.00000  Uiso   1.00
N137   N     0.75734   0.42684   0.99764   0.00000  Uiso   1.00
N138   N     0.60820   0.66951   0.79779   0.00000  Uiso   1.00
C139   C     0.42010   0.83796   0.59811   0.00000  Uiso   1.00
C140   C     0.33504   0.78662   0.59057   0.00000  Uiso   1.00
C141   C     0.30385   0.72572   0.54419   0.00000  Uiso   1.00
C142   C     0.22468   0.68582   0.54536   0.00000  Uiso   1.00
C143   C     0.09964   0.60299   0.52670   0.00000  Uiso   1.00
C144   C     0.44043   0.83969   0.66402   0.00000  Uiso   1.00
C145   C     0.49785   0.82342   0.67939   0.00000  Uiso   1.00
C146   C     0.50740   0.82819   0.74240   0.00000  Uiso   1.00
C147   C     0.54601   0.82781   0.83776   0.00000  Uiso   1.00
C148   C     0.42650   0.91321   0.59767   0.00000  Uiso   1.00
C149   C     0.47222   0.95877   0.55727   0.00000  Uiso   1.00
C150   C     0.47006   0.02546   0.56443   0.00000  Uiso   1.00
C151   C     0.48705   0.13922   0.55678   0.00000  Uiso   1.00
C152   C     0.33498   0.87538   0.68266   0.00000  Uiso   1.00
C153   C     0.28881   0.80694   0.63650   0.00000  Uiso   1.00
C154   C     0.20966   0.76712   0.63774   0.00000  Uiso   1.00
C155   C     0.17836   0.70618   0.59137   0.00000  Uiso   1.00
C156   C     0.39419   0.86001   0.70995   0.00000  Uiso   1.00
C157   C     0.40367   0.86482   0.77294   0.00000  Uiso   1.00
C158   C     0.46108   0.84856   0.78841   0.00000  Uiso   1.00
C159   C     0.38026   0.93353   0.64360   0.00000  Uiso   1.00
C160   C     0.37804   0.00017   0.65082   0.00000  Uiso   1.00
C161   C     0.42374   0.04582   0.61044   0.00000  Uiso   1.00
H162   H     0.45610   0.82214   0.56235   0.00000  Uiso   1.00
H163   H     0.33965   0.71001   0.50866   0.00000  Uiso   1.00
H164   H     0.53362   0.80770   0.64384   0.00000  Uiso   1.00
H165   H     0.50799   0.94302   0.52174   0.00000  Uiso   1.00
H166   H     0.19015   0.59464   0.46940   0.00000  Uiso   1.00
H167   H     0.59918   0.80065   0.75444   0.00000  Uiso   1.00
H168   H     0.54514   0.08602   0.49696   0.00000  Uiso   1.00
H169   H     0.29898   0.89120   0.71842   0.00000  Uiso   1.00
H170   H     0.17390   0.78286   0.67329   0.00000  Uiso   1.00
H171   H     0.36788   0.88055   0.80847   0.00000  Uiso   1.00
H172   H     0.34225   0.01588   0.68637   0.00000  Uiso   1.00
H173   H     0.05563   0.65377   0.60302   0.00000  Uiso   1.00
H174   H     0.46465   0.85978   0.88806   0.00000  Uiso   1.00
H175   H     0.41061   0.14514   0.63058   0.00000  Uiso   1.00
O176   O     0.04345   0.55168   0.50372   0.00000  Uiso   1.00
O177   O     0.58008   0.82197   0.87768   0.00000  Uiso   1.00
O178   O     0.50918   0.19635   0.53987   0.00000  Uiso   1.00
N179   N     0.17566   0.62344   0.50704   0.00000  Uiso   1.00
N180   N     0.55806   0.81603   0.77353   0.00000  Uiso   1.00
N181   N     0.50756   0.08283   0.53282   0.00000  Uiso   1.00
N182   N     0.10327   0.65525   0.57893   0.00000  Uiso   1.00
N183   N     0.48567   0.84784   0.84543   0.00000  Uiso   1.00
N184   N     0.43517   0.11465   0.60472   0.00000  Uiso   1.00
C185   C     0.61805   0.09505   0.79975   0.00000  Uiso   1.00
C186   C     0.56579   0.08862   0.85745   0.00000  Uiso   1.00
C187   C     0.48609   0.05609   0.85732   0.00000  Uiso   1.00
C188   C     0.44880   0.05575   0.91501   0.00000  Uiso   1.00
C189   C     0.36142   0.04101   0.99611   0.00000  Uiso   1.00
C190   C     0.67006   0.06010   0.80815   0.00000  Uiso   1.00
C191   C     0.67804   0.00361   0.76656   0.00000  Uiso   1.00
C192   C     0.72854   0.97927   0.78275   0.00000  Uiso   1.00
C193   C     0.80308   0.92030   0.78729   0.00000  Uiso   1.00
C194   C     0.67002   0.17563   0.80404   0.00000  Uiso   1.00
C195   C     0.67799   0.21628   0.75899   0.00000  Uiso   1.00
C196   C     0.72847   0.28921   0.77170   0.00000  Uiso   1.00
C197   C     0.80296   0.40961   0.76986   0.00000  Uiso   1.00
C198   C     0.69354   0.15228   0.90244   0.00000  Uiso   1.00
C199   C     0.60679   0.11970   0.91322   0.00000  Uiso   1.00
C200   C     0.56961   0.11942   0.97093   0.00000  Uiso   1.00
C201   C     0.48987   0.08690   0.97088   0.00000  Uiso   1.00
C202   C     0.71106   0.09119   0.86392   0.00000  Uiso   1.00
C203   C     0.76156   0.06693   0.88017   0.00000  Uiso   1.00
C204   C     0.76961   0.01042   0.83862   0.00000  Uiso   1.00
C205   C     0.71103   0.20672   0.85981   0.00000  Uiso   1.00
C206   C     0.76151   0.27960   0.87260   0.00000  Uiso   1.00
C207   C     0.76955   0.32035   0.82758   0.00000  Uiso   1.00
H208   H     0.58613   0.07084   0.75633   0.00000  Uiso   1.00
H209   H     0.45438   0.03203   0.81414   0.00000  Uiso   1.00
H210   H     0.64631   0.97957   0.72340   0.00000  Uiso   1.00
H211   H     0.64625   0.19220   0.71583   0.00000  Uiso   1.00
H212   H     0.32640   0.00270   0.90284   0.00000  Uiso   1.00
H213   H     0.73111   0.89208   0.71149   0.00000  Uiso   1.00
H214   H     0.73100   0.34047   0.69552   0.00000  Uiso   1.00
H215   H     0.72546   0.17648   0.94586   0.00000  Uiso   1.00
H216   H     0.60136   0.14348   0.01408   0.00000  Uiso   1.00
H217   H     0.79329   0.09101   0.92334   0.00000  Uiso   1.00
H218   H     0.79323   0.30364   0.91577   0.00000  Uiso   1.00
H219   H     0.44569   0.09315   0.06512   0.00000  Uiso   1.00
H220   H     0.85040   0.98253   0.87376   0.00000  Uiso   1.00
H221   H     0.85029   0.43092   0.85780   0.00000  Uiso   1.00
O222   O     0.30189   0.02428   0.02543   0.00000  Uiso   1.00
O223   O     0.83286   0.87917   0.77438   0.00000  Uiso   1.00
O224   O     0.83272   0.46744   0.75344   0.00000  Uiso   1.00
N225   N     0.37150   0.02853   0.93167   0.00000  Uiso   1.00
N226   N     0.74987   0.92510   0.75277   0.00000  Uiso   1.00
N227   N     0.74979   0.34430   0.73784   0.00000  Uiso   1.00
N228   N     0.43570   0.07720   0.01899   0.00000  Uiso   1.00
N229   N     0.81406   0.97377   0.84009   0.00000  Uiso   1.00
N230   N     0.81398   0.39297   0.82516   0.00000  Uiso   1.00
C231   C     0.61300   0.65444   0.55065   0.00000  Uiso   1.00
C232   C     0.60580   0.58451   0.50718   0.00000  Uiso   1.00
C233   C     0.64311   0.54298   0.51392   0.00000  Uiso   1.00
C234   C     0.62891   0.48086   0.46921   0.00000  Uiso   1.00
C235   C     0.62527   0.37528   0.40929   0.00000  Uiso   1.00
C236   C     0.53153   0.64211   0.57253   0.00000  Uiso   1.00
C237   C     0.50640   0.64901   0.63422   0.00000  Uiso   1.00
C238   C     0.42968   0.63539   0.64453   0.00000  Uiso   1.00
C239   C     0.31075   0.61928   0.68607   0.00000  Uiso   1.00
C240   C     0.63891   0.71171   0.50961   0.00000  Uiso   1.00
C241   C     0.70406   0.77715   0.51840   0.00000  Uiso   1.00
C242   C     0.71774   0.82214   0.47574   0.00000  Uiso   1.00
C243   C     0.76553   0.91410   0.41958   0.00000  Uiso   1.00
C244   C     0.52144   0.61799   0.45926   0.00000  Uiso   1.00
C245   C     0.55607   0.56471   0.45754   0.00000  Uiso   1.00
C246   C     0.54181   0.50265   0.41281   0.00000  Uiso   1.00
C247   C     0.57909   0.46103   0.41949   0.00000  Uiso   1.00
C248   C     0.48180   0.62231   0.52290   0.00000  Uiso   1.00
C249   C     0.40511   0.60868   0.53312   0.00000  Uiso   1.00
C250   C     0.37986   0.61556   0.59481   0.00000  Uiso   1.00
C251   C     0.58919   0.69191   0.45997   0.00000  Uiso   1.00
C252   C     0.60276   0.73681   0.41729   0.00000  Uiso   1.00
C253   C     0.66792   0.80231   0.42602   0.00000  Uiso   1.00
H254   H     0.65171   0.66986   0.58929   0.00000  Uiso   1.00
H255   H     0.68158   0.55832   0.55234   0.00000  Uiso   1.00
H256   H     0.54490   0.66434   0.67263   0.00000  Uiso   1.00
H257   H     0.74252   0.79246   0.55682   0.00000  Uiso   1.00
H258   H     0.69275   0.42591   0.48950   0.00000  Uiso   1.00
H259   H     0.40455   0.64950   0.74313   0.00000  Uiso   1.00
H260   H     0.82129   0.91965   0.49893   0.00000  Uiso   1.00
H261   H     0.48273   0.60257   0.42062   0.00000  Uiso   1.00
H262   H     0.50333   0.48734   0.37441   0.00000  Uiso   1.00
H263   H     0.36664   0.59336   0.49469   0.00000  Uiso   1.00
H264   H     0.56427   0.72147   0.37889   0.00000  Uiso   1.00
H265   H     0.54807   0.36830   0.34508   0.00000  Uiso   1.00
H266   H     0.25987   0.59189   0.59871   0.00000  Uiso   1.00
H267   H     0.67661   0.86204   0.35451   0.00000  Uiso   1.00
O268   O     0.63699   0.32250   0.38995   0.00000  Uiso   1.00
O269   O     0.25889   0.61585   0.72270   0.00000  Uiso   1.00
O270   O     0.80564   0.97028   0.40231   0.00000  Uiso   1.00
N271   N     0.65588   0.42817   0.46184   0.00000  Uiso   1.00
N272   N     0.38643   0.63720   0.69897   0.00000  Uiso   1.00
N273   N     0.77603   0.88978   0.47067   0.00000  Uiso   1.00
N274   N     0.57803   0.39717   0.38413   0.00000  Uiso   1.00
N275   N     0.30858   0.60620   0.62126   0.00000  Uiso   1.00
N276   N     0.69818   0.85878   0.39296   0.00000  Uiso   1.00
C277   C     0.13522   0.33041   0.01876   0.00000  Uiso   1.00
C278   C     0.12317   0.39115   0.06381   0.00000  Uiso   1.00
C279   C     0.17529   0.44293   0.10785   0.00000  Uiso   1.00
C280   C     0.15348   0.49395   0.14461   0.00000  Uiso   1.00
C281   C     0.14564   0.58842   0.21562   0.00000  Uiso   1.00
C282   C     0.12447   0.33897   0.95344   0.00000  Uiso   1.00
C283   C     0.17768   0.34685   0.90468   0.00000  Uiso   1.00
C284   C     0.15696   0.35393   0.84853   0.00000  Uiso   1.00
C285   C     0.15112   0.36733   0.74817   0.00000  Uiso   1.00
C286   C     0.06797   0.26010   0.03010   0.00000  Uiso   1.00
C287   C     0.07367   0.20166   0.04578   0.00000  Uiso   1.00
C288   C     0.00538   0.14233   0.05417   0.00000  Uiso   1.00
C289   C     0.91181   0.03327   0.07284   0.00000  Uiso   1.00
C290   C     0.00381   0.32895   0.00575   0.00000  Uiso   1.00
C291   C     0.05180   0.39036   0.05674   0.00000  Uiso   1.00
C292   C     0.02990   0.44132   0.09345   0.00000  Uiso   1.00
C293   C     0.08198   0.49316   0.13753   0.00000  Uiso   1.00
C294   C     0.05310   0.33818   0.94637   0.00000  Uiso   1.00
C295   C     0.03229   0.34524   0.89028   0.00000  Uiso   1.00
C296   C     0.08546   0.35314   0.84145   0.00000  Uiso   1.00
C297   C     0.99660   0.25931   0.02304   0.00000  Uiso   1.00
C298   C     0.92828   0.20005   0.03139   0.00000  Uiso   1.00
C299   C     0.93387   0.14154   0.04709   0.00000  Uiso   1.00
H300   H     0.19079   0.33102   0.02426   0.00000  Uiso   1.00
H301   H     0.23053   0.44353   0.11330   0.00000  Uiso   1.00
H302   H     0.23291   0.34746   0.91016   0.00000  Uiso   1.00
H303   H     0.12892   0.20229   0.05125   0.00000  Uiso   1.00
H304   H     0.24311   0.56793   0.20888   0.00000  Uiso   1.00
H305   H     0.24813   0.36533   0.78055   0.00000  Uiso   1.00
H306   H     0.02884   0.05922   0.07806   0.00000  Uiso   1.00
H307   H     0.94824   0.32833   0.00024   0.00000  Uiso   1.00
H308   H     0.97466   0.44069   0.08797   0.00000  Uiso   1.00
H309   H     0.97705   0.34462   0.88483   0.00000  Uiso   1.00
H310   H     0.87306   0.19946   0.02592   0.00000  Uiso   1.00
H311   H     0.03544   0.56563   0.18832   0.00000  Uiso   1.00
H312   H     0.04046   0.36303   0.75999   0.00000  Uiso   1.00
H313   H     0.82117   0.05692   0.05750   0.00000  Uiso   1.00
O314   O     0.16104   0.64075   0.25673   0.00000  Uiso   1.00
O315   O     0.16762   0.37494   0.69477   0.00000  Uiso   1.00
O316   O     0.87992   0.97334   0.08510   0.00000  Uiso   1.00
N317   N     0.19060   0.55196   0.19201   0.00000  Uiso   1.00
N318   N     0.19530   0.36256   0.79155   0.00000  Uiso   1.00
N319   N     0.99028   0.07636   0.06968   0.00000  Uiso   1.00
N320   N     0.07886   0.55072   0.18095   0.00000  Uiso   1.00
N321   N     0.08356   0.36132   0.78049   0.00000  Uiso   1.00
N322   N     0.87854   0.07512   0.05862   0.00000  Uiso   1.00
C323   C     0.03130   0.94063   0.76949   0.00000  Uiso   1.00
C324   C     0.05678   0.93605   0.70107   0.00000  Uiso   1.00
C325   C     0.01988   0.94172   0.65286   0.00000  Uiso   1.00
C326   C     0.05227   0.93610   0.59352   0.00000  Uiso   1.00
C327   C     0.08169   0.93069   0.48891   0.00000  Uiso   1.00
C328   C     0.09954   0.00134   0.80623   0.00000  Uiso   1.00
C329   C     0.09857   0.06189   0.84643   0.00000  Uiso   1.00
C330   C     0.16695   0.11122   0.87561   0.00000  Uiso   1.00
C331   C     0.26272   0.20714   0.93429   0.00000  Uiso   1.00
C332   C     0.02199   0.87075   0.78771   0.00000  Uiso   1.00
C333   C     0.95583   0.82151   0.81236   0.00000  Uiso   1.00
C334   C     0.95893   0.76090   0.82596   0.00000  Uiso   1.00
C335   C     0.93431   0.65406   0.85589   0.00000  Uiso   1.00
C336   C     0.15447   0.92056   0.74983   0.00000  Uiso   1.00
C337   C     0.12369   0.92515   0.69040   0.00000  Uiso   1.00
C338   C     0.15615   0.91951   0.63111   0.00000  Uiso   1.00
C339   C     0.11929   0.92517   0.58282   0.00000  Uiso   1.00
C340   C     0.16643   0.99044   0.79555   0.00000  Uiso   1.00
C341   C     0.23484   0.03968   0.82468   0.00000  Uiso   1.00
C342   C     0.23397   0.10030   0.86491   0.00000  Uiso   1.00
C343   C     0.08889   0.85985   0.77703   0.00000  Uiso   1.00
C344   C     0.09210   0.79930   0.79060   0.00000  Uiso   1.00
C345   C     0.02596   0.74998   0.81526   0.00000  Uiso   1.00
H346   H     0.97922   0.94912   0.77781   0.00000  Uiso   1.00
H347   H     0.96811   0.95017   0.66114   0.00000  Uiso   1.00
H348   H     0.04678   0.07031   0.85469   0.00000  Uiso   1.00
H349   H     0.90407   0.82997   0.82061   0.00000  Uiso   1.00
H350   H     0.98531   0.94654   0.52710   0.00000  Uiso   1.00
H351   H     0.15119   0.19986   0.93521   0.00000  Uiso   1.00
H352   H     0.85025   0.69305   0.86336   0.00000  Uiso   1.00
H353   H     0.20656   0.91207   0.74152   0.00000  Uiso   1.00
H354   H     0.20792   0.91108   0.62286   0.00000  Uiso   1.00
H355   H     0.28660   0.03123   0.81641   0.00000  Uiso   1.00
H356   H     0.14388   0.79088   0.78233   0.00000  Uiso   1.00
H357   H     0.17995   0.91482   0.49602   0.00000  Uiso   1.00
H358   H     0.34584   0.16814   0.90414   0.00000  Uiso   1.00
H359   H     0.04489   0.66133   0.83229   0.00000  Uiso   1.00
O360   O     0.07944   0.93073   0.43416   0.00000  Uiso   1.00
O361   O     0.29707   0.26306   0.96960   0.00000  Uiso   1.00
O362   O     0.90224   0.59814   0.87533   0.00000  Uiso   1.00
N363   N     0.03092   0.93920   0.53607   0.00000  Uiso   1.00
N364   N     0.18602   0.17604   0.91762   0.00000  Uiso   1.00
N365   N     0.90467   0.70223   0.85046   0.00000  Uiso   1.00
N366   N     0.13566   0.92213   0.51935   0.00000  Uiso   1.00
N367   N     0.29075   0.15897   0.90090   0.00000  Uiso   1.00
N368   N     0.00940   0.68516   0.83375   0.00000  Uiso   1.00
C369   C     0.41114   0.43983   0.15868   0.00000  Uiso   1.00
C370   C     0.49187   0.46866   0.18377   0.00000  Uiso   1.00
C371   C     0.54862   0.44770   0.15695   0.00000  Uiso   1.00
C372   C     0.61868   0.48045   0.18705   0.00000  Uiso   1.00
C373   C     0.74210   0.51735   0.21764   0.00000  Uiso   1.00
C374   C     0.40147   0.50591   0.14998   0.00000  Uiso   1.00
C375   C     0.38220   0.51626   0.09474   0.00000  Uiso   1.00
C376   C     0.37615   0.58036   0.09639   0.00000  Uiso   1.00
C377   C     0.35917   0.67507   0.07452   0.00000  Uiso   1.00
C378   C     0.35620   0.41033   0.21161   0.00000  Uiso   1.00
C379   C     0.29884   0.34033   0.20820   0.00000  Uiso   1.00
C380   C     0.25466   0.32398   0.26175   0.00000  Uiso   1.00
C381   C     0.16738   0.27030   0.33557   0.00000  Uiso   1.00
C382   C     0.43466   0.53526   0.25984   0.00000  Uiso   1.00
C383   C     0.50465   0.52049   0.23872   0.00000  Uiso   1.00
C384   C     0.57464   0.55328   0.26887   0.00000  Uiso   1.00
C385   C     0.63147   0.53238   0.24210   0.00000  Uiso   1.00
C386   C     0.41425   0.55774   0.20492   0.00000  Uiso   1.00
C387   C     0.40822   0.62184   0.20666   0.00000  Uiso   1.00
C388   C     0.38894   0.63229   0.15144   0.00000  Uiso   1.00
C389   C     0.36897   0.46217   0.26656   0.00000  Uiso   1.00
C390   C     0.32487   0.44592   0.32012   0.00000  Uiso   1.00
C391   C     0.26745   0.37591   0.31679   0.00000  Uiso   1.00
H392   H     0.40119   0.39948   0.11590   0.00000  Uiso   1.00
H393   H     0.53871   0.40759   0.11443   0.00000  Uiso   1.00
H394   H     0.37231   0.47613   0.05223   0.00000  Uiso   1.00
H395   H     0.28897   0.30024   0.16567   0.00000  Uiso   1.00
H396   H     0.69681   0.43946   0.13701   0.00000  Uiso   1.00
H397   H     0.34592   0.58397   0.00586   0.00000  Uiso   1.00
H398   H     0.17018   0.21306   0.24508   0.00000  Uiso   1.00
H399   H     0.44461   0.57562   0.30262   0.00000  Uiso   1.00
H400   H     0.58451   0.59340   0.31139   0.00000  Uiso   1.00
H401   H     0.41811   0.66194   0.24919   0.00000  Uiso   1.00
H402   H     0.33477   0.48605   0.36263   0.00000  Uiso   1.00
H403   H     0.73399   0.59027   0.29687   0.00000  Uiso   1.00
H404   H     0.38309   0.73478   0.16572   0.00000  Uiso   1.00
H405   H     0.20735   0.36388   0.40494   0.00000  Uiso   1.00
O406   O     0.80666   0.52339   0.21933   0.00000  Uiso   1.00
O407   O     0.34628   0.71299   0.04727   0.00000  Uiso   1.00
O408   O     0.11572   0.22636   0.36112   0.00000  Uiso   1.00
N409   N     0.68636   0.47250   0.17343   0.00000  Uiso   1.00
N410   N     0.35830   0.60762   0.05082   0.00000  Uiso   1.00
N411   N     0.19399   0.26086   0.27446   0.00000  Uiso   1.00
N412   N     0.70636   0.55365   0.25945   0.00000  Uiso   1.00
N413   N     0.37831   0.68877   0.13684   0.00000  Uiso   1.00
N414   N     0.21399   0.34201   0.36048   0.00000  Uiso   1.00
C415   C     0.90619   0.32216   0.53480   0.00000  Uiso   1.00
C416   C     0.95966   0.38268   0.58354   0.00000  Uiso   1.00
C417   C     0.93690   0.41819   0.63690   0.00000  Uiso   1.00
C418   C     0.99461   0.47203   0.67561   0.00000  Uiso   1.00
C419   C     0.06583   0.56334   0.75344   0.00000  Uiso   1.00
C420   C     0.93099   0.34780   0.47250   0.00000  Uiso   1.00
C421   C     0.88412   0.35396   0.43250   0.00000  Uiso   1.00
C422   C     0.91770   0.37843   0.37773   0.00000  Uiso   1.00
C423   C     0.94440   0.41553   0.28314   0.00000  Uiso   1.00
C424   C     0.92589   0.25828   0.53043   0.00000  Uiso   1.00
C425   C     0.87472   0.18916   0.53912   0.00000  Uiso   1.00
C426   C     0.90401   0.13825   0.53311   0.00000  Uiso   1.00
C427   C     0.92278   0.03636   0.52847   0.00000  Uiso   1.00
C428   C     0.04917   0.35465   0.50865   0.00000  Uiso   1.00
C429   C     0.03732   0.40033   0.56933   0.00000  Uiso   1.00
C430   C     0.09509   0.45413   0.60797   0.00000  Uiso   1.00
C431   C     0.07241   0.48970   0.66138   0.00000  Uiso   1.00
C432   C     0.00865   0.36544   0.45829   0.00000  Uiso   1.00
C433   C     0.04231   0.38990   0.40357   0.00000  Uiso   1.00
C434   C     0.99550   0.39611   0.36350   0.00000  Uiso   1.00
C435   C     0.00355   0.27592   0.51623   0.00000  Uiso   1.00
C436   C     0.03292   0.22511   0.51020   0.00000  Uiso   1.00
C437   C     0.98181   0.15593   0.51888   0.00000  Uiso   1.00
H438   H     0.84572   0.30843   0.54585   0.00000  Uiso   1.00
H439   H     0.87679   0.40452   0.64787   0.00000  Uiso   1.00
H440   H     0.82402   0.34030   0.44350   0.00000  Uiso   1.00
H441   H     0.81463   0.17553   0.55011   0.00000  Uiso   1.00
H442   H     0.94548   0.51886   0.75471   0.00000  Uiso   1.00
H443   H     0.83421   0.38342   0.32376   0.00000  Uiso   1.00
H444   H     0.81440   0.03596   0.54858   0.00000  Uiso   1.00
H445   H     0.10964   0.36839   0.49759   0.00000  Uiso   1.00
H446   H     0.15518   0.46777   0.59697   0.00000  Uiso   1.00
H447   H     0.10241   0.40355   0.39259   0.00000  Uiso   1.00
H448   H     0.09302   0.23878   0.49921   0.00000  Uiso   1.00
H449   H     0.17144   0.57020   0.71339   0.00000  Uiso   1.00
H450   H     0.06016   0.43475   0.28244   0.00000  Uiso   1.00
H451   H     0.04036   0.08730   0.50726   0.00000  Uiso   1.00
O452   O     0.08366   0.60884   0.80028   0.00000  Uiso   1.00
O453   O     0.93767   0.43113   0.23490   0.00000  Uiso   1.00
O454   O     0.91169   0.97528   0.52985   0.00000  Uiso   1.00
N455   N     0.99241   0.51729   0.73135   0.00000  Uiso   1.00
N456   N     0.88838   0.39067   0.32845   0.00000  Uiso   1.00
N457   N     0.86986   0.06582   0.53861   0.00000  Uiso   1.00
N458   N     0.11399   0.54491   0.70912   0.00000  Uiso   1.00
N459   N     0.00996   0.41830   0.30622   0.00000  Uiso   1.00
N460   N     0.99144   0.09345   0.51638   0.00000  Uiso   1.00
C461   C     0.56836   0.97324   0.25151   0.00000  Uiso   1.00
C462   C     0.59064   0.94795   0.18512   0.00000  Uiso   1.00
C463   C     0.66141   0.94831   0.16623   0.00000  Uiso   1.00
C464   C     0.67042   0.92298   0.10342   0.00000  Uiso   1.00
C465   C     0.71410   0.88752   0.00678   0.00000  Uiso   1.00
C466   C     0.54235   0.03126   0.24745   0.00000  Uiso   1.00
C467   C     0.57251   0.10167   0.28096   0.00000  Uiso   1.00
C468   C     0.54085   0.14646   0.27062   0.00000  Uiso   1.00
C469   C     0.50951   0.24033   0.27077   0.00000  Uiso   1.00
C470   C     0.49682   0.90924   0.26853   0.00000  Uiso   1.00
C471   C     0.48869   0.87705   0.31978   0.00000  Uiso   1.00
C472   C     0.41869   0.81912   0.32720   0.00000  Uiso   1.00
C473   C     0.31668   0.72353   0.36009   0.00000  Uiso   1.00
C474   C     0.45851   0.92760   0.17356   0.00000  Uiso   1.00
C475   C     0.53097   0.92316   0.14279   0.00000  Uiso   1.00
C476   C     0.53987   0.89782   0.07999   0.00000  Uiso   1.00
C477   C     0.61064   0.89815   0.06101   0.00000  Uiso   1.00
C478   C     0.48268   0.00648   0.20511   0.00000  Uiso   1.00
C479   C     0.45096   0.05118   0.19472   0.00000  Uiso   1.00
C480   C     0.48107   0.12163   0.22821   0.00000  Uiso   1.00
C481   C     0.43715   0.88445   0.22619   0.00000  Uiso   1.00
C482   C     0.36715   0.82656   0.23354   0.00000  Uiso   1.00
C483   C     0.35892   0.79429   0.28479   0.00000  Uiso   1.00
H484   H     0.61482   0.99254   0.28447   0.00000  Uiso   1.00
H485   H     0.70758   0.96751   0.19901   0.00000  Uiso   1.00
H486   H     0.61868   0.12083   0.31373   0.00000  Uiso   1.00
H487   H     0.53488   0.89625   0.35253   0.00000  Uiso   1.00
H488   H     0.78411   0.92884   0.08558   0.00000  Uiso   1.00
H489   H     0.59664   0.25213   0.32749   0.00000  Uiso   1.00
H490   H     0.41994   0.77856   0.40933   0.00000  Uiso   1.00
H491   H     0.41205   0.90830   0.14060   0.00000  Uiso   1.00
H492   H     0.49369   0.87864   0.04724   0.00000  Uiso   1.00
H493   H     0.40479   0.03197   0.16196   0.00000  Uiso   1.00
H494   H     0.32099   0.80739   0.20076   0.00000  Uiso   1.00
H495   H     0.61051   0.85673   0.96240   0.00000  Uiso   1.00
H496   H     0.42304   0.18002   0.20431   0.00000  Uiso   1.00
H497   H     0.24634   0.70644   0.28614   0.00000  Uiso   1.00
O498   O     0.75468   0.87482   0.96517   0.00000  Uiso   1.00
O499   O     0.50872   0.29895   0.28255   0.00000  Uiso   1.00
O500   O     0.27689   0.67764   0.38992   0.00000  Uiso   1.00
N501   N     0.73205   0.91593   0.06941   0.00000  Uiso   1.00
N502   N     0.55678   0.21819   0.29557   0.00000  Uiso   1.00
N503   N     0.39157   0.77545   0.37209   0.00000  Uiso   1.00
N504   N     0.63864   0.87712   0.00312   0.00000  Uiso   1.00
N505   N     0.46337   0.17938   0.22928   0.00000  Uiso   1.00
N506   N     0.29816   0.73664   0.30580   0.00000  Uiso   1.00
C507   C     0.59261   0.36894   0.63157   0.00000  Uiso   1.00
C508   C     0.53496   0.38967   0.60853   0.00000  Uiso   1.00
C509   C     0.49600   0.35874   0.55248   0.00000  Uiso   1.00
C510   C     0.44570   0.38527   0.53996   0.00000  Uiso   1.00
C511   C     0.35788   0.40905   0.49777   0.00000  Uiso   1.00
C512   C     0.66646   0.43852   0.64401   0.00000  Uiso   1.00
C513   C     0.73805   0.44866   0.61780   0.00000  Uiso   1.00
C514   C     0.79845   0.51630   0.63514   0.00000  Uiso   1.00
C515   C     0.91479   0.61590   0.64807   0.00000  Uiso   1.00
C516   C     0.56267   0.34861   0.69522   0.00000  Uiso   1.00
C517   C     0.54702   0.28316   0.71208   0.00000  Uiso   1.00
C518   C     0.52005   0.27511   0.77255   0.00000  Uiso   1.00
C519   C     0.47525   0.23511   0.86499   0.00000  Uiso   1.00
C520   C     0.57258   0.47105   0.70898   0.00000  Uiso   1.00
C521   C     0.52409   0.44514   0.65058   0.00000  Uiso   1.00
C522   C     0.47383   0.47172   0.63813   0.00000  Uiso   1.00
C523   C     0.43480   0.44083   0.58208   0.00000  Uiso   1.00
C524   C     0.65558   0.49398   0.68605   0.00000  Uiso   1.00
C525   C     0.71589   0.56163   0.70345   0.00000  Uiso   1.00
C526   C     0.78755   0.57187   0.67727   0.00000  Uiso   1.00
C527   C     0.55179   0.40407   0.73727   0.00000  Uiso   1.00
C528   C     0.52485   0.39613   0.79772   0.00000  Uiso   1.00
C529   C     0.50916   0.33067   0.81467   0.00000  Uiso   1.00
H530   H     0.60108   0.32576   0.59883   0.00000  Uiso   1.00
H531   H     0.50444   0.31583   0.51995   0.00000  Uiso   1.00
H532   H     0.74645   0.40572   0.58526   0.00000  Uiso   1.00
H533   H     0.55545   0.24025   0.67953   0.00000  Uiso   1.00
H534   H     0.39251   0.32929   0.45103   0.00000  Uiso   1.00
H535   H     0.90282   0.51883   0.58876   0.00000  Uiso   1.00
H536   H     0.50005   0.16989   0.78753   0.00000  Uiso   1.00
H537   H     0.56411   0.51423   0.74172   0.00000  Uiso   1.00
H538   H     0.46543   0.51464   0.67068   0.00000  Uiso   1.00
H539   H     0.70745   0.60453   0.73599   0.00000  Uiso   1.00
H540   H     0.51644   0.43906   0.83025   0.00000  Uiso   1.00
H541   H     0.36085   0.49065   0.57337   0.00000  Uiso   1.00
H542   H     0.87117   0.68020   0.71110   0.00000  Uiso   1.00
H543   H     0.46839   0.33126   0.90987   0.00000  Uiso   1.00
O544   O     0.31246   0.40685   0.46288   0.00000  Uiso   1.00
O545   O     0.98197   0.65552   0.64358   0.00000  Uiso   1.00
O546   O     0.45353   0.19772   0.90436   0.00000  Uiso   1.00
N547   N     0.39859   0.36720   0.48958   0.00000  Uiso   1.00
N548   N     0.87570   0.54442   0.61834   0.00000  Uiso   1.00
N549   N     0.49916   0.21820   0.80418   0.00000  Uiso   1.00
N550   N     0.38156   0.45403   0.55541   0.00000  Uiso   1.00
N551   N     0.85867   0.63124   0.68416   0.00000  Uiso   1.00
N552   N     0.48213   0.30502   0.87001   0.00000  Uiso   1.00
