data_job_03538
_audit_creation_date              2018-12-19
_audit_creation_method            'Materials Studio'
_symmetry_space_group_name_H-M    'P1'
_symmetry_Int_Tables_number       1
_symmetry_cell_setting            triclinic
loop_
_symmetry_equiv_pos_as_xyz
  x,y,z
_cell_length_a                    7.0623
_cell_length_b                    21.6436
_cell_length_c                    45.5550
_cell_angle_alpha                 90.0000
_cell_angle_beta                  90.0000
_cell_angle_gamma                 90.0000
loop_
_atom_site_label
_atom_site_type_symbol
_atom_site_fract_x
_atom_site_fract_y
_atom_site_fract_z
_atom_site_U_iso_or_equiv
_atom_site_adp_type
_atom_site_occupancy
C1     C     0.18725   0.23656   0.89442   0.00000  Uiso   1.00
C2     C     0.24594   0.18699   0.91640   0.00000  Uiso   1.00
C3     C     0.12735   0.15832   0.93651   0.00000  Uiso   1.00
C4     C     0.20825   0.11416   0.95472   0.00000  Uiso   1.00
C5     C     0.27011   0.03948   0.98914   0.00000  Uiso   1.00
C6     C     0.31567   0.29186   0.90025   0.00000  Uiso   1.00
C7     C     0.25569   0.35136   0.90678   0.00000  Uiso   1.00
C8     C     0.39530   0.39548   0.91138   0.00000  Uiso   1.00
C9     C     0.56540   0.48362   0.92070   0.00000  Uiso   1.00
C10    C     0.24313   0.21204   0.86426   0.00000  Uiso   1.00
C11    C     0.12218   0.20443   0.84053   0.00000  Uiso   1.00
C12    C     0.20072   0.18135   0.81483   0.00000  Uiso   1.00
C13    C     0.25820   0.14555   0.76827   0.00000  Uiso   1.00
C14    C     0.54182   0.20912   0.89099   0.00000  Uiso   1.00
C15    C     0.43853   0.17209   0.91454   0.00000  Uiso   1.00
C16    C     0.51964   0.12796   0.93271   0.00000  Uiso   1.00
C17    C     0.40118   0.09923   0.95285   0.00000  Uiso   1.00
C18    C     0.50825   0.27696   0.89838   0.00000  Uiso   1.00
C19    C     0.64798   0.32100   0.90298   0.00000  Uiso   1.00
C20    C     0.58823   0.38055   0.90951   0.00000  Uiso   1.00
C21    C     0.43572   0.19713   0.86240   0.00000  Uiso   1.00
C22    C     0.51447   0.17407   0.83673   0.00000  Uiso   1.00
C23    C     0.39365   0.16642   0.81296   0.00000  Uiso   1.00
H24    H     0.03732   0.24817   0.89587   0.00000  Uiso   1.00
H25    H     0.97832   0.16987   0.93795   0.00000  Uiso   1.00
H26    H     0.10665   0.36288   0.90822   0.00000  Uiso   1.00
H27    H     0.97315   0.21597   0.84198   0.00000  Uiso   1.00
H28    H     0.99785   0.07651   0.98379   0.00000  Uiso   1.00
H29    H     0.26843   0.48348   0.92108   0.00000  Uiso   1.00
H30    H     0.98693   0.17369   0.78140   0.00000  Uiso   1.00
H31    H     0.69176   0.19752   0.88953   0.00000  Uiso   1.00
H32    H     0.66868   0.11644   0.93126   0.00000  Uiso   1.00
H33    H     0.79700   0.30945   0.90153   0.00000  Uiso   1.00
H34    H     0.66350   0.16254   0.83529   0.00000  Uiso   1.00
H35    H     0.55817   0.03314   0.97836   0.00000  Uiso   1.00
H36    H     0.82875   0.44012   0.91565   0.00000  Uiso   1.00
H37    H     0.54725   0.13032   0.77597   0.00000  Uiso   1.00
O38    O     0.25103   0.00242   0.00864   0.00000  Uiso   1.00
O39    O     0.60602   0.53635   0.92637   0.00000  Uiso   1.00
O40    O     0.23669   0.12991   0.74312   0.00000  Uiso   1.00
N41    N     0.13288   0.07742   0.97678   0.00000  Uiso   1.00
N42    N     0.38586   0.45791   0.91815   0.00000  Uiso   1.00
N43    N     0.12269   0.16830   0.78756   0.00000  Uiso   1.00
N44    N     0.43439   0.05408   0.97386   0.00000  Uiso   1.00
N45    N     0.68736   0.43458   0.91523   0.00000  Uiso   1.00
N46    N     0.42420   0.14497   0.78464   0.00000  Uiso   1.00
C47    C     0.31275   0.26344   0.39442   0.00000  Uiso   1.00
C48    C     0.25406   0.31301   0.41640   0.00000  Uiso   1.00
C49    C     0.37265   0.34168   0.43651   0.00000  Uiso   1.00
C50    C     0.29175   0.38584   0.45472   0.00000  Uiso   1.00
C51    C     0.22989   0.46052   0.48914   0.00000  Uiso   1.00
C52    C     0.18433   0.20814   0.40025   0.00000  Uiso   1.00
C53    C     0.24431   0.14864   0.40678   0.00000  Uiso   1.00
C54    C     0.10470   0.10452   0.41138   0.00000  Uiso   1.00
C55    C     0.93460   0.01638   0.42070   0.00000  Uiso   1.00
C56    C     0.25687   0.28796   0.36426   0.00000  Uiso   1.00
C57    C     0.37782   0.29557   0.34053   0.00000  Uiso   1.00
C58    C     0.29928   0.31865   0.31483   0.00000  Uiso   1.00
C59    C     0.24180   0.35445   0.26827   0.00000  Uiso   1.00
C60    C     0.95818   0.29088   0.39099   0.00000  Uiso   1.00
C61    C     0.06147   0.32791   0.41454   0.00000  Uiso   1.00
C62    C     0.98036   0.37204   0.43271   0.00000  Uiso   1.00
C63    C     0.09882   0.40077   0.45285   0.00000  Uiso   1.00
C64    C     0.99175   0.22304   0.39838   0.00000  Uiso   1.00
C65    C     0.85202   0.17900   0.40298   0.00000  Uiso   1.00
C66    C     0.91177   0.11945   0.40951   0.00000  Uiso   1.00
C67    C     0.06428   0.30287   0.36240   0.00000  Uiso   1.00
C68    C     0.98553   0.32593   0.33673   0.00000  Uiso   1.00
C69    C     0.10635   0.33358   0.31296   0.00000  Uiso   1.00
H70    H     0.46268   0.25183   0.39587   0.00000  Uiso   1.00
H71    H     0.52168   0.33013   0.43795   0.00000  Uiso   1.00
H72    H     0.39335   0.13712   0.40822   0.00000  Uiso   1.00
H73    H     0.52685   0.28403   0.34198   0.00000  Uiso   1.00
H74    H     0.50215   0.42349   0.48379   0.00000  Uiso   1.00
H75    H     0.23157   0.01652   0.42108   0.00000  Uiso   1.00
H76    H     0.51307   0.32631   0.28140   0.00000  Uiso   1.00
H77    H     0.80824   0.30248   0.38953   0.00000  Uiso   1.00
H78    H     0.83132   0.38356   0.43126   0.00000  Uiso   1.00
H79    H     0.70300   0.19055   0.40153   0.00000  Uiso   1.00
H80    H     0.83650   0.33746   0.33529   0.00000  Uiso   1.00
H81    H     0.94183   0.46686   0.47836   0.00000  Uiso   1.00
H82    H     0.67125   0.05988   0.41565   0.00000  Uiso   1.00
H83    H     0.95275   0.36968   0.27597   0.00000  Uiso   1.00
O84    O     0.24897   0.49758   0.50864   0.00000  Uiso   1.00
O85    O     0.89398   0.96365   0.42637   0.00000  Uiso   1.00
O86    O     0.26331   0.37009   0.24312   0.00000  Uiso   1.00
N87    N     0.36712   0.42258   0.47678   0.00000  Uiso   1.00
N88    N     0.11414   0.04209   0.41815   0.00000  Uiso   1.00
N89    N     0.37731   0.33170   0.28756   0.00000  Uiso   1.00
N90    N     0.06561   0.44592   0.47386   0.00000  Uiso   1.00
N91    N     0.81264   0.06542   0.41523   0.00000  Uiso   1.00
N92    N     0.07580   0.35503   0.28464   0.00000  Uiso   1.00
C93    C     0.81275   0.23656   0.60558   0.00000  Uiso   1.00
C94    C     0.75406   0.18699   0.58360   0.00000  Uiso   1.00
C95    C     0.87265   0.15832   0.56349   0.00000  Uiso   1.00
C96    C     0.79175   0.11416   0.54528   0.00000  Uiso   1.00
C97    C     0.72989   0.03948   0.51086   0.00000  Uiso   1.00
C98    C     0.68433   0.29186   0.59975   0.00000  Uiso   1.00
C99    C     0.74431   0.35136   0.59322   0.00000  Uiso   1.00
C100   C     0.60470   0.39548   0.58862   0.00000  Uiso   1.00
C101   C     0.43460   0.48362   0.57930   0.00000  Uiso   1.00
C102   C     0.75687   0.21204   0.63574   0.00000  Uiso   1.00
C103   C     0.87782   0.20443   0.65947   0.00000  Uiso   1.00
C104   C     0.79928   0.18135   0.68517   0.00000  Uiso   1.00
C105   C     0.74180   0.14555   0.73173   0.00000  Uiso   1.00
C106   C     0.45818   0.20912   0.60901   0.00000  Uiso   1.00
C107   C     0.56147   0.17209   0.58546   0.00000  Uiso   1.00
C108   C     0.48036   0.12796   0.56729   0.00000  Uiso   1.00
C109   C     0.59882   0.09923   0.54715   0.00000  Uiso   1.00
C110   C     0.49175   0.27696   0.60162   0.00000  Uiso   1.00
C111   C     0.35202   0.32100   0.59702   0.00000  Uiso   1.00
C112   C     0.41177   0.38055   0.59049   0.00000  Uiso   1.00
C113   C     0.56428   0.19713   0.63760   0.00000  Uiso   1.00
C114   C     0.48553   0.17407   0.66327   0.00000  Uiso   1.00
C115   C     0.60635   0.16642   0.68704   0.00000  Uiso   1.00
H116   H     0.96268   0.24817   0.60413   0.00000  Uiso   1.00
H117   H     0.02168   0.16987   0.56205   0.00000  Uiso   1.00
H118   H     0.89335   0.36288   0.59178   0.00000  Uiso   1.00
H119   H     0.02685   0.21597   0.65802   0.00000  Uiso   1.00
H120   H     0.00215   0.07651   0.51621   0.00000  Uiso   1.00
H121   H     0.73157   0.48348   0.57892   0.00000  Uiso   1.00
H122   H     0.01307   0.17369   0.71860   0.00000  Uiso   1.00
H123   H     0.30824   0.19752   0.61047   0.00000  Uiso   1.00
H124   H     0.33132   0.11644   0.56874   0.00000  Uiso   1.00
H125   H     0.20300   0.30945   0.59847   0.00000  Uiso   1.00
H126   H     0.33650   0.16254   0.66471   0.00000  Uiso   1.00
H127   H     0.44183   0.03314   0.52164   0.00000  Uiso   1.00
H128   H     0.17125   0.44012   0.58435   0.00000  Uiso   1.00
H129   H     0.45275   0.13032   0.72403   0.00000  Uiso   1.00
O130   O     0.74897   0.00242   0.49136   0.00000  Uiso   1.00
O131   O     0.39398   0.53635   0.57363   0.00000  Uiso   1.00
O132   O     0.76331   0.12991   0.75688   0.00000  Uiso   1.00
N133   N     0.86712   0.07742   0.52322   0.00000  Uiso   1.00
N134   N     0.61414   0.45791   0.58185   0.00000  Uiso   1.00
N135   N     0.87731   0.16830   0.71244   0.00000  Uiso   1.00
N136   N     0.56561   0.05408   0.52614   0.00000  Uiso   1.00
N137   N     0.31264   0.43458   0.58477   0.00000  Uiso   1.00
N138   N     0.57580   0.14497   0.71536   0.00000  Uiso   1.00
C139   C     0.68725   0.26344   0.10558   0.00000  Uiso   1.00
C140   C     0.74594   0.31301   0.08360   0.00000  Uiso   1.00
C141   C     0.62735   0.34168   0.06349   0.00000  Uiso   1.00
C142   C     0.70825   0.38584   0.04528   0.00000  Uiso   1.00
C143   C     0.77011   0.46052   0.01086   0.00000  Uiso   1.00
C144   C     0.81567   0.20814   0.09975   0.00000  Uiso   1.00
C145   C     0.75569   0.14864   0.09322   0.00000  Uiso   1.00
C146   C     0.89530   0.10452   0.08862   0.00000  Uiso   1.00
C147   C     0.06540   0.01638   0.07930   0.00000  Uiso   1.00
C148   C     0.74313   0.28796   0.13574   0.00000  Uiso   1.00
C149   C     0.62218   0.29557   0.15947   0.00000  Uiso   1.00
C150   C     0.70072   0.31865   0.18517   0.00000  Uiso   1.00
C151   C     0.75820   0.35445   0.23173   0.00000  Uiso   1.00
C152   C     0.04182   0.29088   0.10901   0.00000  Uiso   1.00
C153   C     0.93853   0.32791   0.08546   0.00000  Uiso   1.00
C154   C     0.01964   0.37204   0.06729   0.00000  Uiso   1.00
C155   C     0.90118   0.40077   0.04715   0.00000  Uiso   1.00
C156   C     0.00825   0.22304   0.10162   0.00000  Uiso   1.00
C157   C     0.14798   0.17900   0.09702   0.00000  Uiso   1.00
C158   C     0.08823   0.11945   0.09049   0.00000  Uiso   1.00
C159   C     0.93572   0.30287   0.13760   0.00000  Uiso   1.00
C160   C     0.01447   0.32593   0.16327   0.00000  Uiso   1.00
C161   C     0.89365   0.33358   0.18704   0.00000  Uiso   1.00
H162   H     0.53732   0.25183   0.10413   0.00000  Uiso   1.00
H163   H     0.47832   0.33013   0.06205   0.00000  Uiso   1.00
H164   H     0.60665   0.13712   0.09178   0.00000  Uiso   1.00
H165   H     0.47315   0.28403   0.15802   0.00000  Uiso   1.00
H166   H     0.49785   0.42349   0.01621   0.00000  Uiso   1.00
H167   H     0.76843   0.01652   0.07892   0.00000  Uiso   1.00
H168   H     0.48693   0.32631   0.21860   0.00000  Uiso   1.00
H169   H     0.19176   0.30248   0.11047   0.00000  Uiso   1.00
H170   H     0.16868   0.38356   0.06874   0.00000  Uiso   1.00
H171   H     0.29700   0.19055   0.09847   0.00000  Uiso   1.00
H172   H     0.16350   0.33746   0.16471   0.00000  Uiso   1.00
H173   H     0.05817   0.46686   0.02164   0.00000  Uiso   1.00
H174   H     0.32875   0.05988   0.08435   0.00000  Uiso   1.00
H175   H     0.04725   0.36968   0.22403   0.00000  Uiso   1.00
O176   O     0.75103   0.49758   0.99136   0.00000  Uiso   1.00
O177   O     0.10602   0.96365   0.07363   0.00000  Uiso   1.00
O178   O     0.73669   0.37009   0.25688   0.00000  Uiso   1.00
N179   N     0.63288   0.42258   0.02322   0.00000  Uiso   1.00
N180   N     0.88586   0.04209   0.08185   0.00000  Uiso   1.00
N181   N     0.62269   0.33170   0.21244   0.00000  Uiso   1.00
N182   N     0.93439   0.44592   0.02614   0.00000  Uiso   1.00
N183   N     0.18736   0.06542   0.08477   0.00000  Uiso   1.00
N184   N     0.92420   0.35503   0.21536   0.00000  Uiso   1.00
C185   C     0.81275   0.76344   0.10558   0.00000  Uiso   1.00
C186   C     0.75406   0.81301   0.08360   0.00000  Uiso   1.00
C187   C     0.87265   0.84168   0.06349   0.00000  Uiso   1.00
C188   C     0.79175   0.88584   0.04528   0.00000  Uiso   1.00
C189   C     0.72989   0.96052   0.01086   0.00000  Uiso   1.00
C190   C     0.68433   0.70814   0.09975   0.00000  Uiso   1.00
C191   C     0.74431   0.64864   0.09322   0.00000  Uiso   1.00
C192   C     0.60470   0.60452   0.08862   0.00000  Uiso   1.00
C193   C     0.43460   0.51638   0.07930   0.00000  Uiso   1.00
C194   C     0.75687   0.78796   0.13574   0.00000  Uiso   1.00
C195   C     0.87782   0.79557   0.15947   0.00000  Uiso   1.00
C196   C     0.79928   0.81865   0.18517   0.00000  Uiso   1.00
C197   C     0.74180   0.85445   0.23173   0.00000  Uiso   1.00
C198   C     0.45818   0.79088   0.10901   0.00000  Uiso   1.00
C199   C     0.56147   0.82791   0.08546   0.00000  Uiso   1.00
C200   C     0.48036   0.87204   0.06729   0.00000  Uiso   1.00
C201   C     0.59882   0.90077   0.04715   0.00000  Uiso   1.00
C202   C     0.49175   0.72304   0.10162   0.00000  Uiso   1.00
C203   C     0.35202   0.67900   0.09702   0.00000  Uiso   1.00
C204   C     0.41177   0.61945   0.09049   0.00000  Uiso   1.00
C205   C     0.56428   0.80287   0.13760   0.00000  Uiso   1.00
C206   C     0.48553   0.82593   0.16327   0.00000  Uiso   1.00
C207   C     0.60635   0.83358   0.18704   0.00000  Uiso   1.00
H208   H     0.96268   0.75183   0.10413   0.00000  Uiso   1.00
H209   H     0.02168   0.83013   0.06205   0.00000  Uiso   1.00
H210   H     0.89335   0.63712   0.09178   0.00000  Uiso   1.00
H211   H     0.02685   0.78403   0.15802   0.00000  Uiso   1.00
H212   H     0.00215   0.92349   0.01621   0.00000  Uiso   1.00
H213   H     0.73157   0.51652   0.07892   0.00000  Uiso   1.00
H214   H     0.01307   0.82631   0.21860   0.00000  Uiso   1.00
H215   H     0.30824   0.80248   0.11047   0.00000  Uiso   1.00
H216   H     0.33132   0.88356   0.06874   0.00000  Uiso   1.00
H217   H     0.20300   0.69055   0.09847   0.00000  Uiso   1.00
H218   H     0.33650   0.83746   0.16471   0.00000  Uiso   1.00
H219   H     0.44183   0.96686   0.02164   0.00000  Uiso   1.00
H220   H     0.17125   0.55988   0.08435   0.00000  Uiso   1.00
H221   H     0.45275   0.86968   0.22403   0.00000  Uiso   1.00
O222   O     0.74897   0.99758   0.99136   0.00000  Uiso   1.00
O223   O     0.39398   0.46365   0.07363   0.00000  Uiso   1.00
O224   O     0.76331   0.87009   0.25688   0.00000  Uiso   1.00
N225   N     0.86712   0.92258   0.02322   0.00000  Uiso   1.00
N226   N     0.61414   0.54209   0.08185   0.00000  Uiso   1.00
N227   N     0.87731   0.83170   0.21244   0.00000  Uiso   1.00
N228   N     0.56561   0.94592   0.02614   0.00000  Uiso   1.00
N229   N     0.31264   0.56542   0.08477   0.00000  Uiso   1.00
N230   N     0.57580   0.85503   0.21536   0.00000  Uiso   1.00
C231   C     0.68725   0.73656   0.60558   0.00000  Uiso   1.00
C232   C     0.74594   0.68699   0.58360   0.00000  Uiso   1.00
C233   C     0.62735   0.65832   0.56349   0.00000  Uiso   1.00
C234   C     0.70825   0.61416   0.54528   0.00000  Uiso   1.00
C235   C     0.77011   0.53948   0.51086   0.00000  Uiso   1.00
C236   C     0.81567   0.79186   0.59975   0.00000  Uiso   1.00
C237   C     0.75569   0.85136   0.59322   0.00000  Uiso   1.00
C238   C     0.89530   0.89548   0.58862   0.00000  Uiso   1.00
C239   C     0.06540   0.98362   0.57930   0.00000  Uiso   1.00
C240   C     0.74313   0.71204   0.63574   0.00000  Uiso   1.00
C241   C     0.62218   0.70443   0.65947   0.00000  Uiso   1.00
C242   C     0.70072   0.68135   0.68517   0.00000  Uiso   1.00
C243   C     0.75820   0.64555   0.73173   0.00000  Uiso   1.00
C244   C     0.04182   0.70912   0.60901   0.00000  Uiso   1.00
C245   C     0.93853   0.67209   0.58546   0.00000  Uiso   1.00
C246   C     0.01964   0.62796   0.56729   0.00000  Uiso   1.00
C247   C     0.90118   0.59923   0.54715   0.00000  Uiso   1.00
C248   C     0.00825   0.77696   0.60162   0.00000  Uiso   1.00
C249   C     0.14798   0.82100   0.59702   0.00000  Uiso   1.00
C250   C     0.08823   0.88055   0.59049   0.00000  Uiso   1.00
C251   C     0.93572   0.69713   0.63760   0.00000  Uiso   1.00
C252   C     0.01447   0.67407   0.66327   0.00000  Uiso   1.00
C253   C     0.89365   0.66642   0.68704   0.00000  Uiso   1.00
H254   H     0.53732   0.74817   0.60413   0.00000  Uiso   1.00
H255   H     0.47832   0.66987   0.56205   0.00000  Uiso   1.00
H256   H     0.60665   0.86288   0.59178   0.00000  Uiso   1.00
H257   H     0.47315   0.71597   0.65802   0.00000  Uiso   1.00
H258   H     0.49785   0.57651   0.51621   0.00000  Uiso   1.00
H259   H     0.76843   0.98348   0.57892   0.00000  Uiso   1.00
H260   H     0.48693   0.67369   0.71860   0.00000  Uiso   1.00
H261   H     0.19176   0.69752   0.61047   0.00000  Uiso   1.00
H262   H     0.16868   0.61644   0.56874   0.00000  Uiso   1.00
H263   H     0.29700   0.80945   0.59847   0.00000  Uiso   1.00
H264   H     0.16350   0.66254   0.66471   0.00000  Uiso   1.00
H265   H     0.05817   0.53314   0.52164   0.00000  Uiso   1.00
H266   H     0.32875   0.94012   0.58435   0.00000  Uiso   1.00
H267   H     0.04725   0.63032   0.72403   0.00000  Uiso   1.00
O268   O     0.75103   0.50242   0.49136   0.00000  Uiso   1.00
O269   O     0.10602   0.03635   0.57363   0.00000  Uiso   1.00
O270   O     0.73669   0.62991   0.75688   0.00000  Uiso   1.00
N271   N     0.63288   0.57742   0.52322   0.00000  Uiso   1.00
N272   N     0.88586   0.95791   0.58185   0.00000  Uiso   1.00
N273   N     0.62269   0.66830   0.71244   0.00000  Uiso   1.00
N274   N     0.93439   0.55408   0.52614   0.00000  Uiso   1.00
N275   N     0.18736   0.93458   0.58477   0.00000  Uiso   1.00
N276   N     0.92420   0.64497   0.71536   0.00000  Uiso   1.00
C277   C     0.18725   0.76344   0.39442   0.00000  Uiso   1.00
C278   C     0.24594   0.81301   0.41640   0.00000  Uiso   1.00
C279   C     0.12735   0.84168   0.43651   0.00000  Uiso   1.00
C280   C     0.20825   0.88584   0.45472   0.00000  Uiso   1.00
C281   C     0.27011   0.96052   0.48914   0.00000  Uiso   1.00
C282   C     0.31567   0.70814   0.40025   0.00000  Uiso   1.00
C283   C     0.25569   0.64864   0.40678   0.00000  Uiso   1.00
C284   C     0.39530   0.60452   0.41138   0.00000  Uiso   1.00
C285   C     0.56540   0.51638   0.42070   0.00000  Uiso   1.00
C286   C     0.24313   0.78796   0.36426   0.00000  Uiso   1.00
C287   C     0.12218   0.79557   0.34053   0.00000  Uiso   1.00
C288   C     0.20072   0.81865   0.31483   0.00000  Uiso   1.00
C289   C     0.25820   0.85445   0.26827   0.00000  Uiso   1.00
C290   C     0.54182   0.79088   0.39099   0.00000  Uiso   1.00
C291   C     0.43853   0.82791   0.41454   0.00000  Uiso   1.00
C292   C     0.51964   0.87204   0.43271   0.00000  Uiso   1.00
C293   C     0.40118   0.90077   0.45285   0.00000  Uiso   1.00
C294   C     0.50825   0.72304   0.39838   0.00000  Uiso   1.00
C295   C     0.64798   0.67900   0.40298   0.00000  Uiso   1.00
C296   C     0.58823   0.61945   0.40951   0.00000  Uiso   1.00
C297   C     0.43572   0.80287   0.36240   0.00000  Uiso   1.00
C298   C     0.51447   0.82593   0.33673   0.00000  Uiso   1.00
C299   C     0.39365   0.83358   0.31296   0.00000  Uiso   1.00
H300   H     0.03732   0.75183   0.39587   0.00000  Uiso   1.00
H301   H     0.97832   0.83013   0.43795   0.00000  Uiso   1.00
H302   H     0.10665   0.63712   0.40822   0.00000  Uiso   1.00
H303   H     0.97315   0.78403   0.34198   0.00000  Uiso   1.00
H304   H     0.99785   0.92349   0.48379   0.00000  Uiso   1.00
H305   H     0.26843   0.51652   0.42108   0.00000  Uiso   1.00
H306   H     0.98693   0.82631   0.28140   0.00000  Uiso   1.00
H307   H     0.69176   0.80248   0.38953   0.00000  Uiso   1.00
H308   H     0.66868   0.88356   0.43126   0.00000  Uiso   1.00
H309   H     0.79700   0.69055   0.40153   0.00000  Uiso   1.00
H310   H     0.66350   0.83746   0.33529   0.00000  Uiso   1.00
H311   H     0.55817   0.96686   0.47836   0.00000  Uiso   1.00
H312   H     0.82875   0.55988   0.41565   0.00000  Uiso   1.00
H313   H     0.54725   0.86968   0.27597   0.00000  Uiso   1.00
O314   O     0.25103   0.99758   0.50864   0.00000  Uiso   1.00
O315   O     0.60602   0.46365   0.42637   0.00000  Uiso   1.00
O316   O     0.23669   0.87009   0.24312   0.00000  Uiso   1.00
N317   N     0.13288   0.92258   0.47678   0.00000  Uiso   1.00
N318   N     0.38586   0.54209   0.41815   0.00000  Uiso   1.00
N319   N     0.12269   0.83170   0.28756   0.00000  Uiso   1.00
N320   N     0.43439   0.94592   0.47386   0.00000  Uiso   1.00
N321   N     0.68736   0.56542   0.41523   0.00000  Uiso   1.00
N322   N     0.42420   0.85503   0.28464   0.00000  Uiso   1.00
C323   C     0.31275   0.73656   0.89442   0.00000  Uiso   1.00
C324   C     0.25406   0.68699   0.91640   0.00000  Uiso   1.00
C325   C     0.37265   0.65832   0.93651   0.00000  Uiso   1.00
C326   C     0.29175   0.61416   0.95472   0.00000  Uiso   1.00
C327   C     0.22989   0.53948   0.98914   0.00000  Uiso   1.00
C328   C     0.18433   0.79186   0.90025   0.00000  Uiso   1.00
C329   C     0.24431   0.85136   0.90678   0.00000  Uiso   1.00
C330   C     0.10470   0.89548   0.91138   0.00000  Uiso   1.00
C331   C     0.93460   0.98362   0.92070   0.00000  Uiso   1.00
C332   C     0.25687   0.71204   0.86426   0.00000  Uiso   1.00
C333   C     0.37782   0.70443   0.84053   0.00000  Uiso   1.00
C334   C     0.29928   0.68135   0.81483   0.00000  Uiso   1.00
C335   C     0.24180   0.64555   0.76827   0.00000  Uiso   1.00
C336   C     0.95818   0.70912   0.89099   0.00000  Uiso   1.00
C337   C     0.06147   0.67209   0.91454   0.00000  Uiso   1.00
C338   C     0.98036   0.62796   0.93271   0.00000  Uiso   1.00
C339   C     0.09882   0.59923   0.95285   0.00000  Uiso   1.00
C340   C     0.99175   0.77696   0.89838   0.00000  Uiso   1.00
C341   C     0.85202   0.82100   0.90298   0.00000  Uiso   1.00
C342   C     0.91177   0.88055   0.90951   0.00000  Uiso   1.00
C343   C     0.06428   0.69713   0.86240   0.00000  Uiso   1.00
C344   C     0.98553   0.67407   0.83673   0.00000  Uiso   1.00
C345   C     0.10635   0.66642   0.81296   0.00000  Uiso   1.00
H346   H     0.46268   0.74817   0.89587   0.00000  Uiso   1.00
H347   H     0.52168   0.66987   0.93795   0.00000  Uiso   1.00
H348   H     0.39335   0.86288   0.90822   0.00000  Uiso   1.00
H349   H     0.52685   0.71597   0.84198   0.00000  Uiso   1.00
H350   H     0.50215   0.57651   0.98379   0.00000  Uiso   1.00
H351   H     0.23157   0.98348   0.92108   0.00000  Uiso   1.00
H352   H     0.51307   0.67369   0.78140   0.00000  Uiso   1.00
H353   H     0.80824   0.69752   0.88953   0.00000  Uiso   1.00
H354   H     0.83132   0.61644   0.93126   0.00000  Uiso   1.00
H355   H     0.70300   0.80945   0.90153   0.00000  Uiso   1.00
H356   H     0.83650   0.66254   0.83529   0.00000  Uiso   1.00
H357   H     0.94183   0.53314   0.97836   0.00000  Uiso   1.00
H358   H     0.67125   0.94012   0.91565   0.00000  Uiso   1.00
H359   H     0.95275   0.63032   0.77597   0.00000  Uiso   1.00
O360   O     0.24897   0.50242   0.00864   0.00000  Uiso   1.00
O361   O     0.89398   0.03635   0.92637   0.00000  Uiso   1.00
O362   O     0.26331   0.62991   0.74312   0.00000  Uiso   1.00
N363   N     0.36712   0.57742   0.97678   0.00000  Uiso   1.00
N364   N     0.11414   0.95791   0.91815   0.00000  Uiso   1.00
N365   N     0.37731   0.66830   0.78756   0.00000  Uiso   1.00
N366   N     0.06561   0.55408   0.97386   0.00000  Uiso   1.00
N367   N     0.81264   0.93458   0.91523   0.00000  Uiso   1.00
N368   N     0.07580   0.64497   0.78464   0.00000  Uiso   1.00
