data_job_02024
_audit_creation_date              2018-12-19
_audit_creation_method            'Materials Studio'
_symmetry_space_group_name_H-M    'P1'
_symmetry_Int_Tables_number       1
_symmetry_cell_setting            triclinic
loop_
_symmetry_equiv_pos_as_xyz
  x,y,z
_cell_length_a                    15.1689
_cell_length_b                    12.5200
_cell_length_c                    22.0943
_cell_angle_alpha                 90.0000
_cell_angle_beta                  109.9060
_cell_angle_gamma                 90.0000
loop_
_atom_site_label
_atom_site_type_symbol
_atom_site_fract_x
_atom_site_fract_y
_atom_site_fract_z
_atom_site_U_iso_or_equiv
_atom_site_adp_type
_atom_site_occupancy
C1     C     0.09676   0.25329   0.86910   0.00000  Uiso   1.00
C2     C     0.17753   0.24352   0.84311   0.00000  Uiso   1.00
C3     C     0.17190   0.26132   0.77990   0.00000  Uiso   1.00
C4     C     0.25369   0.24819   0.76577   0.00000  Uiso   1.00
C5     C     0.36628   0.23750   0.71819   0.00000  Uiso   1.00
C6     C     0.09025   0.14561   0.89956   0.00000  Uiso   1.00
C7     C     0.01123   0.08110   0.88382   0.00000  Uiso   1.00
C8     C     0.01955   0.98556   0.91722   0.00000  Uiso   1.00
C9     C     0.99661   0.82290   0.95731   0.00000  Uiso   1.00
C10    C     0.12888   0.33307   0.92446   0.00000  Uiso   1.00
C11    C     0.08233   0.42618   0.92967   0.00000  Uiso   1.00
C12    C     0.12316   0.48845   0.98404   0.00000  Uiso   1.00
C13    C     0.16019   0.61686   0.06280   0.00000  Uiso   1.00
C14    C     0.25203   0.19832   0.95640   0.00000  Uiso   1.00
C15    C     0.26187   0.21365   0.89053   0.00000  Uiso   1.00
C16    C     0.34369   0.20050   0.87648   0.00000  Uiso   1.00
C17    C     0.33818   0.21828   0.81327   0.00000  Uiso   1.00
C18    C     0.17459   0.11575   0.94697   0.00000  Uiso   1.00
C19    C     0.18302   0.02028   0.98040   0.00000  Uiso   1.00
C20    C     0.10404   0.95565   0.96472   0.00000  Uiso   1.00
C21    C     0.21322   0.30322   0.97188   0.00000  Uiso   1.00
C22    C     0.25412   0.36536   0.02625   0.00000  Uiso   1.00
C23    C     0.20764   0.45854   0.03154   0.00000  Uiso   1.00
H24    H     0.03109   0.27653   0.83219   0.00000  Uiso   1.00
H25    H     0.10662   0.28441   0.74322   0.00000  Uiso   1.00
H26    H     0.94598   0.10423   0.84713   0.00000  Uiso   1.00
H27    H     0.01707   0.44925   0.89297   0.00000  Uiso   1.00
H28    H     0.22754   0.27995   0.66549   0.00000  Uiso   1.00
H29    H     0.88880   0.90004   0.88460   0.00000  Uiso   1.00
H30    H     0.03870   0.62759   0.98127   0.00000  Uiso   1.00
H31    H     0.31769   0.17507   0.99332   0.00000  Uiso   1.00
H32    H     0.40894   0.17739   0.91319   0.00000  Uiso   1.00
H33    H     0.24830   0.99721   0.01709   0.00000  Uiso   1.00
H34    H     0.31938   0.34223   0.06293   0.00000  Uiso   1.00
H35    H     0.47291   0.19308   0.80344   0.00000  Uiso   1.00
H36    H     0.13417   0.81317   0.02255   0.00000  Uiso   1.00
H37    H     0.28408   0.54072   0.11921   0.00000  Uiso   1.00
O38    O     0.40508   0.23983   0.67884   0.00000  Uiso   1.00
O39    O     0.96066   0.74143   0.96632   0.00000  Uiso   1.00
O40    O     0.15733   0.69595   0.09313   0.00000  Uiso   1.00
N41    N     0.27277   0.25921   0.70896   0.00000  Uiso   1.00
N42    N     0.95607   0.90401   0.91381   0.00000  Uiso   1.00
N43    N     0.09621   0.58419   0.00419   0.00000  Uiso   1.00
N44    N     0.40480   0.21246   0.78318   0.00000  Uiso   1.00
N45    N     0.08811   0.85727   0.98803   0.00000  Uiso   1.00
N46    N     0.22824   0.53745   0.07841   0.00000  Uiso   1.00
C47    C     0.90324   0.25329   0.63090   0.00000  Uiso   1.00
C48    C     0.82247   0.24352   0.65689   0.00000  Uiso   1.00
C49    C     0.82810   0.26132   0.72010   0.00000  Uiso   1.00
C50    C     0.74631   0.24819   0.73423   0.00000  Uiso   1.00
C51    C     0.63372   0.23750   0.78181   0.00000  Uiso   1.00
C52    C     0.90975   0.14561   0.60044   0.00000  Uiso   1.00
C53    C     0.98877   0.08110   0.61618   0.00000  Uiso   1.00
C54    C     0.98045   0.98556   0.58278   0.00000  Uiso   1.00
C55    C     0.00339   0.82290   0.54269   0.00000  Uiso   1.00
C56    C     0.87112   0.33307   0.57554   0.00000  Uiso   1.00
C57    C     0.91767   0.42618   0.57033   0.00000  Uiso   1.00
C58    C     0.87684   0.48845   0.51596   0.00000  Uiso   1.00
C59    C     0.83981   0.61686   0.43720   0.00000  Uiso   1.00
C60    C     0.74797   0.19832   0.54360   0.00000  Uiso   1.00
C61    C     0.73813   0.21365   0.60947   0.00000  Uiso   1.00
C62    C     0.65631   0.20050   0.62352   0.00000  Uiso   1.00
C63    C     0.66182   0.21828   0.68673   0.00000  Uiso   1.00
C64    C     0.82541   0.11575   0.55303   0.00000  Uiso   1.00
C65    C     0.81698   0.02028   0.51960   0.00000  Uiso   1.00
C66    C     0.89596   0.95565   0.53528   0.00000  Uiso   1.00
C67    C     0.78678   0.30322   0.52812   0.00000  Uiso   1.00
C68    C     0.74588   0.36536   0.47375   0.00000  Uiso   1.00
C69    C     0.79236   0.45854   0.46846   0.00000  Uiso   1.00
H70    H     0.96891   0.27653   0.66781   0.00000  Uiso   1.00
H71    H     0.89338   0.28441   0.75678   0.00000  Uiso   1.00
H72    H     0.05402   0.10423   0.65287   0.00000  Uiso   1.00
H73    H     0.98293   0.44925   0.60703   0.00000  Uiso   1.00
H74    H     0.77246   0.27995   0.83451   0.00000  Uiso   1.00
H75    H     0.11120   0.90004   0.61540   0.00000  Uiso   1.00
H76    H     0.96130   0.62759   0.51873   0.00000  Uiso   1.00
H77    H     0.68231   0.17507   0.50668   0.00000  Uiso   1.00
H78    H     0.59106   0.17739   0.58681   0.00000  Uiso   1.00
H79    H     0.75170   0.99721   0.48291   0.00000  Uiso   1.00
H80    H     0.68062   0.34223   0.43707   0.00000  Uiso   1.00
H81    H     0.52709   0.19308   0.69656   0.00000  Uiso   1.00
H82    H     0.86583   0.81317   0.47745   0.00000  Uiso   1.00
H83    H     0.71592   0.54072   0.38079   0.00000  Uiso   1.00
O84    O     0.59492   0.23983   0.82116   0.00000  Uiso   1.00
O85    O     0.03934   0.74143   0.53368   0.00000  Uiso   1.00
O86    O     0.84267   0.69595   0.40687   0.00000  Uiso   1.00
N87    N     0.72723   0.25921   0.79104   0.00000  Uiso   1.00
N88    N     0.04393   0.90401   0.58619   0.00000  Uiso   1.00
N89    N     0.90379   0.58419   0.49581   0.00000  Uiso   1.00
N90    N     0.59520   0.21246   0.71682   0.00000  Uiso   1.00
N91    N     0.91189   0.85727   0.51197   0.00000  Uiso   1.00
N92    N     0.77176   0.53745   0.42159   0.00000  Uiso   1.00
C93    C     0.90324   0.74671   0.13090   0.00000  Uiso   1.00
C94    C     0.82247   0.75648   0.15689   0.00000  Uiso   1.00
C95    C     0.82810   0.73868   0.22010   0.00000  Uiso   1.00
C96    C     0.74631   0.75181   0.23423   0.00000  Uiso   1.00
C97    C     0.63372   0.76250   0.28181   0.00000  Uiso   1.00
C98    C     0.90975   0.85439   0.10044   0.00000  Uiso   1.00
C99    C     0.98877   0.91890   0.11618   0.00000  Uiso   1.00
C100   C     0.98045   0.01444   0.08278   0.00000  Uiso   1.00
C101   C     0.00339   0.17710   0.04269   0.00000  Uiso   1.00
C102   C     0.87112   0.66693   0.07554   0.00000  Uiso   1.00
C103   C     0.91767   0.57382   0.07033   0.00000  Uiso   1.00
C104   C     0.87684   0.51155   0.01596   0.00000  Uiso   1.00
C105   C     0.83981   0.38314   0.93720   0.00000  Uiso   1.00
C106   C     0.74797   0.80168   0.04360   0.00000  Uiso   1.00
C107   C     0.73813   0.78635   0.10947   0.00000  Uiso   1.00
C108   C     0.65631   0.79950   0.12352   0.00000  Uiso   1.00
C109   C     0.66182   0.78172   0.18673   0.00000  Uiso   1.00
C110   C     0.82541   0.88425   0.05303   0.00000  Uiso   1.00
C111   C     0.81698   0.97972   0.01960   0.00000  Uiso   1.00
C112   C     0.89596   0.04435   0.03528   0.00000  Uiso   1.00
C113   C     0.78678   0.69678   0.02812   0.00000  Uiso   1.00
C114   C     0.74588   0.63464   0.97375   0.00000  Uiso   1.00
C115   C     0.79236   0.54146   0.96846   0.00000  Uiso   1.00
H116   H     0.96891   0.72347   0.16781   0.00000  Uiso   1.00
H117   H     0.89338   0.71559   0.25678   0.00000  Uiso   1.00
H118   H     0.05402   0.89577   0.15287   0.00000  Uiso   1.00
H119   H     0.98293   0.55075   0.10703   0.00000  Uiso   1.00
H120   H     0.77246   0.72005   0.33451   0.00000  Uiso   1.00
H121   H     0.11120   0.09996   0.11540   0.00000  Uiso   1.00
H122   H     0.96130   0.37241   0.01873   0.00000  Uiso   1.00
H123   H     0.68231   0.82493   0.00668   0.00000  Uiso   1.00
H124   H     0.59106   0.82261   0.08681   0.00000  Uiso   1.00
H125   H     0.75170   0.00279   0.98291   0.00000  Uiso   1.00
H126   H     0.68062   0.65777   0.93707   0.00000  Uiso   1.00
H127   H     0.52709   0.80692   0.19656   0.00000  Uiso   1.00
H128   H     0.86583   0.18683   0.97745   0.00000  Uiso   1.00
H129   H     0.71592   0.45928   0.88079   0.00000  Uiso   1.00
O130   O     0.59492   0.76017   0.32116   0.00000  Uiso   1.00
O131   O     0.03934   0.25857   0.03368   0.00000  Uiso   1.00
O132   O     0.84267   0.30405   0.90687   0.00000  Uiso   1.00
N133   N     0.72723   0.74079   0.29104   0.00000  Uiso   1.00
N134   N     0.04393   0.09599   0.08619   0.00000  Uiso   1.00
N135   N     0.90379   0.41581   0.99581   0.00000  Uiso   1.00
N136   N     0.59520   0.78754   0.21682   0.00000  Uiso   1.00
N137   N     0.91189   0.14273   0.01197   0.00000  Uiso   1.00
N138   N     0.77176   0.46255   0.92159   0.00000  Uiso   1.00
C139   C     0.09676   0.74671   0.36910   0.00000  Uiso   1.00
C140   C     0.17753   0.75648   0.34311   0.00000  Uiso   1.00
C141   C     0.17190   0.73868   0.27990   0.00000  Uiso   1.00
C142   C     0.25369   0.75181   0.26577   0.00000  Uiso   1.00
C143   C     0.36628   0.76250   0.21819   0.00000  Uiso   1.00
C144   C     0.09025   0.85439   0.39956   0.00000  Uiso   1.00
C145   C     0.01123   0.91890   0.38382   0.00000  Uiso   1.00
C146   C     0.01955   0.01444   0.41722   0.00000  Uiso   1.00
C147   C     0.99661   0.17710   0.45731   0.00000  Uiso   1.00
C148   C     0.12888   0.66693   0.42446   0.00000  Uiso   1.00
C149   C     0.08233   0.57382   0.42967   0.00000  Uiso   1.00
C150   C     0.12316   0.51155   0.48404   0.00000  Uiso   1.00
C151   C     0.16019   0.38314   0.56280   0.00000  Uiso   1.00
C152   C     0.25203   0.80168   0.45640   0.00000  Uiso   1.00
C153   C     0.26187   0.78635   0.39053   0.00000  Uiso   1.00
C154   C     0.34369   0.79950   0.37648   0.00000  Uiso   1.00
C155   C     0.33818   0.78172   0.31327   0.00000  Uiso   1.00
C156   C     0.17459   0.88425   0.44697   0.00000  Uiso   1.00
C157   C     0.18302   0.97972   0.48040   0.00000  Uiso   1.00
C158   C     0.10404   0.04435   0.46472   0.00000  Uiso   1.00
C159   C     0.21322   0.69678   0.47188   0.00000  Uiso   1.00
C160   C     0.25412   0.63464   0.52625   0.00000  Uiso   1.00
C161   C     0.20764   0.54146   0.53154   0.00000  Uiso   1.00
H162   H     0.03109   0.72347   0.33219   0.00000  Uiso   1.00
H163   H     0.10662   0.71559   0.24322   0.00000  Uiso   1.00
H164   H     0.94598   0.89577   0.34713   0.00000  Uiso   1.00
H165   H     0.01707   0.55075   0.39297   0.00000  Uiso   1.00
H166   H     0.22754   0.72005   0.16549   0.00000  Uiso   1.00
H167   H     0.88880   0.09996   0.38460   0.00000  Uiso   1.00
H168   H     0.03870   0.37241   0.48127   0.00000  Uiso   1.00
H169   H     0.31769   0.82493   0.49332   0.00000  Uiso   1.00
H170   H     0.40894   0.82261   0.41319   0.00000  Uiso   1.00
H171   H     0.24830   0.00279   0.51709   0.00000  Uiso   1.00
H172   H     0.31938   0.65777   0.56293   0.00000  Uiso   1.00
H173   H     0.47291   0.80692   0.30344   0.00000  Uiso   1.00
H174   H     0.13417   0.18683   0.52255   0.00000  Uiso   1.00
H175   H     0.28408   0.45928   0.61921   0.00000  Uiso   1.00
O176   O     0.40508   0.76017   0.17884   0.00000  Uiso   1.00
O177   O     0.96066   0.25857   0.46632   0.00000  Uiso   1.00
O178   O     0.15733   0.30405   0.59313   0.00000  Uiso   1.00
N179   N     0.27277   0.74079   0.20896   0.00000  Uiso   1.00
N180   N     0.95607   0.09599   0.41381   0.00000  Uiso   1.00
N181   N     0.09621   0.41581   0.50419   0.00000  Uiso   1.00
N182   N     0.40480   0.78754   0.28318   0.00000  Uiso   1.00
N183   N     0.08811   0.14273   0.48803   0.00000  Uiso   1.00
N184   N     0.22824   0.46255   0.57841   0.00000  Uiso   1.00
