data_job_06594
_audit_creation_date              2018-12-19
_audit_creation_method            'Materials Studio'
_symmetry_space_group_name_H-M    'P1'
_symmetry_Int_Tables_number       1
_symmetry_cell_setting            triclinic
loop_
_symmetry_equiv_pos_as_xyz
  x,y,z
_cell_length_a                    19.3199
_cell_length_b                    20.8871
_cell_length_c                    22.2727
_cell_angle_alpha                 108.3246
_cell_angle_beta                  99.1543
_cell_angle_gamma                 108.6480
loop_
_atom_site_label
_atom_site_type_symbol
_atom_site_fract_x
_atom_site_fract_y
_atom_site_fract_z
_atom_site_U_iso_or_equiv
_atom_site_adp_type
_atom_site_occupancy
C1     C     0.95405   0.23903   0.36858   0.00000  Uiso   1.00
C2     C     0.98027   0.30789   0.35363   0.00000  Uiso   1.00
C3     C     0.94628   0.35814   0.36131   0.00000  Uiso   1.00
C4     C     0.97885   0.41755   0.34492   0.00000  Uiso   1.00
C5     C     0.00977   0.52312   0.32520   0.00000  Uiso   1.00
C6     C     0.94016   0.17511   0.30489   0.00000  Uiso   1.00
C7     C     0.87245   0.11372   0.27161   0.00000  Uiso   1.00
C8     C     0.87126   0.06135   0.21420   0.00000  Uiso   1.00
C9     C     0.83992   0.96075   0.11885   0.00000  Uiso   1.00
C10    C     0.02278   0.24513   0.41789   0.00000  Uiso   1.00
C11    C     0.02453   0.24259   0.47961   0.00000  Uiso   1.00
C12    C     0.09289   0.24915   0.51733   0.00000  Uiso   1.00
C13    C     0.18983   0.25727   0.59742   0.00000  Uiso   1.00
C14    C     0.07234   0.25516   0.32579   0.00000  Uiso   1.00
C15    C     0.04452   0.31665   0.33038   0.00000  Uiso   1.00
C16    C     0.07716   0.37600   0.31397   0.00000  Uiso   1.00
C17    C     0.04322   0.42633   0.32163   0.00000  Uiso   1.00
C18    C     0.00441   0.18387   0.28165   0.00000  Uiso   1.00
C19    C     0.00333   0.13157   0.22427   0.00000  Uiso   1.00
C20    C     0.93563   0.07012   0.19091   0.00000  Uiso   1.00
C21    C     0.08703   0.25390   0.39465   0.00000  Uiso   1.00
C22    C     0.15541   0.26045   0.43227   0.00000  Uiso   1.00
C23    C     0.15726   0.25793   0.49404   0.00000  Uiso   1.00
H24    H     0.90402   0.23220   0.38667   0.00000  Uiso   1.00
H25    H     0.89655   0.35134   0.37930   0.00000  Uiso   1.00
H26    H     0.82274   0.10695   0.28962   0.00000  Uiso   1.00
H27    H     0.97479   0.23581   0.49758   0.00000  Uiso   1.00
H28    H     0.91658   0.48728   0.36085   0.00000  Uiso   1.00
H29    H     0.76095   0.97196   0.17176   0.00000  Uiso   1.00
H30    H     0.08159   0.24368   0.61030   0.00000  Uiso   1.00
H31    H     0.12237   0.26199   0.30769   0.00000  Uiso   1.00
H32    H     0.12688   0.38276   0.29599   0.00000  Uiso   1.00
H33    H     0.05306   0.13837   0.20630   0.00000  Uiso   1.00
H34    H     0.20512   0.26723   0.41427   0.00000  Uiso   1.00
H35    H     0.10352   0.51278   0.29322   0.00000  Uiso   1.00
H36    H     0.94789   0.99746   0.10414   0.00000  Uiso   1.00
H37    H     0.26853   0.26919   0.54268   0.00000  Uiso   1.00
O38    O     0.00906   0.57893   0.32074   0.00000  Uiso   1.00
O39    O     0.80488   0.90285   0.07267   0.00000  Uiso   1.00
O40    O     0.22556   0.25935   0.64803   0.00000  Uiso   1.00
N41    N     0.95997   0.47671   0.34655   0.00000  Uiso   1.00
N42    N     0.81446   0.99493   0.16976   0.00000  Uiso   1.00
N43    N     0.11422   0.24894   0.57975   0.00000  Uiso   1.00
N44    N     0.06056   0.49044   0.31017   0.00000  Uiso   1.00
N45    N     0.91505   0.00865   0.13337   0.00000  Uiso   1.00
N46    N     0.21481   0.26267   0.54337   0.00000  Uiso   1.00
C47    C     0.02514   0.07143   0.73456   0.00000  Uiso   1.00
C48    C     0.04999   0.01849   0.68742   0.00000  Uiso   1.00
C49    C     0.00817   0.97081   0.62290   0.00000  Uiso   1.00
C50    C     0.04084   0.92682   0.58788   0.00000  Uiso   1.00
C51    C     0.06846   0.84404   0.51035   0.00000  Uiso   1.00
C52    C     0.02813   0.05290   0.79566   0.00000  Uiso   1.00
C53    C     0.96793   0.03417   0.82215   0.00000  Uiso   1.00
C54    C     0.98220   0.01916   0.87825   0.00000  Uiso   1.00
C55    C     0.97590   0.98985   0.96879   0.00000  Uiso   1.00
C56    C     0.08802   0.14747   0.75662   0.00000  Uiso   1.00
C57    C     0.07819   0.20826   0.75030   0.00000  Uiso   1.00
C58    C     0.14289   0.27287   0.77355   0.00000  Uiso   1.00
C59    C     0.22959   0.39040   0.80348   0.00000  Uiso   1.00
C60    C     0.15752   0.07810   0.78711   0.00000  Uiso   1.00
C61    C     0.12189   0.02211   0.71597   0.00000  Uiso   1.00
C62    C     0.15463   0.97819   0.68104   0.00000  Uiso   1.00
C63    C     0.11287   0.93045   0.61647   0.00000  Uiso   1.00
C64    C     0.10003   0.05652   0.82420   0.00000  Uiso   1.00
C65    C     0.11439   0.04155   0.88029   0.00000  Uiso   1.00
C66    C     0.05423   0.02279   0.90685   0.00000  Uiso   1.00
C67    C     0.15993   0.15109   0.78516   0.00000  Uiso   1.00
C68    C     0.22465   0.21563   0.80844   0.00000  Uiso   1.00
C69    C     0.21492   0.27650   0.80215   0.00000  Uiso   1.00
H70    H     0.96916   0.06861   0.71235   0.00000  Uiso   1.00
H71    H     0.95252   0.96802   0.60083   0.00000  Uiso   1.00
H72    H     0.91229   0.03138   0.80005   0.00000  Uiso   1.00
H73    H     0.02254   0.20543   0.72821   0.00000  Uiso   1.00
H74    H     0.96577   0.85807   0.48979   0.00000  Uiso   1.00
H75    H     0.88096   0.99168   0.90987   0.00000  Uiso   1.00
H76    H     0.11343   0.35872   0.75838   0.00000  Uiso   1.00
H77    H     0.21350   0.08092   0.80934   0.00000  Uiso   1.00
H78    H     0.21028   0.98101   0.70314   0.00000  Uiso   1.00
H79    H     0.17004   0.04436   0.90236   0.00000  Uiso   1.00
H80    H     0.28029   0.21841   0.83052   0.00000  Uiso   1.00
H81    H     0.17497   0.86861   0.57283   0.00000  Uiso   1.00
H82    H     0.09015   0.00222   0.99291   0.00000  Uiso   1.00
H83    H     0.32263   0.36926   0.84142   0.00000  Uiso   1.00
O84    O     0.06383   0.79737   0.45971   0.00000  Uiso   1.00
O85    O     0.95255   0.97268   0.01084   0.00000  Uiso   1.00
O86    O     0.25755   0.45422   0.81209   0.00000  Uiso   1.00
N87    N     0.01546   0.87428   0.52390   0.00000  Uiso   1.00
N88    N     0.93615   0.99918   0.91665   0.00000  Uiso   1.00
N89    N     0.15349   0.34233   0.77503   0.00000  Uiso   1.00
N90    N     0.12803   0.87995   0.56858   0.00000  Uiso   1.00
N91    N     0.04872   0.00485   0.96133   0.00000  Uiso   1.00
N92    N     0.26606   0.34801   0.81972   0.00000  Uiso   1.00
C93    C     0.00294   0.62578   0.95262   0.00000  Uiso   1.00
C94    C     0.99835   0.60252   0.01076   0.00000  Uiso   1.00
C95    C     0.97077   0.53077   0.00664   0.00000  Uiso   1.00
C96    C     0.97135   0.52097   0.06553   0.00000  Uiso   1.00
C97    C     0.96005   0.47575   0.14656   0.00000  Uiso   1.00
C98    C     0.95852   0.67486   0.95644   0.00000  Uiso   1.00
C99    C     0.89746   0.66392   0.90665   0.00000  Uiso   1.00
C100   C     0.86450   0.71503   0.91981   0.00000  Uiso   1.00
C101   C     0.79141   0.78214   0.91649   0.00000  Uiso   1.00
C102   C     0.08624   0.67549   0.96734   0.00000  Uiso   1.00
C103   C     0.13257   0.66509   0.92670   0.00000  Uiso   1.00
C104   C     0.20715   0.71674   0.94902   0.00000  Uiso   1.00
C105   C     0.33237   0.78482   0.96262   0.00000  Uiso   1.00
C106   C     0.05300   0.73599   0.06452   0.00000  Uiso   1.00
C107   C     0.02554   0.66238   0.07154   0.00000  Uiso   1.00
C108   C     0.02616   0.65269   0.13045   0.00000  Uiso   1.00
C109   C     0.99859   0.58093   0.12642   0.00000  Uiso   1.00
C110   C     0.98571   0.73471   0.01722   0.00000  Uiso   1.00
C111   C     0.95285   0.78585   0.03045   0.00000  Uiso   1.00
C112   C     0.89175   0.77499   0.98070   0.00000  Uiso   1.00
C113   C     0.11344   0.73534   0.02812   0.00000  Uiso   1.00
C114   C     0.18796   0.78702   0.05051   0.00000  Uiso   1.00
C115   C     0.23440   0.77671   0.00991   0.00000  Uiso   1.00
H116   H     0.98176   0.57918   0.90530   0.00000  Uiso   1.00
H117   H     0.94973   0.48446   0.95959   0.00000  Uiso   1.00
H118   H     0.87643   0.61760   0.85961   0.00000  Uiso   1.00
H119   H     0.11151   0.61877   0.87967   0.00000  Uiso   1.00
H120   H     0.92617   0.40583   0.04659   0.00000  Uiso   1.00
H121   H     0.77164   0.68659   0.83577   0.00000  Uiso   1.00
H122   H     0.26735   0.68905   0.87805   0.00000  Uiso   1.00
H123   H     0.07417   0.78259   0.11184   0.00000  Uiso   1.00
H124   H     0.04721   0.69903   0.17748   0.00000  Uiso   1.00
H125   H     0.97391   0.83217   0.07750   0.00000  Uiso   1.00
H126   H     0.20899   0.83333   0.09755   0.00000  Uiso   1.00
H127   H     0.00529   0.57999   0.22343   0.00000  Uiso   1.00
H128   H     0.85075   0.86074   0.01261   0.00000  Uiso   1.00
H129   H     0.34647   0.86320   0.05489   0.00000  Uiso   1.00
O130   O     0.94630   0.43427   0.17446   0.00000  Uiso   1.00
O131   O     0.74357   0.80261   0.89787   0.00000  Uiso   1.00
O132   O     0.39393   0.80584   0.95334   0.00000  Uiso   1.00
N133   N     0.94851   0.45829   0.07921   0.00000  Uiso   1.00
N134   N     0.80402   0.72077   0.88211   0.00000  Uiso   1.00
N135   N     0.26746   0.72308   0.92162   0.00000  Uiso   1.00
N136   N     0.99108   0.55200   0.17436   0.00000  Uiso   1.00
N137   N     0.84659   0.81448   0.97726   0.00000  Uiso   1.00
N138   N     0.31003   0.81679   0.01678   0.00000  Uiso   1.00
C139   C     0.58028   0.09285   0.92629   0.00000  Uiso   1.00
C140   C     0.59984   0.03265   0.93997   0.00000  Uiso   1.00
C141   C     0.54967   0.97273   0.94699   0.00000  Uiso   1.00
C142   C     0.57863   0.92378   0.95934   0.00000  Uiso   1.00
C143   C     0.59738   0.82866   0.97978   0.00000  Uiso   1.00
C144   C     0.60147   0.09437   0.86351   0.00000  Uiso   1.00
C145   C     0.55266   0.08636   0.80624   0.00000  Uiso   1.00
C146   C     0.58299   0.08938   0.75423   0.00000  Uiso   1.00
C147   C     0.60428   0.09015   0.65597   0.00000  Uiso   1.00
C148   C     0.63590   0.16498   0.98185   0.00000  Uiso   1.00
C149   C     0.61605   0.21634   0.02408   0.00000  Uiso   1.00
C150   C     0.67538   0.27882   0.07169   0.00000  Uiso   1.00
C151   C     0.75013   0.38921   0.15717   0.00000  Uiso   1.00
C152   C     0.72093   0.11248   0.93574   0.00000  Uiso   1.00
C153   C     0.67624   0.04331   0.94511   0.00000  Uiso   1.00
C154   C     0.70529   0.99444   0.95745   0.00000  Uiso   1.00
C155   C     0.65516   0.93446   0.96449   0.00000  Uiso   1.00
C156   C     0.67786   0.10503   0.86864   0.00000  Uiso   1.00
C157   C     0.70827   0.10808   0.81671   0.00000  Uiso   1.00
C158   C     0.65953   0.10007   0.75937   0.00000  Uiso   1.00
C159   C     0.71230   0.17564   0.98699   0.00000  Uiso   1.00
C160   C     0.77167   0.23806   0.03454   0.00000  Uiso   1.00
C161   C     0.75191   0.28950   0.07683   0.00000  Uiso   1.00
H162   H     0.52080   0.08455   0.92228   0.00000  Uiso   1.00
H163   H     0.49055   0.96449   0.94301   0.00000  Uiso   1.00
H164   H     0.49355   0.07812   0.80229   0.00000  Uiso   1.00
H165   H     0.55693   0.20807   0.02009   0.00000  Uiso   1.00
H166   H     0.49070   0.83607   0.96823   0.00000  Uiso   1.00
H167   H     0.49702   0.07568   0.67151   0.00000  Uiso   1.00
H168   H     0.63068   0.34973   0.13079   0.00000  Uiso   1.00
H169   H     0.78041   0.12078   0.93974   0.00000  Uiso   1.00
H170   H     0.76441   0.00271   0.96143   0.00000  Uiso   1.00
H171   H     0.76740   0.11633   0.82070   0.00000  Uiso   1.00
H172   H     0.83078   0.24629   0.03850   0.00000  Uiso   1.00
H173   H     0.71297   0.86709   0.98317   0.00000  Uiso   1.00
H174   H     0.71929   0.10670   0.68646   0.00000  Uiso   1.00
H175   H     0.85295   0.38074   0.14573   0.00000  Uiso   1.00
O176   O     0.58662   0.77324   0.98963   0.00000  Uiso   1.00
O177   O     0.59491   0.08761   0.60035   0.00000  Uiso   1.00
O178   O     0.77026   0.44715   0.20291   0.00000  Uiso   1.00
N179   N     0.54521   0.85958   0.96878   0.00000  Uiso   1.00
N180   N     0.55111   0.08359   0.69137   0.00000  Uiso   1.00
N181   N     0.67607   0.33981   0.12074   0.00000  Uiso   1.00
N182   N     0.66481   0.87627   0.97682   0.00000  Uiso   1.00
N183   N     0.67072   0.10028   0.69941   0.00000  Uiso   1.00
N184   N     0.79567   0.35650   0.12878   0.00000  Uiso   1.00
C185   C     0.37798   0.51803   0.14263   0.00000  Uiso   1.00
C186   C     0.40121   0.55159   0.09353   0.00000  Uiso   1.00
C187   C     0.36137   0.52503   0.02733   0.00000  Uiso   1.00
C188   C     0.39205   0.56356   0.99067   0.00000  Uiso   1.00
C189   C     0.41774   0.60613   0.91009   0.00000  Uiso   1.00
C190   C     0.37321   0.57892   0.19940   0.00000  Uiso   1.00
C191   C     0.30983   0.57532   0.22221   0.00000  Uiso   1.00
C192   C     0.31694   0.63685   0.27468   0.00000  Uiso   1.00
C193   C     0.29918   0.72182   0.35850   0.00000  Uiso   1.00
C194   C     0.44541   0.50286   0.17103   0.00000  Uiso   1.00
C195   C     0.44273   0.43531   0.17000   0.00000  Uiso   1.00
C196   C     0.51063   0.43281   0.19859   0.00000  Uiso   1.00
C197   C     0.60496   0.39969   0.23834   0.00000  Uiso   1.00
C198   C     0.50330   0.63369   0.19526   0.00000  Uiso   1.00
C199   C     0.46928   0.61441   0.12212   0.00000  Uiso   1.00
C200   C     0.50002   0.65299   0.08555   0.00000  Uiso   1.00
C201   C     0.46024   0.62649   0.01930   0.00000  Uiso   1.00
C202   C     0.44127   0.64173   0.22799   0.00000  Uiso   1.00
C203   C     0.44848   0.70328   0.28043   0.00000  Uiso   1.00
C204   C     0.38513   0.69978   0.30332   0.00000  Uiso   1.00
C205   C     0.51348   0.56567   0.19961   0.00000  Uiso   1.00
C206   C     0.58138   0.56327   0.22821   0.00000  Uiso   1.00
C207   C     0.57882   0.49574   0.22722   0.00000  Uiso   1.00
H208   H     0.32499   0.46913   0.12038   0.00000  Uiso   1.00
H209   H     0.30869   0.47642   0.00523   0.00000  Uiso   1.00
H210   H     0.25717   0.52670   0.20009   0.00000  Uiso   1.00
H211   H     0.39005   0.38671   0.14787   0.00000  Uiso   1.00
H212   H     0.32063   0.51221   0.89017   0.00000  Uiso   1.00
H213   H     0.21199   0.61823   0.30105   0.00000  Uiso   1.00
H214   H     0.49220   0.32304   0.19095   0.00000  Uiso   1.00
H215   H     0.55630   0.68260   0.21751   0.00000  Uiso   1.00
H216   H     0.55270   0.70160   0.10768   0.00000  Uiso   1.00
H217   H     0.50117   0.75188   0.30254   0.00000  Uiso   1.00
H218   H     0.63405   0.61190   0.25033   0.00000  Uiso   1.00
H219   H     0.51867   0.69498   0.97333   0.00000  Uiso   1.00
H220   H     0.41003   0.80100   0.38421   0.00000  Uiso   1.00
H221   H     0.69024   0.50581   0.27411   0.00000  Uiso   1.00
O222   O     0.41310   0.61226   0.85776   0.00000  Uiso   1.00
O223   O     0.27057   0.75134   0.39682   0.00000  Uiso   1.00
O224   O     0.63819   0.36406   0.25237   0.00000  Uiso   1.00
N225   N     0.36774   0.55261   0.92481   0.00000  Uiso   1.00
N226   N     0.26617   0.65173   0.30896   0.00000  Uiso   1.00
N227   N     0.52813   0.37576   0.20604   0.00000  Uiso   1.00
N228   N     0.47431   0.65096   0.96956   0.00000  Uiso   1.00
N229   N     0.37273   0.75008   0.35370   0.00000  Uiso   1.00
N230   N     0.63469   0.47411   0.25078   0.00000  Uiso   1.00
C231   C     0.47519   0.27354   0.41187   0.00000  Uiso   1.00
C232   C     0.44456   0.31753   0.46131   0.00000  Uiso   1.00
C233   C     0.38224   0.33483   0.44563   0.00000  Uiso   1.00
C234   C     0.36330   0.37554   0.49798   0.00000  Uiso   1.00
C235   C     0.30935   0.44038   0.56476   0.00000  Uiso   1.00
C236   C     0.47507   0.20928   0.43059   0.00000  Uiso   1.00
C237   C     0.43841   0.13557   0.38908   0.00000  Uiso   1.00
C238   C     0.44516   0.08516   0.41557   0.00000  Uiso   1.00
C239   C     0.43862   0.98194   0.43465   0.00000  Uiso   1.00
C240   C     0.55883   0.32228   0.42653   0.00000  Uiso   1.00
C241   C     0.59260   0.34355   0.38161   0.00000  Uiso   1.00
C242   C     0.66988   0.38826   0.40468   0.00000  Uiso   1.00
C243   C     0.79338   0.46048   0.41744   0.00000  Uiso   1.00
C244   C     0.55239   0.31509   0.53271   0.00000  Uiso   1.00
C245   C     0.48649   0.34009   0.52694   0.00000  Uiso   1.00
C246   C     0.46765   0.38080   0.57933   0.00000  Uiso   1.00
C247   C     0.40531   0.39815   0.56373   0.00000  Uiso   1.00
C248   C     0.51700   0.23185   0.49622   0.00000  Uiso   1.00
C249   C     0.52382   0.18154   0.52278   0.00000  Uiso   1.00
C250   C     0.48717   0.10776   0.48133   0.00000  Uiso   1.00
C251   C     0.60076   0.34484   0.49216   0.00000  Uiso   1.00
C252   C     0.67801   0.38952   0.51530   0.00000  Uiso   1.00
C253   C     0.71188   0.41087   0.47043   0.00000  Uiso   1.00
H254   H     0.44254   0.25597   0.36077   0.00000  Uiso   1.00
H255   H     0.34980   0.31735   0.39483   0.00000  Uiso   1.00
H256   H     0.40597   0.11812   0.33829   0.00000  Uiso   1.00
H257   H     0.56013   0.32608   0.33082   0.00000  Uiso   1.00
H258   H     0.26545   0.39533   0.46154   0.00000  Uiso   1.00
H259   H     0.38391   0.97525   0.34232   0.00000  Uiso   1.00
H260   H     0.70899   0.41376   0.32656   0.00000  Uiso   1.00
H261   H     0.58503   0.33266   0.58381   0.00000  Uiso   1.00
H262   H     0.50011   0.39825   0.63011   0.00000  Uiso   1.00
H263   H     0.55627   0.19902   0.57357   0.00000  Uiso   1.00
H264   H     0.71044   0.40698   0.56610   0.00000  Uiso   1.00
H265   H     0.38745   0.46099   0.65251   0.00000  Uiso   1.00
H266   H     0.50590   0.04091   0.53328   0.00000  Uiso   1.00
H267   H     0.83098   0.47942   0.51752   0.00000  Uiso   1.00
O268   O     0.26800   0.46990   0.58346   0.00000  Uiso   1.00
O269   O     0.42342   0.91878   0.42703   0.00000  Uiso   1.00
O270   O     0.84992   0.49410   0.40636   0.00000  Uiso   1.00
N271   N     0.30583   0.40179   0.50013   0.00000  Uiso   1.00
N272   N     0.41656   0.00904   0.38866   0.00000  Uiso   1.00
N273   N     0.72050   0.41900   0.37393   0.00000  Uiso   1.00
N274   N     0.37147   0.43712   0.60289   0.00000  Uiso   1.00
N275   N     0.48221   0.04437   0.49142   0.00000  Uiso   1.00
N276   N     0.78614   0.45433   0.47668   0.00000  Uiso   1.00
C277   C     0.02871   0.64162   0.52499   0.00000  Uiso   1.00
C278   C     0.02417   0.59061   0.56175   0.00000  Uiso   1.00
C279   C     0.00310   0.51528   0.53285   0.00000  Uiso   1.00
C280   C     0.00253   0.47841   0.57501   0.00000  Uiso   1.00
C281   C     0.99252   0.39353   0.62166   0.00000  Uiso   1.00
C282   C     0.10987   0.70013   0.55373   0.00000  Uiso   1.00
C283   C     0.16085   0.71689   0.51808   0.00000  Uiso   1.00
C284   C     0.23243   0.77222   0.55350   0.00000  Uiso   1.00
C285   C     0.35545   0.85743   0.58769   0.00000  Uiso   1.00
C286   C     0.97707   0.68107   0.54602   0.00000  Uiso   1.00
C287   C     0.91639   0.68182   0.50389   0.00000  Uiso   1.00
C288   C     0.87616   0.72113   0.53281   0.00000  Uiso   1.00
C289   C     0.79297   0.77673   0.55503   0.00000  Uiso   1.00
C290   C     0.06517   0.71010   0.65126   0.00000  Uiso   1.00
C291   C     0.04398   0.62780   0.63034   0.00000  Uiso   1.00
C292   C     0.04344   0.59104   0.67256   0.00000  Uiso   1.00
C293   C     0.02237   0.51567   0.64372   0.00000  Uiso   1.00
C294   C     0.12968   0.73732   0.62232   0.00000  Uiso   1.00
C295   C     0.20119   0.79265   0.65779   0.00000  Uiso   1.00
C296   C     0.25227   0.80949   0.62221   0.00000  Uiso   1.00
C297   C     0.99687   0.71826   0.61461   0.00000  Uiso   1.00
C298   C     0.95673   0.75758   0.64360   0.00000  Uiso   1.00
C299   C     0.89600   0.75839   0.60152   0.00000  Uiso   1.00
H300   H     0.01329   0.61267   0.47160   0.00000  Uiso   1.00
H301   H     0.98779   0.48651   0.47977   0.00000  Uiso   1.00
H302   H     0.14551   0.68810   0.46501   0.00000  Uiso   1.00
H303   H     0.90108   0.65303   0.45082   0.00000  Uiso   1.00
H304   H     0.96827   0.36305   0.51909   0.00000  Uiso   1.00
H305   H     0.30083   0.78812   0.48795   0.00000  Uiso   1.00
H306   H     0.78540   0.71418   0.45803   0.00000  Uiso   1.00
H307   H     0.08059   0.73906   0.70466   0.00000  Uiso   1.00
H308   H     0.05877   0.61984   0.72563   0.00000  Uiso   1.00
H309   H     0.21650   0.82143   0.71087   0.00000  Uiso   1.00
H310   H     0.97207   0.78636   0.69668   0.00000  Uiso   1.00
H311   H     0.02588   0.47126   0.71864   0.00000  Uiso   1.00
H312   H     0.35845   0.89634   0.68750   0.00000  Uiso   1.00
H313   H     0.84302   0.82239   0.65758   0.00000  Uiso   1.00
O314   O     0.98154   0.33645   0.62845   0.00000  Uiso   1.00
O315   O     0.41783   0.89414   0.58760   0.00000  Uiso   1.00
O316   O     0.74161   0.79712   0.54834   0.00000  Uiso   1.00
N317   N     0.98481   0.40488   0.56317   0.00000  Uiso   1.00
N318   N     0.29574   0.80229   0.53406   0.00000  Uiso   1.00
N319   N     0.81387   0.73317   0.50609   0.00000  Uiso   1.00
N320   N     0.01581   0.46310   0.67055   0.00000  Uiso   1.00
N321   N     0.32674   0.86052   0.64144   0.00000  Uiso   1.00
N322   N     0.84487   0.79140   0.61346   0.00000  Uiso   1.00
C323   C     0.14096   0.85861   0.32883   0.00000  Uiso   1.00
C324   C     0.18629   0.91365   0.39907   0.00000  Uiso   1.00
C325   C     0.25143   0.91492   0.43704   0.00000  Uiso   1.00
C326   C     0.28453   0.96970   0.50013   0.00000  Uiso   1.00
C327   C     0.35964   0.04734   0.60551   0.00000  Uiso   1.00
C328   C     0.13811   0.90391   0.28723   0.00000  Uiso   1.00
C329   C     0.16275   0.89699   0.23116   0.00000  Uiso   1.00
C330   C     0.15528   0.94358   0.20010   0.00000  Uiso   1.00
C331   C     0.15556   0.00606   0.13181   0.00000  Uiso   1.00
C332   C     0.05938   0.82339   0.33068   0.00000  Uiso   1.00
C333   C     0.01780   0.74875   0.31113   0.00000  Uiso   1.00
C334   C     0.94404   0.72754   0.31663   0.00000  Uiso   1.00
C335   C     0.82207   0.66499   0.31580   0.00000  Uiso   1.00
C336   C     0.08390   0.95364   0.37333   0.00000  Uiso   1.00
C337   C     0.15529   0.96526   0.42324   0.00000  Uiso   1.00
C338   C     0.18830   0.02006   0.48628   0.00000  Uiso   1.00
C339   C     0.25348   0.02141   0.52434   0.00000  Uiso   1.00
C340   C     0.10712   0.95553   0.31140   0.00000  Uiso   1.00
C341   C     0.09962   0.00213   0.28040   0.00000  Uiso   1.00
C342   C     0.12424   0.99529   0.22431   0.00000  Uiso   1.00
C343   C     0.02839   0.87500   0.35485   0.00000  Uiso   1.00
C344   C     0.95467   0.85390   0.36037   0.00000  Uiso   1.00
C345   C     0.91299   0.77925   0.34084   0.00000  Uiso   1.00
H346   H     0.16509   0.81842   0.31000   0.00000  Uiso   1.00
H347   H     0.27540   0.87497   0.41832   0.00000  Uiso   1.00
H348   H     0.18672   0.85704   0.21247   0.00000  Uiso   1.00
H349   H     0.04181   0.70883   0.29242   0.00000  Uiso   1.00
H350   H     0.38405   0.96044   0.54905   0.00000  Uiso   1.00
H351   H     0.19704   0.92262   0.11500   0.00000  Uiso   1.00
H352   H     0.89145   0.61008   0.28360   0.00000  Uiso   1.00
H353   H     0.05977   0.99382   0.39215   0.00000  Uiso   1.00
H354   H     0.16430   0.06000   0.50497   0.00000  Uiso   1.00
H355   H     0.07562   0.04207   0.29912   0.00000  Uiso   1.00
H356   H     0.93071   0.89385   0.37908   0.00000  Uiso   1.00
H357   H     0.29388   0.11062   0.61939   0.00000  Uiso   1.00
H358   H     0.10687   0.07279   0.18532   0.00000  Uiso   1.00
H359   H     0.80128   0.76026   0.35393   0.00000  Uiso   1.00
O360   O     0.40964   0.07591   0.65695   0.00000  Uiso   1.00
O361   O     0.16429   0.02628   0.08747   0.00000  Uiso   1.00
O362   O     0.76336   0.61623   0.30868   0.00000  Uiso   1.00
N363   N     0.34847   0.98669   0.55013   0.00000  Uiso   1.00
N364   N     0.17365   0.95134   0.14431   0.00000  Uiso   1.00
N365   N     0.88794   0.65914   0.30193   0.00000  Uiso   1.00
N366   N     0.29995   0.06750   0.58797   0.00000  Uiso   1.00
N367   N     0.12513   0.03215   0.18216   0.00000  Uiso   1.00
N368   N     0.83942   0.73995   0.33977   0.00000  Uiso   1.00
C369   C     0.07627   0.32584   0.13257   0.00000  Uiso   1.00
C370   C     0.06871   0.32841   0.06425   0.00000  Uiso   1.00
C371   C     0.08053   0.39079   0.05051   0.00000  Uiso   1.00
C372   C     0.07077   0.38168   0.98480   0.00000  Uiso   1.00
C373   C     0.06224   0.39618   0.88634   0.00000  Uiso   1.00
C374   C     0.13400   0.29167   0.14196   0.00000  Uiso   1.00
C375   C     0.20071   0.32316   0.19357   0.00000  Uiso   1.00
C376   C     0.24590   0.28311   0.19328   0.00000  Uiso   1.00
C377   C     0.33870   0.24055   0.21550   0.00000  Uiso   1.00
C378   C     0.99982   0.27032   0.12827   0.00000  Uiso   1.00
C379   C     0.95373   0.28384   0.16837   0.00000  Uiso   1.00
C380   C     0.88596   0.22580   0.15656   0.00000  Uiso   1.00
C381   C     0.77044   0.15009   0.15752   0.00000  Uiso   1.00
C382   C     0.03791   0.19872   0.04030   0.00000  Uiso   1.00
C383   C     0.04787   0.25937   0.01413   0.00000  Uiso   1.00
C384   C     0.03809   0.25015   0.94843   0.00000  Uiso   1.00
C385   C     0.04989   0.31251   0.93459   0.00000  Uiso   1.00
C386   C     0.11316   0.22263   0.09185   0.00000  Uiso   1.00
C387   C     0.15826   0.18252   0.09149   0.00000  Uiso   1.00
C388   C     0.22503   0.21394   0.14308   0.00000  Uiso   1.00
C389   C     0.97898   0.20127   0.07815   0.00000  Uiso   1.00
C390   C     0.91128   0.14320   0.06629   0.00000  Uiso   1.00
C391   C     0.86509   0.15663   0.10636   0.00000  Uiso   1.00
H392   H     0.09250   0.37959   0.17158   0.00000  Uiso   1.00
H393   H     0.09667   0.44422   0.08931   0.00000  Uiso   1.00
H394   H     0.21682   0.37659   0.23234   0.00000  Uiso   1.00
H395   H     0.96987   0.33727   0.20715   0.00000  Uiso   1.00
H396   H     0.09213   0.48542   0.97599   0.00000  Uiso   1.00
H397   H     0.34546   0.34281   0.27760   0.00000  Uiso   1.00
H398   H     0.82473   0.25991   0.22447   0.00000  Uiso   1.00
H399   H     0.02168   0.14497   0.00129   0.00000  Uiso   1.00
H400   H     0.02196   0.19672   0.90966   0.00000  Uiso   1.00
H401   H     0.14212   0.12909   0.05270   0.00000  Uiso   1.00
H402   H     0.89517   0.08978   0.02750   0.00000  Uiso   1.00
H403   H     0.03149   0.28454   0.83018   0.00000  Uiso   1.00
H404   H     0.28483   0.14193   0.13180   0.00000  Uiso   1.00
H405   H     0.76410   0.05903   0.07867   0.00000  Uiso   1.00
O406   O     0.06330   0.42326   0.84588   0.00000  Uiso   1.00
O407   O     0.39565   0.23616   0.24160   0.00000  Uiso   1.00
O408   O     0.71246   0.12740   0.17189   0.00000  Uiso   1.00
N409   N     0.07780   0.43104   0.95424   0.00000  Uiso   1.00
N410   N     0.31466   0.29771   0.23623   0.00000  Uiso   1.00
N411   N     0.82783   0.22020   0.18657   0.00000  Uiso   1.00
N412   N     0.04518   0.32295   0.87579   0.00000  Uiso   1.00
N413   N     0.28204   0.18962   0.15777   0.00000  Uiso   1.00
N414   N     0.79520   0.11211   0.10811   0.00000  Uiso   1.00
C415   C     0.50718   0.85990   0.14521   0.00000  Uiso   1.00
C416   C     0.50144   0.93376   0.15700   0.00000  Uiso   1.00
C417   C     0.51696   0.97382   0.11796   0.00000  Uiso   1.00
C418   C     0.50833   0.04014   0.13707   0.00000  Uiso   1.00
C419   C     0.50300   0.15101   0.14684   0.00000  Uiso   1.00
C420   C     0.56173   0.87036   0.20838   0.00000  Uiso   1.00
C421   C     0.62793   0.85710   0.21254   0.00000  Uiso   1.00
C422   C     0.67003   0.87004   0.27490   0.00000  Uiso   1.00
C423   C     0.75827   0.88241   0.36445   0.00000  Uiso   1.00
C424   C     0.42896   0.80748   0.14109   0.00000  Uiso   1.00
C425   C     0.38354   0.74134   0.08867   0.00000  Uiso   1.00
C426   C     0.31388   0.70134   0.09438   0.00000  Uiso   1.00
C427   C     0.19598   0.61608   0.07944   0.00000  Uiso   1.00
C428   C     0.46425   0.90645   0.24856   0.00000  Uiso   1.00
C429   C     0.47812   0.95905   0.21313   0.00000  Uiso   1.00
C430   C     0.46946   0.02532   0.23230   0.00000  Uiso   1.00
C431   C     0.48496   0.06547   0.19330   0.00000  Uiso   1.00
C432   C     0.53841   0.89564   0.26452   0.00000  Uiso   1.00
C433   C     0.58042   0.90860   0.32688   0.00000  Uiso   1.00
C434   C     0.64667   0.89537   0.33114   0.00000  Uiso   1.00
C435   C     0.40564   0.83277   0.19722   0.00000  Uiso   1.00
C436   C     0.33604   0.79285   0.20301   0.00000  Uiso   1.00
C437   C     0.29052   0.72667   0.15062   0.00000  Uiso   1.00
H438   H     0.52534   0.84021   0.10152   0.00000  Uiso   1.00
H439   H     0.53502   0.95424   0.07453   0.00000  Uiso   1.00
H440   H     0.64595   0.83752   0.16910   0.00000  Uiso   1.00
H441   H     0.40161   0.72179   0.04524   0.00000  Uiso   1.00
H442   H     0.53548   0.09182   0.06938   0.00000  Uiso   1.00
H443   H     0.76939   0.84570   0.26877   0.00000  Uiso   1.00
H444   H     0.25414   0.60165   0.00761   0.00000  Uiso   1.00
H445   H     0.44609   0.92614   0.29226   0.00000  Uiso   1.00
H446   H     0.45141   0.04488   0.27574   0.00000  Uiso   1.00
H447   H     0.56236   0.92816   0.37031   0.00000  Uiso   1.00
H448   H     0.31801   0.81243   0.24646   0.00000  Uiso   1.00
H449   H     0.46763   0.16539   0.23269   0.00000  Uiso   1.00
H450   H     0.70154   0.91926   0.43209   0.00000  Uiso   1.00
H451   H     0.18629   0.67522   0.17092   0.00000  Uiso   1.00
O452   O     0.50652   0.20517   0.13674   0.00000  Uiso   1.00
O453   O     0.81339   0.88226   0.39833   0.00000  Uiso   1.00
O454   O     0.13738   0.56208   0.05569   0.00000  Uiso   1.00
N455   N     0.51877   0.09283   0.11007   0.00000  Uiso   1.00
N456   N     0.73747   0.86273   0.29650   0.00000  Uiso   1.00
N457   N     0.25576   0.63456   0.05234   0.00000  Uiso   1.00
N458   N     0.48226   0.13242   0.19795   0.00000  Uiso   1.00
N459   N     0.70096   0.90232   0.38438   0.00000  Uiso   1.00
N460   N     0.21925   0.67415   0.14022   0.00000  Uiso   1.00
C461   C     0.60137   0.53227   0.79896   0.00000  Uiso   1.00
C462   C     0.64109   0.57088   0.87303   0.00000  Uiso   1.00
C463   C     0.63540   0.63253   0.91562   0.00000  Uiso   1.00
C464   C     0.67618   0.65958   0.98166   0.00000  Uiso   1.00
C465   C     0.73108   0.72464   0.09322   0.00000  Uiso   1.00
C466   C     0.66441   0.53112   0.76575   0.00000  Uiso   1.00
C467   C     0.67831   0.55933   0.71814   0.00000  Uiso   1.00
C468   C     0.73872   0.55289   0.69387   0.00000  Uiso   1.00
C469   C     0.82977   0.55617   0.63885   0.00000  Uiso   1.00
C470   C     0.55518   0.45259   0.78658   0.00000  Uiso   1.00
C471   C     0.47724   0.41477   0.75646   0.00000  Uiso   1.00
C472   C     0.44569   0.34221   0.74972   0.00000  Uiso   1.00
C473   C     0.36715   0.22358   0.72704   0.00000  Uiso   1.00
C474   C     0.68393   0.47066   0.84051   0.00000  Uiso   1.00
C475   C     0.68594   0.53742   0.89559   0.00000  Uiso   1.00
C476   C     0.72674   0.56437   0.96158   0.00000  Uiso   1.00
C477   C     0.72110   0.62605   0.00427   0.00000  Uiso   1.00
C478   C     0.70925   0.49766   0.78832   0.00000  Uiso   1.00
C479   C     0.76965   0.49117   0.76411   0.00000  Uiso   1.00
C480   C     0.78364   0.51937   0.71648   0.00000  Uiso   1.00
C481   C     0.60002   0.41913   0.80915   0.00000  Uiso   1.00
C482   C     0.56859   0.34661   0.80244   0.00000  Uiso   1.00
C483   C     0.49061   0.30869   0.77232   0.00000  Uiso   1.00
H484   H     0.56646   0.55832   0.78139   0.00000  Uiso   1.00
H485   H     0.60070   0.65842   0.89813   0.00000  Uiso   1.00
H486   H     0.64359   0.58521   0.70068   0.00000  Uiso   1.00
H487   H     0.44256   0.44068   0.73901   0.00000  Uiso   1.00
H488   H     0.65845   0.75465   0.03751   0.00000  Uiso   1.00
H489   H     0.74889   0.60028   0.62116   0.00000  Uiso   1.00
H490   H     0.32497   0.29550   0.70197   0.00000  Uiso   1.00
H491   H     0.71884   0.44461   0.85808   0.00000  Uiso   1.00
H492   H     0.76144   0.53847   0.97903   0.00000  Uiso   1.00
H493   H     0.80434   0.46527   0.78158   0.00000  Uiso   1.00
H494   H     0.60330   0.32074   0.81991   0.00000  Uiso   1.00
H495   H     0.78892   0.65730   0.10317   0.00000  Uiso   1.00
H496   H     0.87935   0.50293   0.68682   0.00000  Uiso   1.00
H497   H     0.45543   0.19815   0.76763   0.00000  Uiso   1.00
O498   O     0.74898   0.76978   0.14852   0.00000  Uiso   1.00
O499   O     0.86762   0.56724   0.60227   0.00000  Uiso   1.00
O500   O     0.31145   0.16739   0.70831   0.00000  Uiso   1.00
N501   N     0.68330   0.71885   0.03637   0.00000  Uiso   1.00
N502   N     0.76786   0.57453   0.64711   0.00000  Uiso   1.00
N503   N     0.37153   0.28958   0.72265   0.00000  Uiso   1.00
N504   N     0.75350   0.66647   0.07170   0.00000  Uiso   1.00
N505   N     0.83806   0.52215   0.68244   0.00000  Uiso   1.00
N506   N     0.44174   0.23720   0.75798   0.00000  Uiso   1.00
C507   C     0.50062   0.63624   0.67259   0.00000  Uiso   1.00
C508   C     0.48501   0.61032   0.59783   0.00000  Uiso   1.00
C509   C     0.49956   0.55315   0.55775   0.00000  Uiso   1.00
C510   C     0.48125   0.53798   0.49055   0.00000  Uiso   1.00
C511   C     0.46188   0.49160   0.37845   0.00000  Uiso   1.00
C512   C     0.55218   0.71767   0.70089   0.00000  Uiso   1.00
C513   C     0.62319   0.75076   0.74747   0.00000  Uiso   1.00
C514   C     0.66141   0.82596   0.76702   0.00000  Uiso   1.00
C515   C     0.74629   0.94624   0.81496   0.00000  Uiso   1.00
C516   C     0.42466   0.63192   0.68609   0.00000  Uiso   1.00
C517   C     0.38846   0.59292   0.72025   0.00000  Uiso   1.00
C518   C     0.31932   0.59593   0.72736   0.00000  Uiso   1.00
C519   C     0.20621   0.58307   0.75232   0.00000  Uiso   1.00
C520   C     0.44223   0.71095   0.62450   0.00000  Uiso   1.00
C521   C     0.45330   0.65091   0.57171   0.00000  Uiso   1.00
C522   C     0.43496   0.63582   0.50455   0.00000  Uiso   1.00
C523   C     0.44948   0.57863   0.46438   0.00000  Uiso   1.00
C524   C     0.52047   0.75826   0.67477   0.00000  Uiso   1.00
C525   C     0.55859   0.83343   0.69426   0.00000  Uiso   1.00
C526   C     0.62964   0.86662   0.74086   0.00000  Uiso   1.00
C527   C     0.39294   0.67250   0.65997   0.00000  Uiso   1.00
C528   C     0.32385   0.67558   0.66704   0.00000  Uiso   1.00
C529   C     0.28755   0.63659   0.70119   0.00000  Uiso   1.00
H530   H     0.52531   0.60465   0.69292   0.00000  Uiso   1.00
H531   H     0.52411   0.52176   0.57799   0.00000  Uiso   1.00
H532   H     0.64772   0.71934   0.76767   0.00000  Uiso   1.00
H533   H     0.41302   0.56152   0.74045   0.00000  Uiso   1.00
H534   H     0.50882   0.44779   0.43904   0.00000  Uiso   1.00
H535   H     0.76944   0.86440   0.83902   0.00000  Uiso   1.00
H536   H     0.27453   0.53160   0.78162   0.00000  Uiso   1.00
H537   H     0.41754   0.74255   0.60417   0.00000  Uiso   1.00
H538   H     0.41042   0.66723   0.48435   0.00000  Uiso   1.00
H539   H     0.53403   0.86481   0.67404   0.00000  Uiso   1.00
H540   H     0.29933   0.70699   0.64682   0.00000  Uiso   1.00
H541   H     0.41654   0.56586   0.36305   0.00000  Uiso   1.00
H542   H     0.67716   0.98247   0.76303   0.00000  Uiso   1.00
H543   H     0.18225   0.64967   0.70563   0.00000  Uiso   1.00
O544   O     0.45997   0.45481   0.32383   0.00000  Uiso   1.00
O545   O     0.80188   0.00138   0.84861   0.00000  Uiso   1.00
O546   O     0.15257   0.56476   0.77329   0.00000  Uiso   1.00
N547   N     0.48806   0.48590   0.43760   0.00000  Uiso   1.00
N548   N     0.73173   0.87540   0.81155   0.00000  Uiso   1.00
N549   N     0.26904   0.56428   0.75790   0.00000  Uiso   1.00
N550   N     0.43841   0.54944   0.39670   0.00000  Uiso   1.00
N551   N     0.68208   0.93894   0.77066   0.00000  Uiso   1.00
N552   N     0.21939   0.62782   0.71701   0.00000  Uiso   1.00
