data_job_05816
_audit_creation_date              2018-12-19
_audit_creation_method            'Materials Studio'
_symmetry_space_group_name_H-M    'P1'
_symmetry_Int_Tables_number       1
_symmetry_cell_setting            triclinic
loop_
_symmetry_equiv_pos_as_xyz
  x,y,z
_cell_length_a                    12.4296
_cell_length_b                    12.4296
_cell_length_c                    33.3623
_cell_angle_alpha                 90.0000
_cell_angle_beta                  90.0000
_cell_angle_gamma                 120.0000
loop_
_atom_site_label
_atom_site_type_symbol
_atom_site_fract_x
_atom_site_fract_y
_atom_site_fract_z
_atom_site_U_iso_or_equiv
_atom_site_adp_type
_atom_site_occupancy
C1     C     0.01855   0.40154   0.90278   0.00000  Uiso   1.00
C2     C     0.08217   0.33073   0.88842   0.00000  Uiso   1.00
C3     C     0.05171   0.25790   0.85417   0.00000  Uiso   1.00
C4     C     0.12099   0.20076   0.84625   0.00000  Uiso   1.00
C5     C     0.20509   0.08844   0.82009   0.00000  Uiso   1.00
C6     C     0.97402   0.35621   0.94531   0.00000  Uiso   1.00
C7     C     0.85263   0.30483   0.95889   0.00000  Uiso   1.00
C8     C     0.83088   0.26916   0.99886   0.00000  Uiso   1.00
C9     C     0.74709   0.19649   0.06104   0.00000  Uiso   1.00
C10    C     0.12090   0.53688   0.90670   0.00000  Uiso   1.00
C11    C     0.12299   0.63741   0.88783   0.00000  Uiso   1.00
C12    C     0.22489   0.75385   0.89530   0.00000  Uiso   1.00
C13    C     0.36915   0.96169   0.89753   0.00000  Uiso   1.00
C14    C     0.19577   0.42957   0.94962   0.00000  Uiso   1.00
C15    C     0.17843   0.34596   0.91386   0.00000  Uiso   1.00
C16    C     0.24778   0.28892   0.90599   0.00000  Uiso   1.00
C17    C     0.21743   0.21602   0.87173   0.00000  Uiso   1.00
C18    C     0.07027   0.37144   0.97075   0.00000  Uiso   1.00
C19    C     0.04870   0.33584   0.01071   0.00000  Uiso   1.00
C20    C     0.92731   0.28441   0.02435   0.00000  Uiso   1.00
C21    C     0.21716   0.55211   0.93214   0.00000  Uiso   1.00
C22    C     0.31907   0.66842   0.93965   0.00000  Uiso   1.00
C23    C     0.32132   0.76910   0.92079   0.00000  Uiso   1.00
H24    H     0.94361   0.38969   0.88298   0.00000  Uiso   1.00
H25    H     0.97720   0.24614   0.83449   0.00000  Uiso   1.00
H26    H     0.77816   0.29307   0.93920   0.00000  Uiso   1.00
H27    H     0.04849   0.62559   0.86815   0.00000  Uiso   1.00
H28    H     0.05687   0.09366   0.79197   0.00000  Uiso   1.00
H29    H     0.63718   0.19266   0.01275   0.00000  Uiso   1.00
H30    H     0.20721   0.89385   0.86292   0.00000  Uiso   1.00
H31    H     0.27071   0.44143   0.96942   0.00000  Uiso   1.00
H32    H     0.32226   0.30071   0.92568   0.00000  Uiso   1.00
H33    H     0.12321   0.34764   0.03039   0.00000  Uiso   1.00
H34    H     0.39354   0.68016   0.95933   0.00000  Uiso   1.00
H35    H     0.33693   0.13795   0.86598   0.00000  Uiso   1.00
H36    H     0.91724   0.23696   0.08676   0.00000  Uiso   1.00
H37    H     0.48728   0.93814   0.93693   0.00000  Uiso   1.00
O38    O     0.22488   0.02227   0.79865   0.00000  Uiso   1.00
O39    O     0.67427   0.15218   0.08830   0.00000  Uiso   1.00
O40    O     0.42214   0.07212   0.89173   0.00000  Uiso   1.00
N41    N     0.11572   0.12342   0.81538   0.00000  Uiso   1.00
N42    N     0.72334   0.21596   0.02180   0.00000  Uiso   1.00
N43    N     0.25625   0.87151   0.88173   0.00000  Uiso   1.00
N44    N     0.26642   0.14725   0.85521   0.00000  Uiso   1.00
N45    N     0.87404   0.23979   0.06162   0.00000  Uiso   1.00
N46    N     0.40695   0.89535   0.92156   0.00000  Uiso   1.00
C47    C     0.59846   0.61701   0.23611   0.00000  Uiso   1.00
C48    C     0.66927   0.75144   0.22176   0.00000  Uiso   1.00
C49    C     0.74210   0.79380   0.18750   0.00000  Uiso   1.00
C50    C     0.79924   0.92023   0.17958   0.00000  Uiso   1.00
C51    C     0.91156   0.11665   0.15343   0.00000  Uiso   1.00
C52    C     0.64379   0.61781   0.27865   0.00000  Uiso   1.00
C53    C     0.69517   0.54780   0.29223   0.00000  Uiso   1.00
C54    C     0.73084   0.56172   0.33219   0.00000  Uiso   1.00
C55    C     0.80351   0.55060   0.39437   0.00000  Uiso   1.00
C56    C     0.46312   0.58402   0.24004   0.00000  Uiso   1.00
C57    C     0.36259   0.48558   0.22116   0.00000  Uiso   1.00
C58    C     0.24615   0.47104   0.22863   0.00000  Uiso   1.00
C59    C     0.03831   0.40746   0.23086   0.00000  Uiso   1.00
C60    C     0.57043   0.76620   0.28295   0.00000  Uiso   1.00
C61    C     0.65404   0.83247   0.24720   0.00000  Uiso   1.00
C62    C     0.71108   0.95887   0.23932   0.00000  Uiso   1.00
C63    C     0.78398   0.00141   0.20506   0.00000  Uiso   1.00
C64    C     0.62856   0.69884   0.30409   0.00000  Uiso   1.00
C65    C     0.66416   0.71286   0.34404   0.00000  Uiso   1.00
C66    C     0.71559   0.64290   0.35768   0.00000  Uiso   1.00
C67    C     0.44789   0.66505   0.26548   0.00000  Uiso   1.00
C68    C     0.33158   0.65065   0.27298   0.00000  Uiso   1.00
C69    C     0.23090   0.55222   0.25412   0.00000  Uiso   1.00
H70    H     0.61031   0.55392   0.21631   0.00000  Uiso   1.00
H71    H     0.75386   0.73106   0.16783   0.00000  Uiso   1.00
H72    H     0.70693   0.48509   0.27253   0.00000  Uiso   1.00
H73    H     0.37441   0.42289   0.20148   0.00000  Uiso   1.00
H74    H     0.90634   0.96321   0.12530   0.00000  Uiso   1.00
H75    H     0.80734   0.44452   0.34608   0.00000  Uiso   1.00
H76    H     0.10615   0.31336   0.19625   0.00000  Uiso   1.00
H77    H     0.55857   0.82929   0.30276   0.00000  Uiso   1.00
H78    H     0.69929   0.02155   0.25901   0.00000  Uiso   1.00
H79    H     0.65236   0.77557   0.36372   0.00000  Uiso   1.00
H80    H     0.31984   0.71338   0.29267   0.00000  Uiso   1.00
H81    H     0.86205   0.19898   0.19931   0.00000  Uiso   1.00
H82    H     0.76304   0.68028   0.42009   0.00000  Uiso   1.00
H83    H     0.06186   0.54913   0.27026   0.00000  Uiso   1.00
O84    O     0.97773   0.20261   0.13198   0.00000  Uiso   1.00
O85    O     0.84782   0.52209   0.42164   0.00000  Uiso   1.00
O86    O     0.92788   0.35002   0.22506   0.00000  Uiso   1.00
N87    N     0.87658   0.99231   0.14872   0.00000  Uiso   1.00
N88    N     0.78404   0.50738   0.35513   0.00000  Uiso   1.00
N89    N     0.12849   0.38474   0.21506   0.00000  Uiso   1.00
N90    N     0.85275   0.11917   0.18854   0.00000  Uiso   1.00
N91    N     0.76021   0.63425   0.39496   0.00000  Uiso   1.00
N92    N     0.10465   0.51160   0.25489   0.00000  Uiso   1.00
C93    C     0.38299   0.98145   0.56945   0.00000  Uiso   1.00
C94    C     0.24856   0.91783   0.55509   0.00000  Uiso   1.00
C95    C     0.20620   0.94829   0.52084   0.00000  Uiso   1.00
C96    C     0.07977   0.87901   0.51291   0.00000  Uiso   1.00
C97    C     0.88335   0.79491   0.48676   0.00000  Uiso   1.00
C98    C     0.38219   0.02598   0.61198   0.00000  Uiso   1.00
C99    C     0.45220   0.14737   0.62556   0.00000  Uiso   1.00
C100   C     0.43828   0.16912   0.66553   0.00000  Uiso   1.00
C101   C     0.44940   0.25291   0.72770   0.00000  Uiso   1.00
C102   C     0.41598   0.87910   0.57337   0.00000  Uiso   1.00
C103   C     0.51442   0.87701   0.55450   0.00000  Uiso   1.00
C104   C     0.52896   0.77511   0.56197   0.00000  Uiso   1.00
C105   C     0.59254   0.63085   0.56420   0.00000  Uiso   1.00
C106   C     0.23380   0.80423   0.61628   0.00000  Uiso   1.00
C107   C     0.16753   0.82157   0.58053   0.00000  Uiso   1.00
C108   C     0.04113   0.75222   0.57266   0.00000  Uiso   1.00
C109   C     0.99859   0.78257   0.53840   0.00000  Uiso   1.00
C110   C     0.30116   0.92973   0.63742   0.00000  Uiso   1.00
C111   C     0.28714   0.95130   0.67738   0.00000  Uiso   1.00
C112   C     0.35710   0.07269   0.69101   0.00000  Uiso   1.00
C113   C     0.33495   0.78284   0.59881   0.00000  Uiso   1.00
C114   C     0.34935   0.68093   0.60631   0.00000  Uiso   1.00
C115   C     0.44778   0.67868   0.58745   0.00000  Uiso   1.00
H116   H     0.44608   0.05639   0.54964   0.00000  Uiso   1.00
H117   H     0.26894   0.02280   0.50116   0.00000  Uiso   1.00
H118   H     0.51491   0.22184   0.60587   0.00000  Uiso   1.00
H119   H     0.57711   0.95151   0.53481   0.00000  Uiso   1.00
H120   H     0.03679   0.94313   0.45863   0.00000  Uiso   1.00
H121   H     0.55548   0.36282   0.67941   0.00000  Uiso   1.00
H122   H     0.68664   0.79279   0.52959   0.00000  Uiso   1.00
H123   H     0.17071   0.72929   0.63609   0.00000  Uiso   1.00
H124   H     0.97845   0.67774   0.59235   0.00000  Uiso   1.00
H125   H     0.22443   0.87679   0.69705   0.00000  Uiso   1.00
H126   H     0.28662   0.60646   0.62600   0.00000  Uiso   1.00
H127   H     0.80102   0.66307   0.53265   0.00000  Uiso   1.00
H128   H     0.31972   0.08276   0.75343   0.00000  Uiso   1.00
H129   H     0.45087   0.51272   0.60360   0.00000  Uiso   1.00
O130   O     0.79739   0.77512   0.46531   0.00000  Uiso   1.00
O131   O     0.47791   0.32573   0.75497   0.00000  Uiso   1.00
O132   O     0.64998   0.57786   0.55840   0.00000  Uiso   1.00
N133   N     0.00769   0.88428   0.48205   0.00000  Uiso   1.00
N134   N     0.49262   0.27666   0.68847   0.00000  Uiso   1.00
N135   N     0.61526   0.74375   0.54840   0.00000  Uiso   1.00
N136   N     0.88083   0.73358   0.52188   0.00000  Uiso   1.00
N137   N     0.36575   0.12596   0.72829   0.00000  Uiso   1.00
N138   N     0.48840   0.59305   0.58822   0.00000  Uiso   1.00
C139   C     0.59846   0.98145   0.76389   0.00000  Uiso   1.00
C140   C     0.66927   0.91783   0.77824   0.00000  Uiso   1.00
C141   C     0.74210   0.94829   0.81250   0.00000  Uiso   1.00
C142   C     0.79924   0.87901   0.82042   0.00000  Uiso   1.00
C143   C     0.91156   0.79491   0.84657   0.00000  Uiso   1.00
C144   C     0.64379   0.02598   0.72135   0.00000  Uiso   1.00
C145   C     0.69517   0.14737   0.70777   0.00000  Uiso   1.00
C146   C     0.73084   0.16912   0.66781   0.00000  Uiso   1.00
C147   C     0.80351   0.25291   0.60563   0.00000  Uiso   1.00
C148   C     0.46312   0.87910   0.75996   0.00000  Uiso   1.00
C149   C     0.36259   0.87701   0.77884   0.00000  Uiso   1.00
C150   C     0.24615   0.77511   0.77137   0.00000  Uiso   1.00
C151   C     0.03831   0.63085   0.76914   0.00000  Uiso   1.00
C152   C     0.57043   0.80423   0.71705   0.00000  Uiso   1.00
C153   C     0.65404   0.82157   0.75280   0.00000  Uiso   1.00
C154   C     0.71108   0.75222   0.76068   0.00000  Uiso   1.00
C155   C     0.78398   0.78257   0.79494   0.00000  Uiso   1.00
C156   C     0.62856   0.92973   0.69591   0.00000  Uiso   1.00
C157   C     0.66416   0.95130   0.65596   0.00000  Uiso   1.00
C158   C     0.71559   0.07269   0.64232   0.00000  Uiso   1.00
C159   C     0.44789   0.78284   0.73452   0.00000  Uiso   1.00
C160   C     0.33158   0.68093   0.72702   0.00000  Uiso   1.00
C161   C     0.23090   0.67868   0.74588   0.00000  Uiso   1.00
H162   H     0.61031   0.05639   0.78369   0.00000  Uiso   1.00
H163   H     0.75386   0.02280   0.83217   0.00000  Uiso   1.00
H164   H     0.70693   0.22184   0.72747   0.00000  Uiso   1.00
H165   H     0.37441   0.95151   0.79852   0.00000  Uiso   1.00
H166   H     0.90634   0.94313   0.87470   0.00000  Uiso   1.00
H167   H     0.80734   0.36282   0.65392   0.00000  Uiso   1.00
H168   H     0.10615   0.79279   0.80375   0.00000  Uiso   1.00
H169   H     0.55857   0.72929   0.69724   0.00000  Uiso   1.00
H170   H     0.69929   0.67774   0.74099   0.00000  Uiso   1.00
H171   H     0.65236   0.87679   0.63628   0.00000  Uiso   1.00
H172   H     0.31984   0.60646   0.70733   0.00000  Uiso   1.00
H173   H     0.86205   0.66307   0.80069   0.00000  Uiso   1.00
H174   H     0.76304   0.08276   0.57991   0.00000  Uiso   1.00
H175   H     0.06186   0.51272   0.72974   0.00000  Uiso   1.00
O176   O     0.97773   0.77512   0.86802   0.00000  Uiso   1.00
O177   O     0.84782   0.32573   0.57836   0.00000  Uiso   1.00
O178   O     0.92788   0.57786   0.77494   0.00000  Uiso   1.00
N179   N     0.87658   0.88428   0.85128   0.00000  Uiso   1.00
N180   N     0.78404   0.27666   0.64487   0.00000  Uiso   1.00
N181   N     0.12849   0.74375   0.78494   0.00000  Uiso   1.00
N182   N     0.85275   0.73358   0.81146   0.00000  Uiso   1.00
N183   N     0.76021   0.12596   0.60504   0.00000  Uiso   1.00
N184   N     0.10465   0.59305   0.74511   0.00000  Uiso   1.00
C185   C     0.38299   0.40154   0.43055   0.00000  Uiso   1.00
C186   C     0.24856   0.33073   0.44491   0.00000  Uiso   1.00
C187   C     0.20620   0.25790   0.47916   0.00000  Uiso   1.00
C188   C     0.07977   0.20076   0.48709   0.00000  Uiso   1.00
C189   C     0.88335   0.08844   0.51324   0.00000  Uiso   1.00
C190   C     0.38219   0.35621   0.38802   0.00000  Uiso   1.00
C191   C     0.45220   0.30483   0.37444   0.00000  Uiso   1.00
C192   C     0.43828   0.26916   0.33447   0.00000  Uiso   1.00
C193   C     0.44940   0.19649   0.27230   0.00000  Uiso   1.00
C194   C     0.41598   0.53688   0.42663   0.00000  Uiso   1.00
C195   C     0.51442   0.63741   0.44550   0.00000  Uiso   1.00
C196   C     0.52896   0.75385   0.43803   0.00000  Uiso   1.00
C197   C     0.59254   0.96169   0.43580   0.00000  Uiso   1.00
C198   C     0.23380   0.42957   0.38372   0.00000  Uiso   1.00
C199   C     0.16753   0.34596   0.41947   0.00000  Uiso   1.00
C200   C     0.04113   0.28892   0.42734   0.00000  Uiso   1.00
C201   C     0.99859   0.21602   0.46160   0.00000  Uiso   1.00
C202   C     0.30116   0.37144   0.36258   0.00000  Uiso   1.00
C203   C     0.28714   0.33584   0.32262   0.00000  Uiso   1.00
C204   C     0.35710   0.28441   0.30899   0.00000  Uiso   1.00
C205   C     0.33495   0.55211   0.40119   0.00000  Uiso   1.00
C206   C     0.34935   0.66842   0.39369   0.00000  Uiso   1.00
C207   C     0.44778   0.76910   0.41255   0.00000  Uiso   1.00
H208   H     0.44608   0.38969   0.45036   0.00000  Uiso   1.00
H209   H     0.26894   0.24614   0.49884   0.00000  Uiso   1.00
H210   H     0.51491   0.29307   0.39413   0.00000  Uiso   1.00
H211   H     0.57711   0.62559   0.46519   0.00000  Uiso   1.00
H212   H     0.03679   0.09366   0.54137   0.00000  Uiso   1.00
H213   H     0.55548   0.19266   0.32059   0.00000  Uiso   1.00
H214   H     0.68664   0.89385   0.47041   0.00000  Uiso   1.00
H215   H     0.17071   0.44143   0.36391   0.00000  Uiso   1.00
H216   H     0.97845   0.30071   0.40765   0.00000  Uiso   1.00
H217   H     0.22443   0.34764   0.30295   0.00000  Uiso   1.00
H218   H     0.28662   0.68016   0.37400   0.00000  Uiso   1.00
H219   H     0.80102   0.13795   0.46735   0.00000  Uiso   1.00
H220   H     0.31972   0.23696   0.24657   0.00000  Uiso   1.00
H221   H     0.45087   0.93814   0.39640   0.00000  Uiso   1.00
O222   O     0.79739   0.02227   0.53469   0.00000  Uiso   1.00
O223   O     0.47791   0.15218   0.24503   0.00000  Uiso   1.00
O224   O     0.64998   0.07212   0.44160   0.00000  Uiso   1.00
N225   N     0.00769   0.12342   0.51795   0.00000  Uiso   1.00
N226   N     0.49262   0.21596   0.31153   0.00000  Uiso   1.00
N227   N     0.61526   0.87151   0.45160   0.00000  Uiso   1.00
N228   N     0.88083   0.14725   0.47812   0.00000  Uiso   1.00
N229   N     0.36575   0.23979   0.27171   0.00000  Uiso   1.00
N230   N     0.48840   0.89535   0.41178   0.00000  Uiso   1.00
C231   C     0.01855   0.61701   0.09722   0.00000  Uiso   1.00
C232   C     0.08217   0.75144   0.11158   0.00000  Uiso   1.00
C233   C     0.05171   0.79380   0.14583   0.00000  Uiso   1.00
C234   C     0.12099   0.92023   0.15375   0.00000  Uiso   1.00
C235   C     0.20509   0.11665   0.17991   0.00000  Uiso   1.00
C236   C     0.97402   0.61781   0.05469   0.00000  Uiso   1.00
C237   C     0.85263   0.54780   0.04111   0.00000  Uiso   1.00
C238   C     0.83088   0.56172   0.00114   0.00000  Uiso   1.00
C239   C     0.74709   0.55060   0.93896   0.00000  Uiso   1.00
C240   C     0.12090   0.58402   0.09330   0.00000  Uiso   1.00
C241   C     0.12299   0.48558   0.11217   0.00000  Uiso   1.00
C242   C     0.22489   0.47104   0.10470   0.00000  Uiso   1.00
C243   C     0.36915   0.40746   0.10247   0.00000  Uiso   1.00
C244   C     0.19577   0.76620   0.05038   0.00000  Uiso   1.00
C245   C     0.17843   0.83247   0.08614   0.00000  Uiso   1.00
C246   C     0.24778   0.95887   0.09401   0.00000  Uiso   1.00
C247   C     0.21743   0.00141   0.12827   0.00000  Uiso   1.00
C248   C     0.07027   0.69884   0.02925   0.00000  Uiso   1.00
C249   C     0.04870   0.71286   0.98929   0.00000  Uiso   1.00
C250   C     0.92731   0.64290   0.97565   0.00000  Uiso   1.00
C251   C     0.21716   0.66505   0.06786   0.00000  Uiso   1.00
C252   C     0.31907   0.65065   0.06035   0.00000  Uiso   1.00
C253   C     0.32132   0.55222   0.07921   0.00000  Uiso   1.00
H254   H     0.94361   0.55392   0.11702   0.00000  Uiso   1.00
H255   H     0.97720   0.73106   0.16551   0.00000  Uiso   1.00
H256   H     0.77816   0.48509   0.06080   0.00000  Uiso   1.00
H257   H     0.04849   0.42289   0.13185   0.00000  Uiso   1.00
H258   H     0.05687   0.96321   0.20803   0.00000  Uiso   1.00
H259   H     0.63718   0.44452   0.98725   0.00000  Uiso   1.00
H260   H     0.20721   0.31336   0.13708   0.00000  Uiso   1.00
H261   H     0.27071   0.82929   0.03058   0.00000  Uiso   1.00
H262   H     0.32226   0.02155   0.07432   0.00000  Uiso   1.00
H263   H     0.12321   0.77557   0.96961   0.00000  Uiso   1.00
H264   H     0.39354   0.71338   0.04067   0.00000  Uiso   1.00
H265   H     0.33693   0.19898   0.13402   0.00000  Uiso   1.00
H266   H     0.91724   0.68028   0.91324   0.00000  Uiso   1.00
H267   H     0.48728   0.54913   0.06307   0.00000  Uiso   1.00
O268   O     0.22488   0.20261   0.20135   0.00000  Uiso   1.00
O269   O     0.67427   0.52209   0.91170   0.00000  Uiso   1.00
O270   O     0.42214   0.35002   0.10827   0.00000  Uiso   1.00
N271   N     0.11572   0.99231   0.18462   0.00000  Uiso   1.00
N272   N     0.72334   0.50738   0.97820   0.00000  Uiso   1.00
N273   N     0.25625   0.38474   0.11827   0.00000  Uiso   1.00
N274   N     0.26642   0.11917   0.14479   0.00000  Uiso   1.00
N275   N     0.87404   0.63425   0.93838   0.00000  Uiso   1.00
N276   N     0.40695   0.51160   0.07844   0.00000  Uiso   1.00
