data_job_04706
_audit_creation_date              2018-12-19
_audit_creation_method            'Materials Studio'
_symmetry_space_group_name_H-M    'P1'
_symmetry_Int_Tables_number       1
_symmetry_cell_setting            triclinic
loop_
_symmetry_equiv_pos_as_xyz
  x,y,z
_cell_length_a                    20.2090
_cell_length_b                    17.9501
_cell_length_c                    12.4821
_cell_angle_alpha                 90.0000
_cell_angle_beta                  145.1545
_cell_angle_gamma                 90.0000
loop_
_atom_site_label
_atom_site_type_symbol
_atom_site_fract_x
_atom_site_fract_y
_atom_site_fract_z
_atom_site_U_iso_or_equiv
_atom_site_adp_type
_atom_site_occupancy
C1     C     0.69539   0.81496   0.03248   0.00000  Uiso   1.00
C2     C     0.56398   0.81094   0.84715   0.00000  Uiso   1.00
C3     C     0.49641   0.74818   0.77495   0.00000  Uiso   1.00
C4     C     0.37773   0.75592   0.60323   0.00000  Uiso   1.00
C5     C     0.18118   0.73930   0.33001   0.00000  Uiso   1.00
C6     C     0.74027   0.84263   0.98433   0.00000  Uiso   1.00
C7     C     0.82094   0.80652   0.02750   0.00000  Uiso   1.00
C8     C     0.85069   0.84095   0.97129   0.00000  Uiso   1.00
C9     C     0.92790   0.87356   0.91117   0.00000  Uiso   1.00
C10    C     0.71982   0.87722   0.14494   0.00000  Uiso   1.00
C11    C     0.78333   0.87020   0.32318   0.00000  Uiso   1.00
C12    C     0.79587   0.93374   0.40221   0.00000  Uiso   1.00
C13    C     0.84134   0.02005   0.59146   0.00000  Uiso   1.00
C14    C     0.60479   0.94030   0.85592   0.00000  Uiso   1.00
C15    C     0.51478   0.87902   0.75125   0.00000  Uiso   1.00
C16    C     0.39617   0.88685   0.57960   0.00000  Uiso   1.00
C17    C     0.32844   0.82412   0.50716   0.00000  Uiso   1.00
C18    C     0.69107   0.91071   0.88844   0.00000  Uiso   1.00
C19    C     0.72071   0.94519   0.83216   0.00000  Uiso   1.00
C20    C     0.80139   0.90915   0.87521   0.00000  Uiso   1.00
C21    C     0.67062   0.94529   0.04905   0.00000  Uiso   1.00
C22    C     0.68308   0.00886   0.12782   0.00000  Uiso   1.00
C23    C     0.74658   0.00194   0.30614   0.00000  Uiso   1.00
H24    H     0.73370   0.76197   0.10714   0.00000  Uiso   1.00
H25    H     0.53452   0.69551   0.84920   0.00000  Uiso   1.00
H26    H     0.85901   0.75385   0.10173   0.00000  Uiso   1.00
H27    H     0.82139   0.81751   0.39735   0.00000  Uiso   1.00
H28    H     0.29200   0.65184   0.52090   0.00000  Uiso   1.00
H29    H     0.97624   0.77486   0.05343   0.00000  Uiso   1.00
H30    H     0.89691   0.90911   0.67681   0.00000  Uiso   1.00
H31    H     0.56648   0.99330   0.78125   0.00000  Uiso   1.00
H32    H     0.35812   0.93954   0.50542   0.00000  Uiso   1.00
H33    H     0.68262   0.99788   0.75795   0.00000  Uiso   1.00
H34    H     0.64499   0.06154   0.05357   0.00000  Uiso   1.00
H35    H     0.14882   0.84990   0.24187   0.00000  Uiso   1.00
H36    H     0.83307   0.97293   0.77441   0.00000  Uiso   1.00
H37    H     0.75374   0.10717   0.39778   0.00000  Uiso   1.00
O38    O     0.08636   0.71132   0.20578   0.00000  Uiso   1.00
O39    O     0.98408   0.87273   0.90448   0.00000  Uiso   1.00
O40    O     0.87999   0.04885   0.72233   0.00000  Uiso   1.00
N41    N     0.28689   0.70584   0.49310   0.00000  Uiso   1.00
N42    N     0.92660   0.82085   0.99096   0.00000  Uiso   1.00
N43    N     0.85247   0.94636   0.57379   0.00000  Uiso   1.00
N44    N     0.20985   0.81241   0.34296   0.00000  Uiso   1.00
N45    N     0.84956   0.92743   0.84082   0.00000  Uiso   1.00
N46    N     0.77542   0.05294   0.42365   0.00000  Uiso   1.00
C47    C     0.30461   0.31496   0.46752   0.00000  Uiso   1.00
C48    C     0.43602   0.31094   0.65285   0.00000  Uiso   1.00
C49    C     0.50359   0.24818   0.72505   0.00000  Uiso   1.00
C50    C     0.62227   0.25592   0.89677   0.00000  Uiso   1.00
C51    C     0.81882   0.23930   0.16999   0.00000  Uiso   1.00
C52    C     0.25973   0.34263   0.51567   0.00000  Uiso   1.00
C53    C     0.17906   0.30652   0.47250   0.00000  Uiso   1.00
C54    C     0.14931   0.34095   0.52871   0.00000  Uiso   1.00
C55    C     0.07210   0.37356   0.58883   0.00000  Uiso   1.00
C56    C     0.28018   0.37722   0.35506   0.00000  Uiso   1.00
C57    C     0.21667   0.37020   0.17682   0.00000  Uiso   1.00
C58    C     0.20413   0.43374   0.09779   0.00000  Uiso   1.00
C59    C     0.15866   0.52005   0.90854   0.00000  Uiso   1.00
C60    C     0.39521   0.44030   0.64408   0.00000  Uiso   1.00
C61    C     0.48522   0.37902   0.74875   0.00000  Uiso   1.00
C62    C     0.60383   0.38685   0.92040   0.00000  Uiso   1.00
C63    C     0.67156   0.32412   0.99284   0.00000  Uiso   1.00
C64    C     0.30893   0.41071   0.61156   0.00000  Uiso   1.00
C65    C     0.27929   0.44519   0.66784   0.00000  Uiso   1.00
C66    C     0.19861   0.40915   0.62479   0.00000  Uiso   1.00
C67    C     0.32938   0.44529   0.45095   0.00000  Uiso   1.00
C68    C     0.31692   0.50886   0.37218   0.00000  Uiso   1.00
C69    C     0.25342   0.50194   0.19386   0.00000  Uiso   1.00
H70    H     0.26630   0.26197   0.39286   0.00000  Uiso   1.00
H71    H     0.46548   0.19551   0.65080   0.00000  Uiso   1.00
H72    H     0.14099   0.25385   0.39827   0.00000  Uiso   1.00
H73    H     0.17861   0.31751   0.10265   0.00000  Uiso   1.00
H74    H     0.70800   0.15184   0.97910   0.00000  Uiso   1.00
H75    H     0.02376   0.27486   0.44657   0.00000  Uiso   1.00
H76    H     0.10309   0.40911   0.82319   0.00000  Uiso   1.00
H77    H     0.43352   0.49330   0.71875   0.00000  Uiso   1.00
H78    H     0.64188   0.43954   0.99458   0.00000  Uiso   1.00
H79    H     0.31738   0.49788   0.74205   0.00000  Uiso   1.00
H80    H     0.35501   0.56154   0.44643   0.00000  Uiso   1.00
H81    H     0.85118   0.34990   0.25813   0.00000  Uiso   1.00
H82    H     0.16693   0.47293   0.72559   0.00000  Uiso   1.00
H83    H     0.24626   0.60717   0.10222   0.00000  Uiso   1.00
O84    O     0.91364   0.21132   0.29422   0.00000  Uiso   1.00
O85    O     0.01592   0.37273   0.59552   0.00000  Uiso   1.00
O86    O     0.12001   0.54885   0.77767   0.00000  Uiso   1.00
N87    N     0.71311   0.20584   0.00690   0.00000  Uiso   1.00
N88    N     0.07340   0.32085   0.50904   0.00000  Uiso   1.00
N89    N     0.14753   0.44636   0.92621   0.00000  Uiso   1.00
N90    N     0.79015   0.31241   0.15704   0.00000  Uiso   1.00
N91    N     0.15044   0.42743   0.65918   0.00000  Uiso   1.00
N92    N     0.22458   0.55294   0.07635   0.00000  Uiso   1.00
C93    C     0.30461   0.18504   0.96752   0.00000  Uiso   1.00
C94    C     0.43602   0.18906   0.15285   0.00000  Uiso   1.00
C95    C     0.50359   0.25182   0.22505   0.00000  Uiso   1.00
C96    C     0.62227   0.24408   0.39677   0.00000  Uiso   1.00
C97    C     0.81882   0.26070   0.66999   0.00000  Uiso   1.00
C98    C     0.25973   0.15737   0.01567   0.00000  Uiso   1.00
C99    C     0.17906   0.19348   0.97250   0.00000  Uiso   1.00
C100   C     0.14931   0.15905   0.02871   0.00000  Uiso   1.00
C101   C     0.07210   0.12644   0.08883   0.00000  Uiso   1.00
C102   C     0.28018   0.12278   0.85506   0.00000  Uiso   1.00
C103   C     0.21667   0.12980   0.67682   0.00000  Uiso   1.00
C104   C     0.20413   0.06626   0.59779   0.00000  Uiso   1.00
C105   C     0.15866   0.97995   0.40854   0.00000  Uiso   1.00
C106   C     0.39521   0.05970   0.14408   0.00000  Uiso   1.00
C107   C     0.48522   0.12098   0.24875   0.00000  Uiso   1.00
C108   C     0.60383   0.11315   0.42040   0.00000  Uiso   1.00
C109   C     0.67156   0.17588   0.49284   0.00000  Uiso   1.00
C110   C     0.30893   0.08929   0.11156   0.00000  Uiso   1.00
C111   C     0.27929   0.05481   0.16784   0.00000  Uiso   1.00
C112   C     0.19861   0.09085   0.12479   0.00000  Uiso   1.00
C113   C     0.32938   0.05471   0.95095   0.00000  Uiso   1.00
C114   C     0.31692   0.99114   0.87218   0.00000  Uiso   1.00
C115   C     0.25342   0.99806   0.69386   0.00000  Uiso   1.00
H116   H     0.26630   0.23803   0.89286   0.00000  Uiso   1.00
H117   H     0.46548   0.30449   0.15080   0.00000  Uiso   1.00
H118   H     0.14099   0.24615   0.89827   0.00000  Uiso   1.00
H119   H     0.17861   0.18249   0.60265   0.00000  Uiso   1.00
H120   H     0.70800   0.34816   0.47910   0.00000  Uiso   1.00
H121   H     0.02376   0.22514   0.94657   0.00000  Uiso   1.00
H122   H     0.10309   0.09089   0.32319   0.00000  Uiso   1.00
H123   H     0.43352   0.00670   0.21875   0.00000  Uiso   1.00
H124   H     0.64188   0.06046   0.49458   0.00000  Uiso   1.00
H125   H     0.31738   0.00212   0.24205   0.00000  Uiso   1.00
H126   H     0.35501   0.93846   0.94643   0.00000  Uiso   1.00
H127   H     0.85118   0.15010   0.75813   0.00000  Uiso   1.00
H128   H     0.16693   0.02707   0.22559   0.00000  Uiso   1.00
H129   H     0.24626   0.89283   0.60222   0.00000  Uiso   1.00
O130   O     0.91364   0.28868   0.79422   0.00000  Uiso   1.00
O131   O     0.01592   0.12727   0.09552   0.00000  Uiso   1.00
O132   O     0.12001   0.95115   0.27767   0.00000  Uiso   1.00
N133   N     0.71311   0.29416   0.50690   0.00000  Uiso   1.00
N134   N     0.07340   0.17915   0.00904   0.00000  Uiso   1.00
N135   N     0.14753   0.05364   0.42621   0.00000  Uiso   1.00
N136   N     0.79015   0.18759   0.65704   0.00000  Uiso   1.00
N137   N     0.15044   0.07257   0.15918   0.00000  Uiso   1.00
N138   N     0.22458   0.94706   0.57635   0.00000  Uiso   1.00
C139   C     0.69539   0.68504   0.53248   0.00000  Uiso   1.00
C140   C     0.56398   0.68906   0.34715   0.00000  Uiso   1.00
C141   C     0.49641   0.75182   0.27495   0.00000  Uiso   1.00
C142   C     0.37773   0.74408   0.10323   0.00000  Uiso   1.00
C143   C     0.18118   0.76070   0.83001   0.00000  Uiso   1.00
C144   C     0.74027   0.65737   0.48433   0.00000  Uiso   1.00
C145   C     0.82094   0.69348   0.52750   0.00000  Uiso   1.00
C146   C     0.85069   0.65905   0.47129   0.00000  Uiso   1.00
C147   C     0.92790   0.62644   0.41117   0.00000  Uiso   1.00
C148   C     0.71982   0.62278   0.64494   0.00000  Uiso   1.00
C149   C     0.78333   0.62980   0.82318   0.00000  Uiso   1.00
C150   C     0.79587   0.56626   0.90221   0.00000  Uiso   1.00
C151   C     0.84134   0.47995   0.09146   0.00000  Uiso   1.00
C152   C     0.60479   0.55970   0.35592   0.00000  Uiso   1.00
C153   C     0.51478   0.62098   0.25125   0.00000  Uiso   1.00
C154   C     0.39617   0.61315   0.07960   0.00000  Uiso   1.00
C155   C     0.32844   0.67588   0.00716   0.00000  Uiso   1.00
C156   C     0.69107   0.58929   0.38844   0.00000  Uiso   1.00
C157   C     0.72071   0.55481   0.33216   0.00000  Uiso   1.00
C158   C     0.80139   0.59085   0.37521   0.00000  Uiso   1.00
C159   C     0.67062   0.55471   0.54905   0.00000  Uiso   1.00
C160   C     0.68308   0.49114   0.62782   0.00000  Uiso   1.00
C161   C     0.74658   0.49806   0.80614   0.00000  Uiso   1.00
H162   H     0.73370   0.73803   0.60714   0.00000  Uiso   1.00
H163   H     0.53452   0.80449   0.34920   0.00000  Uiso   1.00
H164   H     0.85901   0.74615   0.60173   0.00000  Uiso   1.00
H165   H     0.82139   0.68249   0.89735   0.00000  Uiso   1.00
H166   H     0.29200   0.84816   0.02090   0.00000  Uiso   1.00
H167   H     0.97624   0.72514   0.55343   0.00000  Uiso   1.00
H168   H     0.89691   0.59089   0.17681   0.00000  Uiso   1.00
H169   H     0.56648   0.50670   0.28125   0.00000  Uiso   1.00
H170   H     0.35812   0.56046   0.00542   0.00000  Uiso   1.00
H171   H     0.68262   0.50212   0.25795   0.00000  Uiso   1.00
H172   H     0.64499   0.43846   0.55357   0.00000  Uiso   1.00
H173   H     0.14882   0.65010   0.74187   0.00000  Uiso   1.00
H174   H     0.83307   0.52707   0.27441   0.00000  Uiso   1.00
H175   H     0.75374   0.39283   0.89778   0.00000  Uiso   1.00
O176   O     0.08636   0.78868   0.70578   0.00000  Uiso   1.00
O177   O     0.98408   0.62727   0.40448   0.00000  Uiso   1.00
O178   O     0.87999   0.45115   0.22233   0.00000  Uiso   1.00
N179   N     0.28689   0.79416   0.99310   0.00000  Uiso   1.00
N180   N     0.92660   0.67915   0.49096   0.00000  Uiso   1.00
N181   N     0.85247   0.55364   0.07379   0.00000  Uiso   1.00
N182   N     0.20985   0.68759   0.84296   0.00000  Uiso   1.00
N183   N     0.84956   0.57257   0.34082   0.00000  Uiso   1.00
N184   N     0.77542   0.44706   0.92365   0.00000  Uiso   1.00
