data_job_00857
_audit_creation_date              2018-12-19
_audit_creation_method            'Materials Studio'
_symmetry_space_group_name_H-M    'P1'
_symmetry_Int_Tables_number       1
_symmetry_cell_setting            triclinic
loop_
_symmetry_equiv_pos_as_xyz
  x,y,z
_cell_length_a                    34.9255
_cell_length_b                    7.5964
_cell_length_c                    31.0749
_cell_angle_alpha                 90.0000
_cell_angle_beta                  140.5731
_cell_angle_gamma                 90.0000
loop_
_atom_site_label
_atom_site_type_symbol
_atom_site_fract_x
_atom_site_fract_y
_atom_site_fract_z
_atom_site_U_iso_or_equiv
_atom_site_adp_type
_atom_site_occupancy
C1     C     0.44313   0.80927   0.57055   0.00000  Uiso   1.00
C2     C     0.50278   0.71117   0.62684   0.00000  Uiso   1.00
C3     C     0.55833   0.76942   0.66026   0.00000  Uiso   1.00
C4     C     0.60753   0.66045   0.71025   0.00000  Uiso   1.00
C5     C     0.70109   0.53264   0.79521   0.00000  Uiso   1.00
C6     C     0.40042   0.68354   0.51036   0.00000  Uiso   1.00
C7     C     0.36991   0.71857   0.44583   0.00000  Uiso   1.00
C8     C     0.33295   0.58633   0.39776   0.00000  Uiso   1.00
C9     C     0.26756   0.41567   0.30187   0.00000  Uiso   1.00
C10    C     0.41837   0.82946   0.59456   0.00000  Uiso   1.00
C11    C     0.40293   0.98718   0.60082   0.00000  Uiso   1.00
C12    C     0.38106   0.97779   0.62364   0.00000  Uiso   1.00
C13    C     0.34354   0.03370   0.65849   0.00000  Uiso   1.00
C14    C     0.43173   0.51214   0.59992   0.00000  Uiso   1.00
C15    C     0.49658   0.54978   0.64280   0.00000  Uiso   1.00
C16    C     0.54572   0.44069   0.69276   0.00000  Uiso   1.00
C17    C     0.60133   0.49877   0.72624   0.00000  Uiso   1.00
C18    C     0.39423   0.52215   0.52631   0.00000  Uiso   1.00
C19    C     0.35730   0.38983   0.47833   0.00000  Uiso   1.00
C20    C     0.32674   0.42465   0.41375   0.00000  Uiso   1.00
C21    C     0.41218   0.66807   0.61052   0.00000  Uiso   1.00
C22    C     0.39032   0.65844   0.63333   0.00000  Uiso   1.00
C23    C     0.37486   0.81611   0.63962   0.00000  Uiso   1.00
H24    H     0.44795   0.93491   0.55812   0.00000  Uiso   1.00
H25    H     0.56310   0.89432   0.64789   0.00000  Uiso   1.00
H26    H     0.37471   0.84348   0.43350   0.00000  Uiso   1.00
H27    H     0.40773   0.11204   0.58847   0.00000  Uiso   1.00
H28    H     0.68803   0.77812   0.75443   0.00000  Uiso   1.00
H29    H     0.29078   0.67095   0.30237   0.00000  Uiso   1.00
H30    H     0.36041   0.23727   0.62916   0.00000  Uiso   1.00
H31    H     0.42691   0.38648   0.61234   0.00000  Uiso   1.00
H32    H     0.54091   0.31580   0.70509   0.00000  Uiso   1.00
H33    H     0.35252   0.26496   0.49069   0.00000  Uiso   1.00
H34    H     0.38554   0.53352   0.64567   0.00000  Uiso   1.00
H35    H     0.67002   0.30857   0.80086   0.00000  Uiso   1.00
H36    H     0.27277   0.20140   0.34878   0.00000  Uiso   1.00
H37    H     0.34240   0.76771   0.67558   0.00000  Uiso   1.00
O38    O     0.75440   0.50672   0.83766   0.00000  Uiso   1.00
O39    O     0.23321   0.36612   0.24456   0.00000  Uiso   1.00
O40    O     0.32457   0.10912   0.67331   0.00000  Uiso   1.00
N41    N     0.66815   0.67733   0.75264   0.00000  Uiso   1.00
N42    N     0.29675   0.57712   0.32999   0.00000  Uiso   1.00
N43    N     0.36183   0.10657   0.63549   0.00000  Uiso   1.00
N44    N     0.65846   0.42467   0.77762   0.00000  Uiso   1.00
N45    N     0.28706   0.32445   0.35497   0.00000  Uiso   1.00
N46    N     0.35214   0.85391   0.66047   0.00000  Uiso   1.00
C47    C     0.94313   0.30927   0.57055   0.00000  Uiso   1.00
C48    C     0.00278   0.21117   0.62684   0.00000  Uiso   1.00
C49    C     0.05833   0.26942   0.66026   0.00000  Uiso   1.00
C50    C     0.10753   0.16045   0.71025   0.00000  Uiso   1.00
C51    C     0.20109   0.03264   0.79521   0.00000  Uiso   1.00
C52    C     0.90042   0.18354   0.51036   0.00000  Uiso   1.00
C53    C     0.86991   0.21857   0.44583   0.00000  Uiso   1.00
C54    C     0.83295   0.08633   0.39776   0.00000  Uiso   1.00
C55    C     0.76756   0.91567   0.30187   0.00000  Uiso   1.00
C56    C     0.91837   0.32946   0.59456   0.00000  Uiso   1.00
C57    C     0.90293   0.48718   0.60082   0.00000  Uiso   1.00
C58    C     0.88106   0.47779   0.62364   0.00000  Uiso   1.00
C59    C     0.84354   0.53370   0.65849   0.00000  Uiso   1.00
C60    C     0.93173   0.01214   0.59992   0.00000  Uiso   1.00
C61    C     0.99658   0.04978   0.64280   0.00000  Uiso   1.00
C62    C     0.04572   0.94069   0.69276   0.00000  Uiso   1.00
C63    C     0.10133   0.99877   0.72624   0.00000  Uiso   1.00
C64    C     0.89423   0.02215   0.52631   0.00000  Uiso   1.00
C65    C     0.85730   0.88983   0.47833   0.00000  Uiso   1.00
C66    C     0.82674   0.92465   0.41375   0.00000  Uiso   1.00
C67    C     0.91218   0.16807   0.61052   0.00000  Uiso   1.00
C68    C     0.89032   0.15844   0.63333   0.00000  Uiso   1.00
C69    C     0.87486   0.31611   0.63962   0.00000  Uiso   1.00
H70    H     0.94795   0.43491   0.55812   0.00000  Uiso   1.00
H71    H     0.06310   0.39432   0.64789   0.00000  Uiso   1.00
H72    H     0.87471   0.34348   0.43350   0.00000  Uiso   1.00
H73    H     0.90773   0.61204   0.58847   0.00000  Uiso   1.00
H74    H     0.18803   0.27812   0.75443   0.00000  Uiso   1.00
H75    H     0.79078   0.17095   0.30237   0.00000  Uiso   1.00
H76    H     0.86041   0.73727   0.62916   0.00000  Uiso   1.00
H77    H     0.92691   0.88648   0.61234   0.00000  Uiso   1.00
H78    H     0.04091   0.81580   0.70509   0.00000  Uiso   1.00
H79    H     0.85252   0.76496   0.49069   0.00000  Uiso   1.00
H80    H     0.88554   0.03352   0.64567   0.00000  Uiso   1.00
H81    H     0.17002   0.80857   0.80086   0.00000  Uiso   1.00
H82    H     0.77277   0.70140   0.34878   0.00000  Uiso   1.00
H83    H     0.84240   0.26771   0.67558   0.00000  Uiso   1.00
O84    O     0.25440   0.00672   0.83766   0.00000  Uiso   1.00
O85    O     0.73321   0.86612   0.24456   0.00000  Uiso   1.00
O86    O     0.82457   0.60912   0.67331   0.00000  Uiso   1.00
N87    N     0.16815   0.17733   0.75264   0.00000  Uiso   1.00
N88    N     0.79675   0.07712   0.32999   0.00000  Uiso   1.00
N89    N     0.86183   0.60657   0.63549   0.00000  Uiso   1.00
N90    N     0.15846   0.92467   0.77762   0.00000  Uiso   1.00
N91    N     0.78706   0.82445   0.35497   0.00000  Uiso   1.00
N92    N     0.85214   0.35391   0.66047   0.00000  Uiso   1.00
C93    C     0.55687   0.80927   0.92945   0.00000  Uiso   1.00
C94    C     0.49722   0.71117   0.87316   0.00000  Uiso   1.00
C95    C     0.44167   0.76942   0.83974   0.00000  Uiso   1.00
C96    C     0.39247   0.66045   0.78975   0.00000  Uiso   1.00
C97    C     0.29891   0.53264   0.70479   0.00000  Uiso   1.00
C98    C     0.59958   0.68354   0.98964   0.00000  Uiso   1.00
C99    C     0.63009   0.71857   0.05417   0.00000  Uiso   1.00
C100   C     0.66705   0.58633   0.10224   0.00000  Uiso   1.00
C101   C     0.73244   0.41567   0.19813   0.00000  Uiso   1.00
C102   C     0.58163   0.82946   0.90544   0.00000  Uiso   1.00
C103   C     0.59707   0.98718   0.89918   0.00000  Uiso   1.00
C104   C     0.61894   0.97779   0.87636   0.00000  Uiso   1.00
C105   C     0.65646   0.03370   0.84151   0.00000  Uiso   1.00
C106   C     0.56827   0.51214   0.90008   0.00000  Uiso   1.00
C107   C     0.50342   0.54978   0.85720   0.00000  Uiso   1.00
C108   C     0.45428   0.44069   0.80724   0.00000  Uiso   1.00
C109   C     0.39867   0.49877   0.77376   0.00000  Uiso   1.00
C110   C     0.60577   0.52215   0.97369   0.00000  Uiso   1.00
C111   C     0.64270   0.38983   0.02167   0.00000  Uiso   1.00
C112   C     0.67326   0.42465   0.08625   0.00000  Uiso   1.00
C113   C     0.58782   0.66807   0.88948   0.00000  Uiso   1.00
C114   C     0.60968   0.65844   0.86667   0.00000  Uiso   1.00
C115   C     0.62514   0.81611   0.86038   0.00000  Uiso   1.00
H116   H     0.55205   0.93491   0.94188   0.00000  Uiso   1.00
H117   H     0.43690   0.89432   0.85211   0.00000  Uiso   1.00
H118   H     0.62529   0.84348   0.06650   0.00000  Uiso   1.00
H119   H     0.59227   0.11204   0.91153   0.00000  Uiso   1.00
H120   H     0.31197   0.77812   0.74557   0.00000  Uiso   1.00
H121   H     0.70922   0.67095   0.19763   0.00000  Uiso   1.00
H122   H     0.63959   0.23727   0.87084   0.00000  Uiso   1.00
H123   H     0.57309   0.38648   0.88766   0.00000  Uiso   1.00
H124   H     0.45909   0.31580   0.79491   0.00000  Uiso   1.00
H125   H     0.64748   0.26496   0.00931   0.00000  Uiso   1.00
H126   H     0.61446   0.53352   0.85433   0.00000  Uiso   1.00
H127   H     0.32998   0.30857   0.69914   0.00000  Uiso   1.00
H128   H     0.72723   0.20140   0.15122   0.00000  Uiso   1.00
H129   H     0.65760   0.76771   0.82442   0.00000  Uiso   1.00
O130   O     0.24560   0.50672   0.66234   0.00000  Uiso   1.00
O131   O     0.76679   0.36612   0.25544   0.00000  Uiso   1.00
O132   O     0.67543   0.10912   0.82669   0.00000  Uiso   1.00
N133   N     0.33185   0.67733   0.74736   0.00000  Uiso   1.00
N134   N     0.70325   0.57712   0.17001   0.00000  Uiso   1.00
N135   N     0.63817   0.10657   0.86451   0.00000  Uiso   1.00
N136   N     0.34154   0.42467   0.72238   0.00000  Uiso   1.00
N137   N     0.71294   0.32445   0.14503   0.00000  Uiso   1.00
N138   N     0.64786   0.85391   0.83953   0.00000  Uiso   1.00
C139   C     0.05687   0.30927   0.92945   0.00000  Uiso   1.00
C140   C     0.99722   0.21117   0.87316   0.00000  Uiso   1.00
C141   C     0.94167   0.26942   0.83974   0.00000  Uiso   1.00
C142   C     0.89247   0.16045   0.78975   0.00000  Uiso   1.00
C143   C     0.79891   0.03264   0.70479   0.00000  Uiso   1.00
C144   C     0.09958   0.18354   0.98964   0.00000  Uiso   1.00
C145   C     0.13009   0.21857   0.05417   0.00000  Uiso   1.00
C146   C     0.16705   0.08633   0.10224   0.00000  Uiso   1.00
C147   C     0.23244   0.91567   0.19813   0.00000  Uiso   1.00
C148   C     0.08163   0.32946   0.90544   0.00000  Uiso   1.00
C149   C     0.09707   0.48718   0.89918   0.00000  Uiso   1.00
C150   C     0.11894   0.47779   0.87636   0.00000  Uiso   1.00
C151   C     0.15646   0.53370   0.84151   0.00000  Uiso   1.00
C152   C     0.06827   0.01214   0.90008   0.00000  Uiso   1.00
C153   C     0.00342   0.04978   0.85720   0.00000  Uiso   1.00
C154   C     0.95428   0.94069   0.80724   0.00000  Uiso   1.00
C155   C     0.89867   0.99877   0.77376   0.00000  Uiso   1.00
C156   C     0.10577   0.02215   0.97369   0.00000  Uiso   1.00
C157   C     0.14270   0.88983   0.02167   0.00000  Uiso   1.00
C158   C     0.17326   0.92465   0.08625   0.00000  Uiso   1.00
C159   C     0.08782   0.16807   0.88948   0.00000  Uiso   1.00
C160   C     0.10968   0.15844   0.86667   0.00000  Uiso   1.00
C161   C     0.12514   0.31611   0.86038   0.00000  Uiso   1.00
H162   H     0.05205   0.43491   0.94188   0.00000  Uiso   1.00
H163   H     0.93690   0.39432   0.85211   0.00000  Uiso   1.00
H164   H     0.12529   0.34348   0.06650   0.00000  Uiso   1.00
H165   H     0.09227   0.61204   0.91153   0.00000  Uiso   1.00
H166   H     0.81197   0.27812   0.74557   0.00000  Uiso   1.00
H167   H     0.20922   0.17095   0.19763   0.00000  Uiso   1.00
H168   H     0.13959   0.73727   0.87084   0.00000  Uiso   1.00
H169   H     0.07309   0.88648   0.88766   0.00000  Uiso   1.00
H170   H     0.95909   0.81580   0.79491   0.00000  Uiso   1.00
H171   H     0.14748   0.76496   0.00931   0.00000  Uiso   1.00
H172   H     0.11446   0.03352   0.85433   0.00000  Uiso   1.00
H173   H     0.82998   0.80857   0.69914   0.00000  Uiso   1.00
H174   H     0.22723   0.70140   0.15122   0.00000  Uiso   1.00
H175   H     0.15760   0.26771   0.82442   0.00000  Uiso   1.00
O176   O     0.74560   0.00672   0.66234   0.00000  Uiso   1.00
O177   O     0.26679   0.86612   0.25544   0.00000  Uiso   1.00
O178   O     0.17543   0.60912   0.82669   0.00000  Uiso   1.00
N179   N     0.83185   0.17733   0.74736   0.00000  Uiso   1.00
N180   N     0.20325   0.07712   0.17001   0.00000  Uiso   1.00
N181   N     0.13817   0.60657   0.86451   0.00000  Uiso   1.00
N182   N     0.84154   0.92467   0.72238   0.00000  Uiso   1.00
N183   N     0.21294   0.82445   0.14503   0.00000  Uiso   1.00
N184   N     0.14786   0.35391   0.83953   0.00000  Uiso   1.00
C185   C     0.55687   0.19073   0.42945   0.00000  Uiso   1.00
C186   C     0.49722   0.28883   0.37316   0.00000  Uiso   1.00
C187   C     0.44167   0.23058   0.33974   0.00000  Uiso   1.00
C188   C     0.39247   0.33955   0.28975   0.00000  Uiso   1.00
C189   C     0.29891   0.46736   0.20479   0.00000  Uiso   1.00
C190   C     0.59958   0.31646   0.48964   0.00000  Uiso   1.00
C191   C     0.63009   0.28143   0.55417   0.00000  Uiso   1.00
C192   C     0.66705   0.41367   0.60224   0.00000  Uiso   1.00
C193   C     0.73244   0.58433   0.69813   0.00000  Uiso   1.00
C194   C     0.58163   0.17054   0.40544   0.00000  Uiso   1.00
C195   C     0.59707   0.01282   0.39918   0.00000  Uiso   1.00
C196   C     0.61894   0.02221   0.37636   0.00000  Uiso   1.00
C197   C     0.65646   0.96630   0.34151   0.00000  Uiso   1.00
C198   C     0.56827   0.48786   0.40008   0.00000  Uiso   1.00
C199   C     0.50342   0.45022   0.35720   0.00000  Uiso   1.00
C200   C     0.45428   0.55931   0.30724   0.00000  Uiso   1.00
C201   C     0.39867   0.50123   0.27376   0.00000  Uiso   1.00
C202   C     0.60577   0.47785   0.47369   0.00000  Uiso   1.00
C203   C     0.64270   0.61017   0.52167   0.00000  Uiso   1.00
C204   C     0.67326   0.57535   0.58625   0.00000  Uiso   1.00
C205   C     0.58782   0.33193   0.38948   0.00000  Uiso   1.00
C206   C     0.60968   0.34156   0.36667   0.00000  Uiso   1.00
C207   C     0.62514   0.18389   0.36038   0.00000  Uiso   1.00
H208   H     0.55205   0.06509   0.44188   0.00000  Uiso   1.00
H209   H     0.43690   0.10568   0.35211   0.00000  Uiso   1.00
H210   H     0.62529   0.15652   0.56650   0.00000  Uiso   1.00
H211   H     0.59227   0.88796   0.41153   0.00000  Uiso   1.00
H212   H     0.31197   0.22188   0.24557   0.00000  Uiso   1.00
H213   H     0.70922   0.32905   0.69763   0.00000  Uiso   1.00
H214   H     0.63959   0.76273   0.37084   0.00000  Uiso   1.00
H215   H     0.57309   0.61352   0.38766   0.00000  Uiso   1.00
H216   H     0.45909   0.68420   0.29491   0.00000  Uiso   1.00
H217   H     0.64748   0.73504   0.50931   0.00000  Uiso   1.00
H218   H     0.61446   0.46648   0.35433   0.00000  Uiso   1.00
H219   H     0.32998   0.69143   0.19914   0.00000  Uiso   1.00
H220   H     0.72723   0.79860   0.65122   0.00000  Uiso   1.00
H221   H     0.65760   0.23229   0.32442   0.00000  Uiso   1.00
O222   O     0.24560   0.49328   0.16234   0.00000  Uiso   1.00
O223   O     0.76679   0.63388   0.75544   0.00000  Uiso   1.00
O224   O     0.67543   0.89088   0.32669   0.00000  Uiso   1.00
N225   N     0.33185   0.32267   0.24736   0.00000  Uiso   1.00
N226   N     0.70325   0.42288   0.67001   0.00000  Uiso   1.00
N227   N     0.63817   0.89343   0.36451   0.00000  Uiso   1.00
N228   N     0.34154   0.57533   0.22238   0.00000  Uiso   1.00
N229   N     0.71294   0.67555   0.64503   0.00000  Uiso   1.00
N230   N     0.64786   0.14609   0.33953   0.00000  Uiso   1.00
C231   C     0.05687   0.69073   0.42945   0.00000  Uiso   1.00
C232   C     0.99722   0.78883   0.37316   0.00000  Uiso   1.00
C233   C     0.94167   0.73058   0.33974   0.00000  Uiso   1.00
C234   C     0.89247   0.83955   0.28975   0.00000  Uiso   1.00
C235   C     0.79891   0.96736   0.20479   0.00000  Uiso   1.00
C236   C     0.09958   0.81646   0.48964   0.00000  Uiso   1.00
C237   C     0.13009   0.78143   0.55417   0.00000  Uiso   1.00
C238   C     0.16705   0.91367   0.60224   0.00000  Uiso   1.00
C239   C     0.23244   0.08433   0.69813   0.00000  Uiso   1.00
C240   C     0.08163   0.67054   0.40544   0.00000  Uiso   1.00
C241   C     0.09707   0.51282   0.39918   0.00000  Uiso   1.00
C242   C     0.11894   0.52221   0.37636   0.00000  Uiso   1.00
C243   C     0.15646   0.46630   0.34151   0.00000  Uiso   1.00
C244   C     0.06827   0.98786   0.40008   0.00000  Uiso   1.00
C245   C     0.00342   0.95022   0.35720   0.00000  Uiso   1.00
C246   C     0.95428   0.05931   0.30724   0.00000  Uiso   1.00
C247   C     0.89867   0.00123   0.27376   0.00000  Uiso   1.00
C248   C     0.10577   0.97785   0.47369   0.00000  Uiso   1.00
C249   C     0.14270   0.11017   0.52167   0.00000  Uiso   1.00
C250   C     0.17326   0.07535   0.58625   0.00000  Uiso   1.00
C251   C     0.08782   0.83193   0.38948   0.00000  Uiso   1.00
C252   C     0.10968   0.84156   0.36667   0.00000  Uiso   1.00
C253   C     0.12514   0.68389   0.36038   0.00000  Uiso   1.00
H254   H     0.05205   0.56509   0.44188   0.00000  Uiso   1.00
H255   H     0.93690   0.60568   0.35211   0.00000  Uiso   1.00
H256   H     0.12529   0.65652   0.56650   0.00000  Uiso   1.00
H257   H     0.09227   0.38796   0.41153   0.00000  Uiso   1.00
H258   H     0.81197   0.72188   0.24557   0.00000  Uiso   1.00
H259   H     0.20922   0.82905   0.69763   0.00000  Uiso   1.00
H260   H     0.13959   0.26273   0.37084   0.00000  Uiso   1.00
H261   H     0.07309   0.11352   0.38766   0.00000  Uiso   1.00
H262   H     0.95909   0.18420   0.29491   0.00000  Uiso   1.00
H263   H     0.14748   0.23504   0.50931   0.00000  Uiso   1.00
H264   H     0.11446   0.96648   0.35433   0.00000  Uiso   1.00
H265   H     0.82998   0.19143   0.19914   0.00000  Uiso   1.00
H266   H     0.22723   0.29860   0.65122   0.00000  Uiso   1.00
H267   H     0.15760   0.73229   0.32442   0.00000  Uiso   1.00
O268   O     0.74560   0.99328   0.16234   0.00000  Uiso   1.00
O269   O     0.26679   0.13388   0.75544   0.00000  Uiso   1.00
O270   O     0.17543   0.39088   0.32669   0.00000  Uiso   1.00
N271   N     0.83185   0.82267   0.24736   0.00000  Uiso   1.00
N272   N     0.20325   0.92288   0.67001   0.00000  Uiso   1.00
N273   N     0.13817   0.39343   0.36451   0.00000  Uiso   1.00
N274   N     0.84154   0.07533   0.22238   0.00000  Uiso   1.00
N275   N     0.21294   0.17555   0.64503   0.00000  Uiso   1.00
N276   N     0.14786   0.64609   0.33953   0.00000  Uiso   1.00
C277   C     0.44313   0.19073   0.07055   0.00000  Uiso   1.00
C278   C     0.50278   0.28883   0.12684   0.00000  Uiso   1.00
C279   C     0.55833   0.23058   0.16026   0.00000  Uiso   1.00
C280   C     0.60753   0.33955   0.21025   0.00000  Uiso   1.00
C281   C     0.70109   0.46736   0.29521   0.00000  Uiso   1.00
C282   C     0.40042   0.31646   0.01036   0.00000  Uiso   1.00
C283   C     0.36991   0.28143   0.94583   0.00000  Uiso   1.00
C284   C     0.33295   0.41367   0.89776   0.00000  Uiso   1.00
C285   C     0.26756   0.58433   0.80187   0.00000  Uiso   1.00
C286   C     0.41837   0.17054   0.09456   0.00000  Uiso   1.00
C287   C     0.40293   0.01282   0.10082   0.00000  Uiso   1.00
C288   C     0.38106   0.02221   0.12364   0.00000  Uiso   1.00
C289   C     0.34354   0.96630   0.15849   0.00000  Uiso   1.00
C290   C     0.43173   0.48786   0.09992   0.00000  Uiso   1.00
C291   C     0.49658   0.45022   0.14280   0.00000  Uiso   1.00
C292   C     0.54572   0.55931   0.19276   0.00000  Uiso   1.00
C293   C     0.60133   0.50123   0.22624   0.00000  Uiso   1.00
C294   C     0.39423   0.47785   0.02631   0.00000  Uiso   1.00
C295   C     0.35730   0.61017   0.97833   0.00000  Uiso   1.00
C296   C     0.32674   0.57535   0.91375   0.00000  Uiso   1.00
C297   C     0.41218   0.33193   0.11052   0.00000  Uiso   1.00
C298   C     0.39032   0.34156   0.13333   0.00000  Uiso   1.00
C299   C     0.37486   0.18389   0.13962   0.00000  Uiso   1.00
H300   H     0.44795   0.06509   0.05812   0.00000  Uiso   1.00
H301   H     0.56310   0.10568   0.14789   0.00000  Uiso   1.00
H302   H     0.37471   0.15652   0.93350   0.00000  Uiso   1.00
H303   H     0.40773   0.88796   0.08847   0.00000  Uiso   1.00
H304   H     0.68803   0.22188   0.25443   0.00000  Uiso   1.00
H305   H     0.29078   0.32905   0.80237   0.00000  Uiso   1.00
H306   H     0.36041   0.76273   0.12916   0.00000  Uiso   1.00
H307   H     0.42691   0.61352   0.11234   0.00000  Uiso   1.00
H308   H     0.54091   0.68420   0.20509   0.00000  Uiso   1.00
H309   H     0.35252   0.73504   0.99069   0.00000  Uiso   1.00
H310   H     0.38554   0.46648   0.14567   0.00000  Uiso   1.00
H311   H     0.67002   0.69143   0.30086   0.00000  Uiso   1.00
H312   H     0.27277   0.79860   0.84878   0.00000  Uiso   1.00
H313   H     0.34240   0.23229   0.17558   0.00000  Uiso   1.00
O314   O     0.75440   0.49328   0.33766   0.00000  Uiso   1.00
O315   O     0.23321   0.63388   0.74456   0.00000  Uiso   1.00
O316   O     0.32457   0.89088   0.17331   0.00000  Uiso   1.00
N317   N     0.66815   0.32267   0.25264   0.00000  Uiso   1.00
N318   N     0.29675   0.42288   0.82999   0.00000  Uiso   1.00
N319   N     0.36183   0.89343   0.13549   0.00000  Uiso   1.00
N320   N     0.65846   0.57533   0.27762   0.00000  Uiso   1.00
N321   N     0.28706   0.67555   0.85497   0.00000  Uiso   1.00
N322   N     0.35214   0.14609   0.16047   0.00000  Uiso   1.00
C323   C     0.94313   0.69073   0.07055   0.00000  Uiso   1.00
C324   C     0.00278   0.78883   0.12684   0.00000  Uiso   1.00
C325   C     0.05833   0.73058   0.16026   0.00000  Uiso   1.00
C326   C     0.10753   0.83955   0.21025   0.00000  Uiso   1.00
C327   C     0.20109   0.96736   0.29521   0.00000  Uiso   1.00
C328   C     0.90042   0.81646   0.01036   0.00000  Uiso   1.00
C329   C     0.86991   0.78143   0.94583   0.00000  Uiso   1.00
C330   C     0.83295   0.91367   0.89776   0.00000  Uiso   1.00
C331   C     0.76756   0.08433   0.80187   0.00000  Uiso   1.00
C332   C     0.91837   0.67054   0.09456   0.00000  Uiso   1.00
C333   C     0.90293   0.51282   0.10082   0.00000  Uiso   1.00
C334   C     0.88106   0.52221   0.12364   0.00000  Uiso   1.00
C335   C     0.84354   0.46630   0.15849   0.00000  Uiso   1.00
C336   C     0.93173   0.98786   0.09992   0.00000  Uiso   1.00
C337   C     0.99658   0.95022   0.14280   0.00000  Uiso   1.00
C338   C     0.04572   0.05931   0.19276   0.00000  Uiso   1.00
C339   C     0.10133   0.00123   0.22624   0.00000  Uiso   1.00
C340   C     0.89423   0.97785   0.02631   0.00000  Uiso   1.00
C341   C     0.85730   0.11017   0.97833   0.00000  Uiso   1.00
C342   C     0.82674   0.07535   0.91375   0.00000  Uiso   1.00
C343   C     0.91218   0.83193   0.11052   0.00000  Uiso   1.00
C344   C     0.89032   0.84156   0.13333   0.00000  Uiso   1.00
C345   C     0.87486   0.68389   0.13962   0.00000  Uiso   1.00
H346   H     0.94795   0.56509   0.05812   0.00000  Uiso   1.00
H347   H     0.06310   0.60568   0.14789   0.00000  Uiso   1.00
H348   H     0.87471   0.65652   0.93350   0.00000  Uiso   1.00
H349   H     0.90773   0.38796   0.08847   0.00000  Uiso   1.00
H350   H     0.18803   0.72188   0.25443   0.00000  Uiso   1.00
H351   H     0.79078   0.82905   0.80237   0.00000  Uiso   1.00
H352   H     0.86041   0.26273   0.12916   0.00000  Uiso   1.00
H353   H     0.92691   0.11352   0.11234   0.00000  Uiso   1.00
H354   H     0.04091   0.18420   0.20509   0.00000  Uiso   1.00
H355   H     0.85252   0.23504   0.99069   0.00000  Uiso   1.00
H356   H     0.88554   0.96648   0.14567   0.00000  Uiso   1.00
H357   H     0.17002   0.19143   0.30086   0.00000  Uiso   1.00
H358   H     0.77277   0.29860   0.84878   0.00000  Uiso   1.00
H359   H     0.84240   0.73229   0.17558   0.00000  Uiso   1.00
O360   O     0.25440   0.99328   0.33766   0.00000  Uiso   1.00
O361   O     0.73321   0.13388   0.74456   0.00000  Uiso   1.00
O362   O     0.82457   0.39088   0.17331   0.00000  Uiso   1.00
N363   N     0.16815   0.82267   0.25264   0.00000  Uiso   1.00
N364   N     0.79675   0.92288   0.82999   0.00000  Uiso   1.00
N365   N     0.86183   0.39343   0.13549   0.00000  Uiso   1.00
N366   N     0.15846   0.07533   0.27762   0.00000  Uiso   1.00
N367   N     0.78706   0.17555   0.85497   0.00000  Uiso   1.00
N368   N     0.85214   0.64609   0.16047   0.00000  Uiso   1.00
