data_job_04497
_audit_creation_date              2018-12-19
_audit_creation_method            'Materials Studio'
_symmetry_space_group_name_H-M    'P1'
_symmetry_Int_Tables_number       1
_symmetry_cell_setting            triclinic
loop_
_symmetry_equiv_pos_as_xyz
  x,y,z
_cell_length_a                    14.9443
_cell_length_b                    25.5791
_cell_length_c                    11.9506
_cell_angle_alpha                 90.0000
_cell_angle_beta                  90.0000
_cell_angle_gamma                 90.0000
loop_
_atom_site_label
_atom_site_type_symbol
_atom_site_fract_x
_atom_site_fract_y
_atom_site_fract_z
_atom_site_U_iso_or_equiv
_atom_site_adp_type
_atom_site_occupancy
C1     C     0.71117   0.24379   0.45089   0.00000  Uiso   1.00
C2     C     0.78772   0.20552   0.43065   0.00000  Uiso   1.00
C3     C     0.77912   0.15507   0.38929   0.00000  Uiso   1.00
C4     C     0.85723   0.12627   0.37684   0.00000  Uiso   1.00
C5     C     0.96335   0.06364   0.34122   0.00000  Uiso   1.00
C6     C     0.71752   0.25960   0.57367   0.00000  Uiso   1.00
C7     C     0.64990   0.25463   0.65255   0.00000  Uiso   1.00
C8     C     0.66892   0.27136   0.76049   0.00000  Uiso   1.00
C9     C     0.66604   0.29274   0.94688   0.00000  Uiso   1.00
C10    C     0.73383   0.29268   0.38359   0.00000  Uiso   1.00
C11    C     0.67991   0.31554   0.30268   0.00000  Uiso   1.00
C12    C     0.71265   0.36013   0.25060   0.00000  Uiso   1.00
C13    C     0.73509   0.43287   0.14188   0.00000  Uiso   1.00
C14    C     0.86519   0.28235   0.50230   0.00000  Uiso   1.00
C15    C     0.87137   0.22646   0.45858   0.00000  Uiso   1.00
C16    C     0.94952   0.19773   0.44618   0.00000  Uiso   1.00
C17    C     0.94104   0.14725   0.40481   0.00000  Uiso   1.00
C18    C     0.80117   0.28054   0.60159   0.00000  Uiso   1.00
C19    C     0.82029   0.29729   0.70943   0.00000  Uiso   1.00
C20    C     0.75272   0.29235   0.78846   0.00000  Uiso   1.00
C21    C     0.81748   0.31363   0.41151   0.00000  Uiso   1.00
C22    C     0.85031   0.35820   0.35956   0.00000  Uiso   1.00
C23    C     0.79645   0.38111   0.27858   0.00000  Uiso   1.00
H24    H     0.64604   0.22749   0.42915   0.00000  Uiso   1.00
H25    H     0.71437   0.13887   0.36770   0.00000  Uiso   1.00
H26    H     0.58517   0.23843   0.63091   0.00000  Uiso   1.00
H27    H     0.61518   0.29932   0.28110   0.00000  Uiso   1.00
H28    H     0.82701   0.04986   0.31193   0.00000  Uiso   1.00
H29    H     0.55456   0.25979   0.86691   0.00000  Uiso   1.00
H30    H     0.61784   0.38819   0.12925   0.00000  Uiso   1.00
H31    H     0.93031   0.29866   0.52404   0.00000  Uiso   1.00
H32    H     0.01424   0.21395   0.46779   0.00000  Uiso   1.00
H33    H     0.88504   0.31350   0.73101   0.00000  Uiso   1.00
H34    H     0.91505   0.37439   0.38119   0.00000  Uiso   1.00
H35    H     0.07039   0.11079   0.39317   0.00000  Uiso   1.00
H36    H     0.79795   0.32072   0.94816   0.00000  Uiso   1.00
H37    H     0.86123   0.44913   0.21050   0.00000  Uiso   1.00
O38    O     0.99878   0.02331   0.31387   0.00000  Uiso   1.00
O39    O     0.64134   0.29873   0.04198   0.00000  Uiso   1.00
O40    O     0.72436   0.46720   0.07419   0.00000  Uiso   1.00
N41    N     0.87277   0.07583   0.33874   0.00000  Uiso   1.00
N42    N     0.61806   0.27209   0.85763   0.00000  Uiso   1.00
N43    N     0.67721   0.39215   0.16800   0.00000  Uiso   1.00
N44    N     0.00374   0.10862   0.38246   0.00000  Uiso   1.00
N45    N     0.74902   0.30488   0.90135   0.00000  Uiso   1.00
N46    N     0.80817   0.42494   0.21172   0.00000  Uiso   1.00
C47    C     0.34293   0.88945   0.56572   0.00000  Uiso   1.00
C48    C     0.25741   0.85732   0.57663   0.00000  Uiso   1.00
C49    C     0.25193   0.80643   0.61627   0.00000  Uiso   1.00
C50    C     0.16749   0.78386   0.61972   0.00000  Uiso   1.00
C51    C     0.04629   0.72981   0.64192   0.00000  Uiso   1.00
C52    C     0.34805   0.90629   0.44349   0.00000  Uiso   1.00
C53    C     0.41880   0.89657   0.37119   0.00000  Uiso   1.00
C54    C     0.41066   0.91523   0.26256   0.00000  Uiso   1.00
C55    C     0.43022   0.93723   0.07808   0.00000  Uiso   1.00
C56    C     0.32721   0.93928   0.63294   0.00000  Uiso   1.00
C57    C     0.38045   0.95731   0.71991   0.00000  Uiso   1.00
C58    C     0.35478   0.00375   0.77078   0.00000  Uiso   1.00
C59    C     0.34198   0.07697   0.88045   0.00000  Uiso   1.00
C60    C     0.20268   0.93987   0.50137   0.00000  Uiso   1.00
C61    C     0.18123   0.88471   0.54167   0.00000  Uiso   1.00
C62    C     0.09677   0.86222   0.54507   0.00000  Uiso   1.00
C63    C     0.09117   0.81130   0.58470   0.00000  Uiso   1.00
C64    C     0.27188   0.93368   0.40853   0.00000  Uiso   1.00
C65    C     0.26363   0.95236   0.29999   0.00000  Uiso   1.00
C66    C     0.33435   0.94267   0.22754   0.00000  Uiso   1.00
C67    C     0.25104   0.96667   0.59799   0.00000  Uiso   1.00
C68    C     0.22528   0.01310   0.64872   0.00000  Uiso   1.00
C69    C     0.27847   0.03119   0.73576   0.00000  Uiso   1.00
H70    H     0.40223   0.86812   0.59293   0.00000  Uiso   1.00
H71    H     0.31090   0.78524   0.64330   0.00000  Uiso   1.00
H72    H     0.47774   0.87538   0.39826   0.00000  Uiso   1.00
H73    H     0.43939   0.93610   0.74694   0.00000  Uiso   1.00
H74    H     0.17606   0.70543   0.68369   0.00000  Uiso   1.00
H75    H     0.52786   0.89549   0.16703   0.00000  Uiso   1.00
H76    H     0.44700   0.02355   0.90228   0.00000  Uiso   1.00
H77    H     0.14338   0.96120   0.47415   0.00000  Uiso   1.00
H78    H     0.03783   0.88342   0.51801   0.00000  Uiso   1.00
H79    H     0.20468   0.97355   0.27297   0.00000  Uiso   1.00
H80    H     0.16633   0.03428   0.62165   0.00000  Uiso   1.00
H81    H     0.95442   0.78511   0.58200   0.00000  Uiso   1.00
H82    H     0.30623   0.97518   0.06533   0.00000  Uiso   1.00
H83    H     0.22537   0.10323   0.80059   0.00000  Uiso   1.00
O84    O     0.00049   0.69242   0.66380   0.00000  Uiso   1.00
O85    O     0.46205   0.94179   0.98597   0.00000  Uiso   1.00
O86    O     0.35596   0.10979   0.95061   0.00000  Uiso   1.00
N87    N     0.13838   0.73486   0.65376   0.00000  Uiso   1.00
N88    N     0.46729   0.91255   0.17071   0.00000  Uiso   1.00
N89    N     0.39170   0.03228   0.85809   0.00000  Uiso   1.00
N90    N     0.01912   0.77774   0.59904   0.00000  Uiso   1.00
N91    N     0.34803   0.95543   0.11599   0.00000  Uiso   1.00
N92    N     0.27245   0.07516   0.80337   0.00000  Uiso   1.00
C93    C     0.28883   0.75621   0.95089   0.00000  Uiso   1.00
C94    C     0.21228   0.79448   0.93065   0.00000  Uiso   1.00
C95    C     0.22088   0.84493   0.88929   0.00000  Uiso   1.00
C96    C     0.14277   0.87373   0.87684   0.00000  Uiso   1.00
C97    C     0.03665   0.93636   0.84122   0.00000  Uiso   1.00
C98    C     0.28248   0.74040   0.07367   0.00000  Uiso   1.00
C99    C     0.35010   0.74537   0.15255   0.00000  Uiso   1.00
C100   C     0.33108   0.72864   0.26049   0.00000  Uiso   1.00
C101   C     0.33396   0.70726   0.44688   0.00000  Uiso   1.00
C102   C     0.26617   0.70732   0.88359   0.00000  Uiso   1.00
C103   C     0.32009   0.68446   0.80268   0.00000  Uiso   1.00
C104   C     0.28735   0.63987   0.75060   0.00000  Uiso   1.00
C105   C     0.26491   0.56713   0.64188   0.00000  Uiso   1.00
C106   C     0.13481   0.71765   0.00230   0.00000  Uiso   1.00
C107   C     0.12863   0.77354   0.95858   0.00000  Uiso   1.00
C108   C     0.05048   0.80227   0.94618   0.00000  Uiso   1.00
C109   C     0.05896   0.85275   0.90481   0.00000  Uiso   1.00
C110   C     0.19883   0.71946   0.10159   0.00000  Uiso   1.00
C111   C     0.17971   0.70271   0.20943   0.00000  Uiso   1.00
C112   C     0.24728   0.70765   0.28846   0.00000  Uiso   1.00
C113   C     0.18252   0.68637   0.91151   0.00000  Uiso   1.00
C114   C     0.14969   0.64180   0.85956   0.00000  Uiso   1.00
C115   C     0.20355   0.61889   0.77858   0.00000  Uiso   1.00
H116   H     0.35396   0.77251   0.92915   0.00000  Uiso   1.00
H117   H     0.28563   0.86113   0.86770   0.00000  Uiso   1.00
H118   H     0.41483   0.76157   0.13091   0.00000  Uiso   1.00
H119   H     0.38482   0.70068   0.78110   0.00000  Uiso   1.00
H120   H     0.17299   0.95014   0.81193   0.00000  Uiso   1.00
H121   H     0.44544   0.74021   0.36691   0.00000  Uiso   1.00
H122   H     0.38216   0.61181   0.62925   0.00000  Uiso   1.00
H123   H     0.06969   0.70134   0.02404   0.00000  Uiso   1.00
H124   H     0.98576   0.78605   0.96779   0.00000  Uiso   1.00
H125   H     0.11496   0.68650   0.23101   0.00000  Uiso   1.00
H126   H     0.08495   0.62561   0.88119   0.00000  Uiso   1.00
H127   H     0.92961   0.88921   0.89317   0.00000  Uiso   1.00
H128   H     0.20205   0.67928   0.44816   0.00000  Uiso   1.00
H129   H     0.13877   0.55087   0.71050   0.00000  Uiso   1.00
O130   O     0.00122   0.97669   0.81387   0.00000  Uiso   1.00
O131   O     0.35866   0.70127   0.54198   0.00000  Uiso   1.00
O132   O     0.27564   0.53280   0.57419   0.00000  Uiso   1.00
N133   N     0.12723   0.92417   0.83874   0.00000  Uiso   1.00
N134   N     0.38194   0.72791   0.35763   0.00000  Uiso   1.00
N135   N     0.32279   0.60785   0.66800   0.00000  Uiso   1.00
N136   N     0.99626   0.89138   0.88246   0.00000  Uiso   1.00
N137   N     0.25098   0.69512   0.40135   0.00000  Uiso   1.00
N138   N     0.19183   0.57506   0.71172   0.00000  Uiso   1.00
C139   C     0.65707   0.11055   0.06572   0.00000  Uiso   1.00
C140   C     0.74259   0.14268   0.07663   0.00000  Uiso   1.00
C141   C     0.74807   0.19357   0.11627   0.00000  Uiso   1.00
C142   C     0.83251   0.21614   0.11972   0.00000  Uiso   1.00
C143   C     0.95371   0.27019   0.14192   0.00000  Uiso   1.00
C144   C     0.65195   0.09371   0.94349   0.00000  Uiso   1.00
C145   C     0.58120   0.10343   0.87119   0.00000  Uiso   1.00
C146   C     0.58934   0.08477   0.76256   0.00000  Uiso   1.00
C147   C     0.56978   0.06277   0.57808   0.00000  Uiso   1.00
C148   C     0.67279   0.06072   0.13294   0.00000  Uiso   1.00
C149   C     0.61955   0.04269   0.21991   0.00000  Uiso   1.00
C150   C     0.64522   0.99625   0.27078   0.00000  Uiso   1.00
C151   C     0.65802   0.92303   0.38045   0.00000  Uiso   1.00
C152   C     0.79732   0.06013   0.00137   0.00000  Uiso   1.00
C153   C     0.81877   0.11529   0.04167   0.00000  Uiso   1.00
C154   C     0.90323   0.13778   0.04507   0.00000  Uiso   1.00
C155   C     0.90883   0.18870   0.08470   0.00000  Uiso   1.00
C156   C     0.72812   0.06632   0.90853   0.00000  Uiso   1.00
C157   C     0.73637   0.04764   0.79999   0.00000  Uiso   1.00
C158   C     0.66565   0.05733   0.72754   0.00000  Uiso   1.00
C159   C     0.74896   0.03333   0.09799   0.00000  Uiso   1.00
C160   C     0.77472   0.98690   0.14872   0.00000  Uiso   1.00
C161   C     0.72153   0.96881   0.23576   0.00000  Uiso   1.00
H162   H     0.59777   0.13188   0.09293   0.00000  Uiso   1.00
H163   H     0.68910   0.21476   0.14330   0.00000  Uiso   1.00
H164   H     0.52226   0.12462   0.89826   0.00000  Uiso   1.00
H165   H     0.56061   0.06390   0.24694   0.00000  Uiso   1.00
H166   H     0.82394   0.29457   0.18369   0.00000  Uiso   1.00
H167   H     0.47214   0.10451   0.66703   0.00000  Uiso   1.00
H168   H     0.55300   0.97645   0.40228   0.00000  Uiso   1.00
H169   H     0.85662   0.03880   0.97415   0.00000  Uiso   1.00
H170   H     0.96217   0.11658   0.01801   0.00000  Uiso   1.00
H171   H     0.79532   0.02645   0.77297   0.00000  Uiso   1.00
H172   H     0.83367   0.96572   0.12165   0.00000  Uiso   1.00
H173   H     0.04558   0.21489   0.08200   0.00000  Uiso   1.00
H174   H     0.69377   0.02482   0.56533   0.00000  Uiso   1.00
H175   H     0.77463   0.89677   0.30059   0.00000  Uiso   1.00
O176   O     0.99951   0.30758   0.16380   0.00000  Uiso   1.00
O177   O     0.53795   0.05821   0.48597   0.00000  Uiso   1.00
O178   O     0.64404   0.89021   0.45061   0.00000  Uiso   1.00
N179   N     0.86162   0.26514   0.15376   0.00000  Uiso   1.00
N180   N     0.53271   0.08745   0.67071   0.00000  Uiso   1.00
N181   N     0.60830   0.96772   0.35809   0.00000  Uiso   1.00
N182   N     0.98088   0.22226   0.09904   0.00000  Uiso   1.00
N183   N     0.65197   0.04457   0.61599   0.00000  Uiso   1.00
N184   N     0.72755   0.92484   0.30337   0.00000  Uiso   1.00
C185   C     0.21117   0.25621   0.45089   0.00000  Uiso   1.00
C186   C     0.28772   0.29448   0.43065   0.00000  Uiso   1.00
C187   C     0.27912   0.34493   0.38929   0.00000  Uiso   1.00
C188   C     0.35723   0.37373   0.37684   0.00000  Uiso   1.00
C189   C     0.46335   0.43636   0.34122   0.00000  Uiso   1.00
C190   C     0.21752   0.24040   0.57367   0.00000  Uiso   1.00
C191   C     0.14990   0.24537   0.65255   0.00000  Uiso   1.00
C192   C     0.16892   0.22864   0.76049   0.00000  Uiso   1.00
C193   C     0.16604   0.20726   0.94688   0.00000  Uiso   1.00
C194   C     0.23383   0.20732   0.38359   0.00000  Uiso   1.00
C195   C     0.17991   0.18446   0.30268   0.00000  Uiso   1.00
C196   C     0.21265   0.13987   0.25060   0.00000  Uiso   1.00
C197   C     0.23509   0.06713   0.14188   0.00000  Uiso   1.00
C198   C     0.36519   0.21765   0.50230   0.00000  Uiso   1.00
C199   C     0.37137   0.27354   0.45858   0.00000  Uiso   1.00
C200   C     0.44952   0.30227   0.44618   0.00000  Uiso   1.00
C201   C     0.44104   0.35275   0.40481   0.00000  Uiso   1.00
C202   C     0.30117   0.21946   0.60159   0.00000  Uiso   1.00
C203   C     0.32029   0.20271   0.70943   0.00000  Uiso   1.00
C204   C     0.25272   0.20765   0.78846   0.00000  Uiso   1.00
C205   C     0.31748   0.18637   0.41151   0.00000  Uiso   1.00
C206   C     0.35031   0.14180   0.35956   0.00000  Uiso   1.00
C207   C     0.29645   0.11889   0.27858   0.00000  Uiso   1.00
H208   H     0.14604   0.27251   0.42915   0.00000  Uiso   1.00
H209   H     0.21437   0.36113   0.36770   0.00000  Uiso   1.00
H210   H     0.08517   0.26157   0.63091   0.00000  Uiso   1.00
H211   H     0.11518   0.20068   0.28110   0.00000  Uiso   1.00
H212   H     0.32701   0.45014   0.31193   0.00000  Uiso   1.00
H213   H     0.05456   0.24021   0.86691   0.00000  Uiso   1.00
H214   H     0.11784   0.11181   0.12925   0.00000  Uiso   1.00
H215   H     0.43031   0.20134   0.52404   0.00000  Uiso   1.00
H216   H     0.51424   0.28605   0.46779   0.00000  Uiso   1.00
H217   H     0.38504   0.18650   0.73101   0.00000  Uiso   1.00
H218   H     0.41505   0.12561   0.38119   0.00000  Uiso   1.00
H219   H     0.57039   0.38921   0.39317   0.00000  Uiso   1.00
H220   H     0.29795   0.17928   0.94816   0.00000  Uiso   1.00
H221   H     0.36123   0.05087   0.21050   0.00000  Uiso   1.00
O222   O     0.49878   0.47669   0.31387   0.00000  Uiso   1.00
O223   O     0.14134   0.20127   0.04198   0.00000  Uiso   1.00
O224   O     0.22436   0.03280   0.07419   0.00000  Uiso   1.00
N225   N     0.37277   0.42417   0.33874   0.00000  Uiso   1.00
N226   N     0.11806   0.22791   0.85763   0.00000  Uiso   1.00
N227   N     0.17721   0.10785   0.16800   0.00000  Uiso   1.00
N228   N     0.50374   0.39138   0.38246   0.00000  Uiso   1.00
N229   N     0.24902   0.19512   0.90135   0.00000  Uiso   1.00
N230   N     0.30817   0.07506   0.21172   0.00000  Uiso   1.00
C231   C     0.84293   0.61055   0.56572   0.00000  Uiso   1.00
C232   C     0.75741   0.64268   0.57663   0.00000  Uiso   1.00
C233   C     0.75193   0.69357   0.61627   0.00000  Uiso   1.00
C234   C     0.66749   0.71614   0.61972   0.00000  Uiso   1.00
C235   C     0.54629   0.77019   0.64192   0.00000  Uiso   1.00
C236   C     0.84805   0.59371   0.44349   0.00000  Uiso   1.00
C237   C     0.91880   0.60343   0.37119   0.00000  Uiso   1.00
C238   C     0.91066   0.58477   0.26256   0.00000  Uiso   1.00
C239   C     0.93022   0.56277   0.07808   0.00000  Uiso   1.00
C240   C     0.82721   0.56072   0.63294   0.00000  Uiso   1.00
C241   C     0.88045   0.54269   0.71991   0.00000  Uiso   1.00
C242   C     0.85478   0.49625   0.77078   0.00000  Uiso   1.00
C243   C     0.84198   0.42303   0.88045   0.00000  Uiso   1.00
C244   C     0.70268   0.56013   0.50137   0.00000  Uiso   1.00
C245   C     0.68123   0.61529   0.54167   0.00000  Uiso   1.00
C246   C     0.59677   0.63778   0.54507   0.00000  Uiso   1.00
C247   C     0.59117   0.68870   0.58470   0.00000  Uiso   1.00
C248   C     0.77188   0.56632   0.40853   0.00000  Uiso   1.00
C249   C     0.76363   0.54764   0.29999   0.00000  Uiso   1.00
C250   C     0.83435   0.55733   0.22754   0.00000  Uiso   1.00
C251   C     0.75104   0.53333   0.59799   0.00000  Uiso   1.00
C252   C     0.72528   0.48690   0.64872   0.00000  Uiso   1.00
C253   C     0.77847   0.46881   0.73576   0.00000  Uiso   1.00
H254   H     0.90223   0.63188   0.59293   0.00000  Uiso   1.00
H255   H     0.81090   0.71476   0.64330   0.00000  Uiso   1.00
H256   H     0.97774   0.62462   0.39826   0.00000  Uiso   1.00
H257   H     0.93939   0.56390   0.74694   0.00000  Uiso   1.00
H258   H     0.67606   0.79457   0.68369   0.00000  Uiso   1.00
H259   H     0.02786   0.60451   0.16703   0.00000  Uiso   1.00
H260   H     0.94700   0.47645   0.90228   0.00000  Uiso   1.00
H261   H     0.64338   0.53880   0.47415   0.00000  Uiso   1.00
H262   H     0.53783   0.61658   0.51801   0.00000  Uiso   1.00
H263   H     0.70468   0.52645   0.27297   0.00000  Uiso   1.00
H264   H     0.66633   0.46572   0.62165   0.00000  Uiso   1.00
H265   H     0.45442   0.71489   0.58200   0.00000  Uiso   1.00
H266   H     0.80623   0.52482   0.06533   0.00000  Uiso   1.00
H267   H     0.72537   0.39677   0.80059   0.00000  Uiso   1.00
O268   O     0.50049   0.80758   0.66380   0.00000  Uiso   1.00
O269   O     0.96205   0.55821   0.98597   0.00000  Uiso   1.00
O270   O     0.85596   0.39021   0.95061   0.00000  Uiso   1.00
N271   N     0.63838   0.76514   0.65376   0.00000  Uiso   1.00
N272   N     0.96729   0.58745   0.17071   0.00000  Uiso   1.00
N273   N     0.89170   0.46772   0.85809   0.00000  Uiso   1.00
N274   N     0.51912   0.72226   0.59904   0.00000  Uiso   1.00
N275   N     0.84803   0.54457   0.11599   0.00000  Uiso   1.00
N276   N     0.77245   0.42484   0.80337   0.00000  Uiso   1.00
C277   C     0.78883   0.74379   0.95089   0.00000  Uiso   1.00
C278   C     0.71228   0.70552   0.93065   0.00000  Uiso   1.00
C279   C     0.72088   0.65507   0.88929   0.00000  Uiso   1.00
C280   C     0.64277   0.62627   0.87684   0.00000  Uiso   1.00
C281   C     0.53665   0.56364   0.84122   0.00000  Uiso   1.00
C282   C     0.78248   0.75960   0.07367   0.00000  Uiso   1.00
C283   C     0.85010   0.75463   0.15255   0.00000  Uiso   1.00
C284   C     0.83108   0.77136   0.26049   0.00000  Uiso   1.00
C285   C     0.83396   0.79274   0.44688   0.00000  Uiso   1.00
C286   C     0.76617   0.79268   0.88359   0.00000  Uiso   1.00
C287   C     0.82009   0.81554   0.80268   0.00000  Uiso   1.00
C288   C     0.78735   0.86013   0.75060   0.00000  Uiso   1.00
C289   C     0.76491   0.93287   0.64188   0.00000  Uiso   1.00
C290   C     0.63481   0.78235   0.00230   0.00000  Uiso   1.00
C291   C     0.62863   0.72646   0.95858   0.00000  Uiso   1.00
C292   C     0.55048   0.69773   0.94618   0.00000  Uiso   1.00
C293   C     0.55896   0.64725   0.90481   0.00000  Uiso   1.00
C294   C     0.69883   0.78054   0.10159   0.00000  Uiso   1.00
C295   C     0.67971   0.79729   0.20943   0.00000  Uiso   1.00
C296   C     0.74728   0.79235   0.28846   0.00000  Uiso   1.00
C297   C     0.68252   0.81363   0.91151   0.00000  Uiso   1.00
C298   C     0.64969   0.85820   0.85956   0.00000  Uiso   1.00
C299   C     0.70355   0.88111   0.77858   0.00000  Uiso   1.00
H300   H     0.85396   0.72749   0.92915   0.00000  Uiso   1.00
H301   H     0.78563   0.63887   0.86770   0.00000  Uiso   1.00
H302   H     0.91483   0.73843   0.13091   0.00000  Uiso   1.00
H303   H     0.88482   0.79932   0.78110   0.00000  Uiso   1.00
H304   H     0.67299   0.54986   0.81193   0.00000  Uiso   1.00
H305   H     0.94544   0.75979   0.36691   0.00000  Uiso   1.00
H306   H     0.88216   0.88819   0.62925   0.00000  Uiso   1.00
H307   H     0.56969   0.79866   0.02404   0.00000  Uiso   1.00
H308   H     0.48576   0.71395   0.96779   0.00000  Uiso   1.00
H309   H     0.61496   0.81350   0.23101   0.00000  Uiso   1.00
H310   H     0.58495   0.87439   0.88119   0.00000  Uiso   1.00
H311   H     0.42961   0.61079   0.89317   0.00000  Uiso   1.00
H312   H     0.70205   0.82072   0.44816   0.00000  Uiso   1.00
H313   H     0.63877   0.94913   0.71050   0.00000  Uiso   1.00
O314   O     0.50122   0.52331   0.81387   0.00000  Uiso   1.00
O315   O     0.85866   0.79873   0.54198   0.00000  Uiso   1.00
O316   O     0.77564   0.96720   0.57419   0.00000  Uiso   1.00
N317   N     0.62723   0.57583   0.83874   0.00000  Uiso   1.00
N318   N     0.88194   0.77209   0.35763   0.00000  Uiso   1.00
N319   N     0.82279   0.89215   0.66800   0.00000  Uiso   1.00
N320   N     0.49626   0.60862   0.88246   0.00000  Uiso   1.00
N321   N     0.75098   0.80488   0.40135   0.00000  Uiso   1.00
N322   N     0.69183   0.92494   0.71172   0.00000  Uiso   1.00
C323   C     0.15707   0.38945   0.06572   0.00000  Uiso   1.00
C324   C     0.24259   0.35732   0.07663   0.00000  Uiso   1.00
C325   C     0.24807   0.30643   0.11627   0.00000  Uiso   1.00
C326   C     0.33251   0.28386   0.11972   0.00000  Uiso   1.00
C327   C     0.45371   0.22981   0.14192   0.00000  Uiso   1.00
C328   C     0.15195   0.40629   0.94349   0.00000  Uiso   1.00
C329   C     0.08120   0.39657   0.87119   0.00000  Uiso   1.00
C330   C     0.08934   0.41523   0.76256   0.00000  Uiso   1.00
C331   C     0.06978   0.43723   0.57808   0.00000  Uiso   1.00
C332   C     0.17279   0.43928   0.13294   0.00000  Uiso   1.00
C333   C     0.11955   0.45731   0.21991   0.00000  Uiso   1.00
C334   C     0.14522   0.50375   0.27078   0.00000  Uiso   1.00
C335   C     0.15802   0.57697   0.38045   0.00000  Uiso   1.00
C336   C     0.29732   0.43987   0.00137   0.00000  Uiso   1.00
C337   C     0.31877   0.38471   0.04167   0.00000  Uiso   1.00
C338   C     0.40323   0.36222   0.04507   0.00000  Uiso   1.00
C339   C     0.40883   0.31130   0.08470   0.00000  Uiso   1.00
C340   C     0.22812   0.43368   0.90853   0.00000  Uiso   1.00
C341   C     0.23637   0.45236   0.79999   0.00000  Uiso   1.00
C342   C     0.16565   0.44267   0.72754   0.00000  Uiso   1.00
C343   C     0.24896   0.46667   0.09799   0.00000  Uiso   1.00
C344   C     0.27472   0.51310   0.14872   0.00000  Uiso   1.00
C345   C     0.22153   0.53119   0.23576   0.00000  Uiso   1.00
H346   H     0.09777   0.36812   0.09293   0.00000  Uiso   1.00
H347   H     0.18910   0.28524   0.14330   0.00000  Uiso   1.00
H348   H     0.02226   0.37538   0.89826   0.00000  Uiso   1.00
H349   H     0.06061   0.43610   0.24694   0.00000  Uiso   1.00
H350   H     0.32394   0.20543   0.18369   0.00000  Uiso   1.00
H351   H     0.97214   0.39549   0.66703   0.00000  Uiso   1.00
H352   H     0.05300   0.52355   0.40228   0.00000  Uiso   1.00
H353   H     0.35662   0.46120   0.97415   0.00000  Uiso   1.00
H354   H     0.46217   0.38342   0.01801   0.00000  Uiso   1.00
H355   H     0.29532   0.47355   0.77297   0.00000  Uiso   1.00
H356   H     0.33367   0.53428   0.12165   0.00000  Uiso   1.00
H357   H     0.54558   0.28511   0.08200   0.00000  Uiso   1.00
H358   H     0.19377   0.47518   0.56533   0.00000  Uiso   1.00
H359   H     0.27463   0.60323   0.30059   0.00000  Uiso   1.00
O360   O     0.49951   0.19242   0.16380   0.00000  Uiso   1.00
O361   O     0.03795   0.44179   0.48597   0.00000  Uiso   1.00
O362   O     0.14404   0.60979   0.45061   0.00000  Uiso   1.00
N363   N     0.36162   0.23486   0.15376   0.00000  Uiso   1.00
N364   N     0.03271   0.41255   0.67071   0.00000  Uiso   1.00
N365   N     0.10830   0.53228   0.35809   0.00000  Uiso   1.00
N366   N     0.48088   0.27774   0.09904   0.00000  Uiso   1.00
N367   N     0.15197   0.45543   0.61599   0.00000  Uiso   1.00
N368   N     0.22755   0.57516   0.30337   0.00000  Uiso   1.00
