data_job_01036
_audit_creation_date              2018-12-19
_audit_creation_method            'Materials Studio'
_symmetry_space_group_name_H-M    'P1'
_symmetry_Int_Tables_number       1
_symmetry_cell_setting            triclinic
loop_
_symmetry_equiv_pos_as_xyz
  x,y,z
_cell_length_a                    19.6032
_cell_length_b                    19.6032
_cell_length_c                    12.0359
_cell_angle_alpha                 90.0000
_cell_angle_beta                  90.0000
_cell_angle_gamma                 90.0000
loop_
_atom_site_label
_atom_site_type_symbol
_atom_site_fract_x
_atom_site_fract_y
_atom_site_fract_z
_atom_site_U_iso_or_equiv
_atom_site_adp_type
_atom_site_occupancy
C1     C     0.88484   0.68548   0.24563   0.00000  Uiso   1.00
C2     C     0.82001   0.65430   0.29383   0.00000  Uiso   1.00
C3     C     0.81725   0.60540   0.37710   0.00000  Uiso   1.00
C4     C     0.75297   0.58340   0.40965   0.00000  Uiso   1.00
C5     C     0.66133   0.53100   0.49191   0.00000  Uiso   1.00
C6     C     0.88187   0.67252   0.12080   0.00000  Uiso   1.00
C7     C     0.93112   0.63895   0.05858   0.00000  Uiso   1.00
C8     C     0.91891   0.63230   0.94546   0.00000  Uiso   1.00
C9     C     0.92333   0.60824   0.75907   0.00000  Uiso   1.00
C10    C     0.87778   0.76241   0.26041   0.00000  Uiso   1.00
C11    C     0.92361   0.80443   0.31555   0.00000  Uiso   1.00
C12    C     0.90796   0.87346   0.31996   0.00000  Uiso   1.00
C13    C     0.90603   0.98896   0.35034   0.00000  Uiso   1.00
C14    C     0.77559   0.73334   0.15538   0.00000  Uiso   1.00
C15    C     0.76067   0.68030   0.24481   0.00000  Uiso   1.00
C16    C     0.69637   0.65836   0.27725   0.00000  Uiso   1.00
C17    C     0.69352   0.60944   0.36055   0.00000  Uiso   1.00
C18    C     0.82253   0.69852   0.07178   0.00000  Uiso   1.00
C19    C     0.81024   0.69191   0.95873   0.00000  Uiso   1.00
C20    C     0.85946   0.65834   0.89635   0.00000  Uiso   1.00
C21    C     0.81843   0.78841   0.21139   0.00000  Uiso   1.00
C22    C     0.80272   0.85738   0.21571   0.00000  Uiso   1.00
C23    C     0.84851   0.89950   0.27085   0.00000  Uiso   1.00
H24    H     0.93105   0.66523   0.28379   0.00000  Uiso   1.00
H25    H     0.86319   0.58529   0.41500   0.00000  Uiso   1.00
H26    H     0.97705   0.61885   0.09653   0.00000  Uiso   1.00
H27    H     0.96952   0.78429   0.35347   0.00000  Uiso   1.00
H28    H     0.76179   0.50811   0.53883   0.00000  Uiso   1.00
H29    H     0.00187   0.57888   0.86731   0.00000  Uiso   1.00
H30    H     0.98601   0.92776   0.40912   0.00000  Uiso   1.00
H31    H     0.72938   0.75358   0.11722   0.00000  Uiso   1.00
H32    H     0.65045   0.67849   0.23930   0.00000  Uiso   1.00
H33    H     0.76431   0.71204   0.92082   0.00000  Uiso   1.00
H34    H     0.75679   0.87749   0.17777   0.00000  Uiso   1.00
H35    H     0.58912   0.58375   0.39622   0.00000  Uiso   1.00
H36    H     0.82921   0.65452   0.72470   0.00000  Uiso   1.00
H37    H     0.81335   0.00339   0.26651   0.00000  Uiso   1.00
O38    O     0.62717   0.49492   0.55082   0.00000  Uiso   1.00
O39    O     0.94216   0.58778   0.66981   0.00000  Uiso   1.00
O40    O     0.92136   0.04549   0.38065   0.00000  Uiso   1.00
N41    N     0.73198   0.53622   0.48853   0.00000  Uiso   1.00
N42    N     0.95644   0.60238   0.86070   0.00000  Uiso   1.00
N43    N     0.94162   0.92855   0.36722   0.00000  Uiso   1.00
N44    N     0.63907   0.57693   0.41180   0.00000  Uiso   1.00
N45    N     0.86353   0.64308   0.78396   0.00000  Uiso   1.00
N46    N     0.84872   0.96926   0.29049   0.00000  Uiso   1.00
C47    C     0.38484   0.18548   0.74563   0.00000  Uiso   1.00
C48    C     0.32001   0.15430   0.79383   0.00000  Uiso   1.00
C49    C     0.31725   0.10540   0.87710   0.00000  Uiso   1.00
C50    C     0.25297   0.08340   0.90965   0.00000  Uiso   1.00
C51    C     0.16133   0.03100   0.99191   0.00000  Uiso   1.00
C52    C     0.38187   0.17252   0.62080   0.00000  Uiso   1.00
C53    C     0.43112   0.13895   0.55858   0.00000  Uiso   1.00
C54    C     0.41891   0.13230   0.44546   0.00000  Uiso   1.00
C55    C     0.42333   0.10824   0.25907   0.00000  Uiso   1.00
C56    C     0.37778   0.26241   0.76041   0.00000  Uiso   1.00
C57    C     0.42361   0.30443   0.81555   0.00000  Uiso   1.00
C58    C     0.40796   0.37346   0.81996   0.00000  Uiso   1.00
C59    C     0.40603   0.48896   0.85034   0.00000  Uiso   1.00
C60    C     0.27559   0.23334   0.65538   0.00000  Uiso   1.00
C61    C     0.26067   0.18030   0.74481   0.00000  Uiso   1.00
C62    C     0.19637   0.15836   0.77725   0.00000  Uiso   1.00
C63    C     0.19352   0.10944   0.86055   0.00000  Uiso   1.00
C64    C     0.32253   0.19852   0.57178   0.00000  Uiso   1.00
C65    C     0.31024   0.19191   0.45873   0.00000  Uiso   1.00
C66    C     0.35946   0.15834   0.39635   0.00000  Uiso   1.00
C67    C     0.31843   0.28841   0.71139   0.00000  Uiso   1.00
C68    C     0.30272   0.35738   0.71571   0.00000  Uiso   1.00
C69    C     0.34851   0.39950   0.77085   0.00000  Uiso   1.00
H70    H     0.43105   0.16523   0.78379   0.00000  Uiso   1.00
H71    H     0.36319   0.08529   0.91500   0.00000  Uiso   1.00
H72    H     0.47705   0.11885   0.59653   0.00000  Uiso   1.00
H73    H     0.46952   0.28429   0.85347   0.00000  Uiso   1.00
H74    H     0.26179   0.00811   0.03883   0.00000  Uiso   1.00
H75    H     0.50187   0.07888   0.36731   0.00000  Uiso   1.00
H76    H     0.48601   0.42776   0.90912   0.00000  Uiso   1.00
H77    H     0.22938   0.25358   0.61722   0.00000  Uiso   1.00
H78    H     0.15045   0.17849   0.73930   0.00000  Uiso   1.00
H79    H     0.26431   0.21204   0.42082   0.00000  Uiso   1.00
H80    H     0.25679   0.37749   0.67777   0.00000  Uiso   1.00
H81    H     0.08912   0.08375   0.89622   0.00000  Uiso   1.00
H82    H     0.32921   0.15452   0.22470   0.00000  Uiso   1.00
H83    H     0.31335   0.50339   0.76651   0.00000  Uiso   1.00
O84    O     0.12717   0.99492   0.05082   0.00000  Uiso   1.00
O85    O     0.44216   0.08778   0.16981   0.00000  Uiso   1.00
O86    O     0.42136   0.54549   0.88065   0.00000  Uiso   1.00
N87    N     0.23198   0.03622   0.98853   0.00000  Uiso   1.00
N88    N     0.45644   0.10238   0.36070   0.00000  Uiso   1.00
N89    N     0.44162   0.42855   0.86722   0.00000  Uiso   1.00
N90    N     0.13907   0.07693   0.91180   0.00000  Uiso   1.00
N91    N     0.36353   0.14308   0.28396   0.00000  Uiso   1.00
N92    N     0.34872   0.46926   0.79049   0.00000  Uiso   1.00
C93    C     0.11516   0.31452   0.24563   0.00000  Uiso   1.00
C94    C     0.17999   0.34570   0.29383   0.00000  Uiso   1.00
C95    C     0.18275   0.39460   0.37710   0.00000  Uiso   1.00
C96    C     0.24703   0.41660   0.40965   0.00000  Uiso   1.00
C97    C     0.33867   0.46900   0.49191   0.00000  Uiso   1.00
C98    C     0.11813   0.32748   0.12080   0.00000  Uiso   1.00
C99    C     0.06888   0.36105   0.05858   0.00000  Uiso   1.00
C100   C     0.08109   0.36770   0.94546   0.00000  Uiso   1.00
C101   C     0.07667   0.39176   0.75907   0.00000  Uiso   1.00
C102   C     0.12222   0.23759   0.26041   0.00000  Uiso   1.00
C103   C     0.07639   0.19557   0.31555   0.00000  Uiso   1.00
C104   C     0.09204   0.12654   0.31996   0.00000  Uiso   1.00
C105   C     0.09397   0.01104   0.35034   0.00000  Uiso   1.00
C106   C     0.22441   0.26666   0.15538   0.00000  Uiso   1.00
C107   C     0.23933   0.31970   0.24481   0.00000  Uiso   1.00
C108   C     0.30363   0.34164   0.27725   0.00000  Uiso   1.00
C109   C     0.30648   0.39056   0.36055   0.00000  Uiso   1.00
C110   C     0.17747   0.30148   0.07178   0.00000  Uiso   1.00
C111   C     0.18976   0.30809   0.95873   0.00000  Uiso   1.00
C112   C     0.14054   0.34166   0.89635   0.00000  Uiso   1.00
C113   C     0.18157   0.21159   0.21139   0.00000  Uiso   1.00
C114   C     0.19728   0.14262   0.21571   0.00000  Uiso   1.00
C115   C     0.15149   0.10050   0.27085   0.00000  Uiso   1.00
H116   H     0.06895   0.33477   0.28379   0.00000  Uiso   1.00
H117   H     0.13681   0.41471   0.41500   0.00000  Uiso   1.00
H118   H     0.02295   0.38115   0.09653   0.00000  Uiso   1.00
H119   H     0.03048   0.21571   0.35347   0.00000  Uiso   1.00
H120   H     0.23821   0.49189   0.53883   0.00000  Uiso   1.00
H121   H     0.99813   0.42112   0.86731   0.00000  Uiso   1.00
H122   H     0.01399   0.07224   0.40912   0.00000  Uiso   1.00
H123   H     0.27062   0.24642   0.11722   0.00000  Uiso   1.00
H124   H     0.34955   0.32151   0.23930   0.00000  Uiso   1.00
H125   H     0.23569   0.28796   0.92082   0.00000  Uiso   1.00
H126   H     0.24321   0.12251   0.17777   0.00000  Uiso   1.00
H127   H     0.41088   0.41625   0.39622   0.00000  Uiso   1.00
H128   H     0.17079   0.34548   0.72470   0.00000  Uiso   1.00
H129   H     0.18665   0.99661   0.26651   0.00000  Uiso   1.00
O130   O     0.37283   0.50508   0.55082   0.00000  Uiso   1.00
O131   O     0.05784   0.41222   0.66981   0.00000  Uiso   1.00
O132   O     0.07864   0.95451   0.38065   0.00000  Uiso   1.00
N133   N     0.26802   0.46378   0.48853   0.00000  Uiso   1.00
N134   N     0.04356   0.39762   0.86070   0.00000  Uiso   1.00
N135   N     0.05838   0.07145   0.36722   0.00000  Uiso   1.00
N136   N     0.36093   0.42307   0.41180   0.00000  Uiso   1.00
N137   N     0.13647   0.35692   0.78396   0.00000  Uiso   1.00
N138   N     0.15128   0.03074   0.29049   0.00000  Uiso   1.00
C139   C     0.61516   0.81452   0.74563   0.00000  Uiso   1.00
C140   C     0.67999   0.84570   0.79383   0.00000  Uiso   1.00
C141   C     0.68275   0.89460   0.87710   0.00000  Uiso   1.00
C142   C     0.74703   0.91660   0.90965   0.00000  Uiso   1.00
C143   C     0.83867   0.96900   0.99191   0.00000  Uiso   1.00
C144   C     0.61813   0.82748   0.62080   0.00000  Uiso   1.00
C145   C     0.56888   0.86105   0.55858   0.00000  Uiso   1.00
C146   C     0.58109   0.86770   0.44546   0.00000  Uiso   1.00
C147   C     0.57667   0.89176   0.25907   0.00000  Uiso   1.00
C148   C     0.62222   0.73759   0.76041   0.00000  Uiso   1.00
C149   C     0.57639   0.69557   0.81555   0.00000  Uiso   1.00
C150   C     0.59204   0.62654   0.81996   0.00000  Uiso   1.00
C151   C     0.59397   0.51104   0.85034   0.00000  Uiso   1.00
C152   C     0.72441   0.76666   0.65538   0.00000  Uiso   1.00
C153   C     0.73933   0.81970   0.74481   0.00000  Uiso   1.00
C154   C     0.80363   0.84164   0.77725   0.00000  Uiso   1.00
C155   C     0.80648   0.89056   0.86055   0.00000  Uiso   1.00
C156   C     0.67747   0.80148   0.57178   0.00000  Uiso   1.00
C157   C     0.68976   0.80809   0.45873   0.00000  Uiso   1.00
C158   C     0.64054   0.84166   0.39635   0.00000  Uiso   1.00
C159   C     0.68157   0.71159   0.71139   0.00000  Uiso   1.00
C160   C     0.69728   0.64262   0.71571   0.00000  Uiso   1.00
C161   C     0.65149   0.60050   0.77085   0.00000  Uiso   1.00
H162   H     0.56895   0.83477   0.78379   0.00000  Uiso   1.00
H163   H     0.63681   0.91471   0.91500   0.00000  Uiso   1.00
H164   H     0.52295   0.88115   0.59653   0.00000  Uiso   1.00
H165   H     0.53048   0.71571   0.85347   0.00000  Uiso   1.00
H166   H     0.73821   0.99189   0.03883   0.00000  Uiso   1.00
H167   H     0.49813   0.92112   0.36731   0.00000  Uiso   1.00
H168   H     0.51399   0.57224   0.90912   0.00000  Uiso   1.00
H169   H     0.77062   0.74642   0.61722   0.00000  Uiso   1.00
H170   H     0.84955   0.82151   0.73930   0.00000  Uiso   1.00
H171   H     0.73569   0.78796   0.42082   0.00000  Uiso   1.00
H172   H     0.74321   0.62251   0.67777   0.00000  Uiso   1.00
H173   H     0.91088   0.91625   0.89622   0.00000  Uiso   1.00
H174   H     0.67079   0.84548   0.22470   0.00000  Uiso   1.00
H175   H     0.68665   0.49661   0.76651   0.00000  Uiso   1.00
O176   O     0.87283   0.00508   0.05082   0.00000  Uiso   1.00
O177   O     0.55784   0.91222   0.16981   0.00000  Uiso   1.00
O178   O     0.57864   0.45451   0.88065   0.00000  Uiso   1.00
N179   N     0.76802   0.96378   0.98853   0.00000  Uiso   1.00
N180   N     0.54356   0.89762   0.36070   0.00000  Uiso   1.00
N181   N     0.55838   0.57145   0.86722   0.00000  Uiso   1.00
N182   N     0.86093   0.92307   0.91180   0.00000  Uiso   1.00
N183   N     0.63647   0.85692   0.28396   0.00000  Uiso   1.00
N184   N     0.65128   0.53074   0.79049   0.00000  Uiso   1.00
C185   C     0.68548   0.11516   0.75437   0.00000  Uiso   1.00
C186   C     0.65430   0.17999   0.70617   0.00000  Uiso   1.00
C187   C     0.60540   0.18275   0.62290   0.00000  Uiso   1.00
C188   C     0.58340   0.24703   0.59035   0.00000  Uiso   1.00
C189   C     0.53100   0.33867   0.50809   0.00000  Uiso   1.00
C190   C     0.67252   0.11813   0.87920   0.00000  Uiso   1.00
C191   C     0.63895   0.06888   0.94142   0.00000  Uiso   1.00
C192   C     0.63230   0.08109   0.05454   0.00000  Uiso   1.00
C193   C     0.60824   0.07667   0.24093   0.00000  Uiso   1.00
C194   C     0.76241   0.12222   0.73959   0.00000  Uiso   1.00
C195   C     0.80443   0.07639   0.68445   0.00000  Uiso   1.00
C196   C     0.87346   0.09204   0.68004   0.00000  Uiso   1.00
C197   C     0.98896   0.09397   0.64966   0.00000  Uiso   1.00
C198   C     0.73334   0.22441   0.84462   0.00000  Uiso   1.00
C199   C     0.68030   0.23933   0.75519   0.00000  Uiso   1.00
C200   C     0.65836   0.30363   0.72275   0.00000  Uiso   1.00
C201   C     0.60944   0.30648   0.63945   0.00000  Uiso   1.00
C202   C     0.69852   0.17747   0.92822   0.00000  Uiso   1.00
C203   C     0.69191   0.18976   0.04127   0.00000  Uiso   1.00
C204   C     0.65834   0.14054   0.10365   0.00000  Uiso   1.00
C205   C     0.78841   0.18157   0.78861   0.00000  Uiso   1.00
C206   C     0.85738   0.19728   0.78429   0.00000  Uiso   1.00
C207   C     0.89950   0.15149   0.72915   0.00000  Uiso   1.00
H208   H     0.66523   0.06895   0.71621   0.00000  Uiso   1.00
H209   H     0.58529   0.13681   0.58500   0.00000  Uiso   1.00
H210   H     0.61885   0.02295   0.90347   0.00000  Uiso   1.00
H211   H     0.78429   0.03048   0.64653   0.00000  Uiso   1.00
H212   H     0.50811   0.23821   0.46117   0.00000  Uiso   1.00
H213   H     0.57888   0.99813   0.13269   0.00000  Uiso   1.00
H214   H     0.92776   0.01399   0.59088   0.00000  Uiso   1.00
H215   H     0.75358   0.27062   0.88278   0.00000  Uiso   1.00
H216   H     0.67849   0.34955   0.76070   0.00000  Uiso   1.00
H217   H     0.71204   0.23569   0.07918   0.00000  Uiso   1.00
H218   H     0.87749   0.24321   0.82223   0.00000  Uiso   1.00
H219   H     0.58375   0.41088   0.60378   0.00000  Uiso   1.00
H220   H     0.65452   0.17079   0.27530   0.00000  Uiso   1.00
H221   H     0.00339   0.18665   0.73349   0.00000  Uiso   1.00
O222   O     0.49492   0.37283   0.44918   0.00000  Uiso   1.00
O223   O     0.58778   0.05784   0.33019   0.00000  Uiso   1.00
O224   O     0.04549   0.07864   0.61935   0.00000  Uiso   1.00
N225   N     0.53622   0.26802   0.51147   0.00000  Uiso   1.00
N226   N     0.60238   0.04356   0.13930   0.00000  Uiso   1.00
N227   N     0.92855   0.05838   0.63278   0.00000  Uiso   1.00
N228   N     0.57693   0.36093   0.58820   0.00000  Uiso   1.00
N229   N     0.64308   0.13647   0.21604   0.00000  Uiso   1.00
N230   N     0.96926   0.15128   0.70951   0.00000  Uiso   1.00
C231   C     0.18548   0.61516   0.25437   0.00000  Uiso   1.00
C232   C     0.15430   0.67999   0.20617   0.00000  Uiso   1.00
C233   C     0.10540   0.68275   0.12290   0.00000  Uiso   1.00
C234   C     0.08340   0.74703   0.09035   0.00000  Uiso   1.00
C235   C     0.03100   0.83867   0.00809   0.00000  Uiso   1.00
C236   C     0.17252   0.61813   0.37920   0.00000  Uiso   1.00
C237   C     0.13895   0.56888   0.44142   0.00000  Uiso   1.00
C238   C     0.13230   0.58109   0.55454   0.00000  Uiso   1.00
C239   C     0.10824   0.57667   0.74093   0.00000  Uiso   1.00
C240   C     0.26241   0.62222   0.23959   0.00000  Uiso   1.00
C241   C     0.30443   0.57639   0.18445   0.00000  Uiso   1.00
C242   C     0.37346   0.59204   0.18004   0.00000  Uiso   1.00
C243   C     0.48896   0.59397   0.14966   0.00000  Uiso   1.00
C244   C     0.23334   0.72441   0.34462   0.00000  Uiso   1.00
C245   C     0.18030   0.73933   0.25519   0.00000  Uiso   1.00
C246   C     0.15836   0.80363   0.22275   0.00000  Uiso   1.00
C247   C     0.10944   0.80648   0.13945   0.00000  Uiso   1.00
C248   C     0.19852   0.67747   0.42822   0.00000  Uiso   1.00
C249   C     0.19191   0.68976   0.54127   0.00000  Uiso   1.00
C250   C     0.15834   0.64054   0.60365   0.00000  Uiso   1.00
C251   C     0.28841   0.68157   0.28861   0.00000  Uiso   1.00
C252   C     0.35738   0.69728   0.28429   0.00000  Uiso   1.00
C253   C     0.39950   0.65149   0.22915   0.00000  Uiso   1.00
H254   H     0.16523   0.56895   0.21621   0.00000  Uiso   1.00
H255   H     0.08529   0.63681   0.08500   0.00000  Uiso   1.00
H256   H     0.11885   0.52295   0.40347   0.00000  Uiso   1.00
H257   H     0.28429   0.53048   0.14653   0.00000  Uiso   1.00
H258   H     0.00811   0.73821   0.96117   0.00000  Uiso   1.00
H259   H     0.07888   0.49813   0.63269   0.00000  Uiso   1.00
H260   H     0.42776   0.51399   0.09088   0.00000  Uiso   1.00
H261   H     0.25358   0.77062   0.38278   0.00000  Uiso   1.00
H262   H     0.17849   0.84955   0.26070   0.00000  Uiso   1.00
H263   H     0.21204   0.73569   0.57918   0.00000  Uiso   1.00
H264   H     0.37749   0.74321   0.32223   0.00000  Uiso   1.00
H265   H     0.08375   0.91088   0.10378   0.00000  Uiso   1.00
H266   H     0.15452   0.67079   0.77530   0.00000  Uiso   1.00
H267   H     0.50339   0.68665   0.23349   0.00000  Uiso   1.00
O268   O     0.99492   0.87283   0.94918   0.00000  Uiso   1.00
O269   O     0.08778   0.55784   0.83019   0.00000  Uiso   1.00
O270   O     0.54549   0.57864   0.11935   0.00000  Uiso   1.00
N271   N     0.03622   0.76802   0.01147   0.00000  Uiso   1.00
N272   N     0.10238   0.54356   0.63930   0.00000  Uiso   1.00
N273   N     0.42855   0.55838   0.13278   0.00000  Uiso   1.00
N274   N     0.07693   0.86093   0.08820   0.00000  Uiso   1.00
N275   N     0.14308   0.63647   0.71604   0.00000  Uiso   1.00
N276   N     0.46926   0.65128   0.20951   0.00000  Uiso   1.00
C277   C     0.31452   0.88484   0.75437   0.00000  Uiso   1.00
C278   C     0.34570   0.82001   0.70617   0.00000  Uiso   1.00
C279   C     0.39460   0.81725   0.62290   0.00000  Uiso   1.00
C280   C     0.41660   0.75297   0.59035   0.00000  Uiso   1.00
C281   C     0.46900   0.66133   0.50809   0.00000  Uiso   1.00
C282   C     0.32748   0.88187   0.87920   0.00000  Uiso   1.00
C283   C     0.36105   0.93112   0.94142   0.00000  Uiso   1.00
C284   C     0.36770   0.91891   0.05454   0.00000  Uiso   1.00
C285   C     0.39176   0.92333   0.24093   0.00000  Uiso   1.00
C286   C     0.23759   0.87778   0.73959   0.00000  Uiso   1.00
C287   C     0.19557   0.92361   0.68445   0.00000  Uiso   1.00
C288   C     0.12654   0.90796   0.68004   0.00000  Uiso   1.00
C289   C     0.01104   0.90603   0.64966   0.00000  Uiso   1.00
C290   C     0.26666   0.77559   0.84462   0.00000  Uiso   1.00
C291   C     0.31970   0.76067   0.75519   0.00000  Uiso   1.00
C292   C     0.34164   0.69637   0.72275   0.00000  Uiso   1.00
C293   C     0.39056   0.69352   0.63945   0.00000  Uiso   1.00
C294   C     0.30148   0.82253   0.92822   0.00000  Uiso   1.00
C295   C     0.30809   0.81024   0.04127   0.00000  Uiso   1.00
C296   C     0.34166   0.85946   0.10365   0.00000  Uiso   1.00
C297   C     0.21159   0.81843   0.78861   0.00000  Uiso   1.00
C298   C     0.14262   0.80272   0.78429   0.00000  Uiso   1.00
C299   C     0.10050   0.84851   0.72915   0.00000  Uiso   1.00
H300   H     0.33477   0.93105   0.71621   0.00000  Uiso   1.00
H301   H     0.41471   0.86319   0.58500   0.00000  Uiso   1.00
H302   H     0.38115   0.97705   0.90347   0.00000  Uiso   1.00
H303   H     0.21571   0.96952   0.64653   0.00000  Uiso   1.00
H304   H     0.49189   0.76179   0.46117   0.00000  Uiso   1.00
H305   H     0.42112   0.00187   0.13269   0.00000  Uiso   1.00
H306   H     0.07224   0.98601   0.59088   0.00000  Uiso   1.00
H307   H     0.24642   0.72938   0.88278   0.00000  Uiso   1.00
H308   H     0.32151   0.65045   0.76070   0.00000  Uiso   1.00
H309   H     0.28796   0.76431   0.07918   0.00000  Uiso   1.00
H310   H     0.12251   0.75679   0.82223   0.00000  Uiso   1.00
H311   H     0.41625   0.58912   0.60378   0.00000  Uiso   1.00
H312   H     0.34548   0.82921   0.27530   0.00000  Uiso   1.00
H313   H     0.99661   0.81335   0.73349   0.00000  Uiso   1.00
O314   O     0.50508   0.62717   0.44918   0.00000  Uiso   1.00
O315   O     0.41222   0.94216   0.33019   0.00000  Uiso   1.00
O316   O     0.95451   0.92136   0.61935   0.00000  Uiso   1.00
N317   N     0.46378   0.73198   0.51147   0.00000  Uiso   1.00
N318   N     0.39762   0.95644   0.13930   0.00000  Uiso   1.00
N319   N     0.07145   0.94162   0.63278   0.00000  Uiso   1.00
N320   N     0.42307   0.63907   0.58820   0.00000  Uiso   1.00
N321   N     0.35692   0.86353   0.21604   0.00000  Uiso   1.00
N322   N     0.03074   0.84872   0.70951   0.00000  Uiso   1.00
C323   C     0.81452   0.38484   0.25437   0.00000  Uiso   1.00
C324   C     0.84570   0.32001   0.20617   0.00000  Uiso   1.00
C325   C     0.89460   0.31725   0.12290   0.00000  Uiso   1.00
C326   C     0.91660   0.25297   0.09035   0.00000  Uiso   1.00
C327   C     0.96900   0.16133   0.00809   0.00000  Uiso   1.00
C328   C     0.82748   0.38187   0.37920   0.00000  Uiso   1.00
C329   C     0.86105   0.43112   0.44142   0.00000  Uiso   1.00
C330   C     0.86770   0.41891   0.55454   0.00000  Uiso   1.00
C331   C     0.89176   0.42333   0.74093   0.00000  Uiso   1.00
C332   C     0.73759   0.37778   0.23959   0.00000  Uiso   1.00
C333   C     0.69557   0.42361   0.18445   0.00000  Uiso   1.00
C334   C     0.62654   0.40796   0.18004   0.00000  Uiso   1.00
C335   C     0.51104   0.40603   0.14966   0.00000  Uiso   1.00
C336   C     0.76666   0.27559   0.34462   0.00000  Uiso   1.00
C337   C     0.81970   0.26067   0.25519   0.00000  Uiso   1.00
C338   C     0.84164   0.19637   0.22275   0.00000  Uiso   1.00
C339   C     0.89056   0.19352   0.13945   0.00000  Uiso   1.00
C340   C     0.80148   0.32253   0.42822   0.00000  Uiso   1.00
C341   C     0.80809   0.31024   0.54127   0.00000  Uiso   1.00
C342   C     0.84166   0.35946   0.60365   0.00000  Uiso   1.00
C343   C     0.71159   0.31843   0.28861   0.00000  Uiso   1.00
C344   C     0.64262   0.30272   0.28429   0.00000  Uiso   1.00
C345   C     0.60050   0.34851   0.22915   0.00000  Uiso   1.00
H346   H     0.83477   0.43105   0.21621   0.00000  Uiso   1.00
H347   H     0.91471   0.36319   0.08500   0.00000  Uiso   1.00
H348   H     0.88115   0.47705   0.40347   0.00000  Uiso   1.00
H349   H     0.71571   0.46952   0.14653   0.00000  Uiso   1.00
H350   H     0.99189   0.26179   0.96117   0.00000  Uiso   1.00
H351   H     0.92112   0.50187   0.63269   0.00000  Uiso   1.00
H352   H     0.57224   0.48601   0.09088   0.00000  Uiso   1.00
H353   H     0.74642   0.22938   0.38278   0.00000  Uiso   1.00
H354   H     0.82151   0.15045   0.26070   0.00000  Uiso   1.00
H355   H     0.78796   0.26431   0.57918   0.00000  Uiso   1.00
H356   H     0.62251   0.25679   0.32223   0.00000  Uiso   1.00
H357   H     0.91625   0.08912   0.10378   0.00000  Uiso   1.00
H358   H     0.84548   0.32921   0.77530   0.00000  Uiso   1.00
H359   H     0.49661   0.31335   0.23349   0.00000  Uiso   1.00
O360   O     0.00508   0.12717   0.94918   0.00000  Uiso   1.00
O361   O     0.91222   0.44216   0.83019   0.00000  Uiso   1.00
O362   O     0.45451   0.42136   0.11935   0.00000  Uiso   1.00
N363   N     0.96378   0.23198   0.01147   0.00000  Uiso   1.00
N364   N     0.89762   0.45644   0.63930   0.00000  Uiso   1.00
N365   N     0.57145   0.44162   0.13278   0.00000  Uiso   1.00
N366   N     0.92307   0.13907   0.08820   0.00000  Uiso   1.00
N367   N     0.85692   0.36353   0.71604   0.00000  Uiso   1.00
N368   N     0.53074   0.34872   0.20951   0.00000  Uiso   1.00
