data_job_01925
_audit_creation_date              2018-12-19
_audit_creation_method            'Materials Studio'
_symmetry_space_group_name_H-M    'P1'
_symmetry_Int_Tables_number       1
_symmetry_cell_setting            triclinic
loop_
_symmetry_equiv_pos_as_xyz
  x,y,z
_cell_length_a                    12.0558
_cell_length_b                    13.4195
_cell_length_c                    24.3006
_cell_angle_alpha                 90.0000
_cell_angle_beta                  106.9730
_cell_angle_gamma                 90.0000
loop_
_atom_site_label
_atom_site_type_symbol
_atom_site_fract_x
_atom_site_fract_y
_atom_site_fract_z
_atom_site_U_iso_or_equiv
_atom_site_adp_type
_atom_site_occupancy
C1     C     0.76997   0.10612   0.79977   0.00000  Uiso   1.00
C2     C     0.69517   0.13242   0.83861   0.00000  Uiso   1.00
C3     C     0.66534   0.06808   0.87670   0.00000  Uiso   1.00
C4     C     0.59615   0.10642   0.90837   0.00000  Uiso   1.00
C5     C     0.48573   0.13216   0.96961   0.00000  Uiso   1.00
C6     C     0.69697   0.13046   0.73863   0.00000  Uiso   1.00
C7     C     0.66868   0.06448   0.69265   0.00000  Uiso   1.00
C8     C     0.60103   0.10118   0.64015   0.00000  Uiso   1.00
C9     C     0.49348   0.12389   0.54615   0.00000  Uiso   1.00
C10    C     0.86989   0.18055   0.81420   0.00000  Uiso   1.00
C11    C     0.98700   0.15668   0.83175   0.00000  Uiso   1.00
C12    C     0.06493   0.23556   0.84287   0.00000  Uiso   1.00
C13    C     0.22587   0.33604   0.86621   0.00000  Uiso   1.00
C14    C     0.70014   0.28863   0.78829   0.00000  Uiso   1.00
C15    C     0.65724   0.23155   0.83237   0.00000  Uiso   1.00
C16    C     0.58808   0.27000   0.86399   0.00000  Uiso   1.00
C17    C     0.55816   0.20573   0.90213   0.00000  Uiso   1.00
C18    C     0.65905   0.22959   0.73239   0.00000  Uiso   1.00
C19    C     0.59143   0.26640   0.67994   0.00000  Uiso   1.00
C20    C     0.56303   0.20048   0.63390   0.00000  Uiso   1.00
C21    C     0.83197   0.27968   0.80796   0.00000  Uiso   1.00
C22    C     0.90974   0.35860   0.81905   0.00000  Uiso   1.00
C23    C     0.02694   0.33486   0.83662   0.00000  Uiso   1.00
H24    H     0.79949   0.02895   0.80462   0.00000  Uiso   1.00
H25    H     0.69470   0.99137   0.88151   0.00000  Uiso   1.00
H26    H     0.69805   0.98777   0.69749   0.00000  Uiso   1.00
H27    H     0.01632   0.07996   0.83657   0.00000  Uiso   1.00
H28    H     0.56176   0.99341   0.96399   0.00000  Uiso   1.00
H29    H     0.56886   0.98583   0.57597   0.00000  Uiso   1.00
H30    H     0.23999   0.18024   0.86925   0.00000  Uiso   1.00
H31    H     0.67061   0.36581   0.78343   0.00000  Uiso   1.00
H32    H     0.55875   0.34672   0.85916   0.00000  Uiso   1.00
H33    H     0.56210   0.34311   0.67513   0.00000  Uiso   1.00
H34    H     0.88036   0.43531   0.81421   0.00000  Uiso   1.00
H35    H     0.45141   0.28183   0.94585   0.00000  Uiso   1.00
H36    H     0.45852   0.27424   0.55782   0.00000  Uiso   1.00
H37    H     0.12964   0.46865   0.85110   0.00000  Uiso   1.00
O38    O     0.43529   0.11897   0.00511   0.00000  Uiso   1.00
O39    O     0.44463   0.10903   0.49603   0.00000  Uiso   1.00
O40    O     0.32512   0.36409   0.88081   0.00000  Uiso   1.00
N41    N     0.55116   0.06392   0.94934   0.00000  Uiso   1.00
N42    N     0.55778   0.05683   0.58656   0.00000  Uiso   1.00
N43    N     0.18523   0.23858   0.86074   0.00000  Uiso   1.00
N44    N     0.49178   0.21911   0.93957   0.00000  Uiso   1.00
N45    N     0.49841   0.21202   0.57679   0.00000  Uiso   1.00
N46    N     0.12585   0.39377   0.85097   0.00000  Uiso   1.00
C47    C     0.23003   0.60612   0.70023   0.00000  Uiso   1.00
C48    C     0.30483   0.63242   0.66139   0.00000  Uiso   1.00
C49    C     0.33466   0.56808   0.62330   0.00000  Uiso   1.00
C50    C     0.40385   0.60642   0.59163   0.00000  Uiso   1.00
C51    C     0.51427   0.63216   0.53039   0.00000  Uiso   1.00
C52    C     0.30303   0.63046   0.76137   0.00000  Uiso   1.00
C53    C     0.33132   0.56448   0.80735   0.00000  Uiso   1.00
C54    C     0.39897   0.60118   0.85985   0.00000  Uiso   1.00
C55    C     0.50652   0.62389   0.95385   0.00000  Uiso   1.00
C56    C     0.13011   0.68055   0.68580   0.00000  Uiso   1.00
C57    C     0.01300   0.65668   0.66825   0.00000  Uiso   1.00
C58    C     0.93507   0.73556   0.65713   0.00000  Uiso   1.00
C59    C     0.77413   0.83604   0.63379   0.00000  Uiso   1.00
C60    C     0.29986   0.78863   0.71171   0.00000  Uiso   1.00
C61    C     0.34276   0.73155   0.66763   0.00000  Uiso   1.00
C62    C     0.41192   0.77000   0.63601   0.00000  Uiso   1.00
C63    C     0.44184   0.70573   0.59787   0.00000  Uiso   1.00
C64    C     0.34095   0.72959   0.76761   0.00000  Uiso   1.00
C65    C     0.40857   0.76640   0.82006   0.00000  Uiso   1.00
C66    C     0.43697   0.70048   0.86610   0.00000  Uiso   1.00
C67    C     0.16803   0.77968   0.69204   0.00000  Uiso   1.00
C68    C     0.09026   0.85860   0.68095   0.00000  Uiso   1.00
C69    C     0.97306   0.83486   0.66338   0.00000  Uiso   1.00
H70    H     0.20051   0.52895   0.69538   0.00000  Uiso   1.00
H71    H     0.30530   0.49137   0.61849   0.00000  Uiso   1.00
H72    H     0.30195   0.48777   0.80251   0.00000  Uiso   1.00
H73    H     0.98368   0.57996   0.66343   0.00000  Uiso   1.00
H74    H     0.43824   0.49341   0.53601   0.00000  Uiso   1.00
H75    H     0.43114   0.48583   0.92403   0.00000  Uiso   1.00
H76    H     0.76001   0.68024   0.63075   0.00000  Uiso   1.00
H77    H     0.32939   0.86581   0.71657   0.00000  Uiso   1.00
H78    H     0.44125   0.84672   0.64084   0.00000  Uiso   1.00
H79    H     0.43790   0.84311   0.82487   0.00000  Uiso   1.00
H80    H     0.11964   0.93531   0.68579   0.00000  Uiso   1.00
H81    H     0.54859   0.78183   0.55415   0.00000  Uiso   1.00
H82    H     0.54148   0.77424   0.94218   0.00000  Uiso   1.00
H83    H     0.87036   0.96865   0.64890   0.00000  Uiso   1.00
O84    O     0.56471   0.61897   0.49489   0.00000  Uiso   1.00
O85    O     0.55537   0.60903   0.00397   0.00000  Uiso   1.00
O86    O     0.67488   0.86409   0.61919   0.00000  Uiso   1.00
N87    N     0.44884   0.56392   0.55066   0.00000  Uiso   1.00
N88    N     0.44222   0.55683   0.91344   0.00000  Uiso   1.00
N89    N     0.81477   0.73858   0.63926   0.00000  Uiso   1.00
N90    N     0.50822   0.71911   0.56043   0.00000  Uiso   1.00
N91    N     0.50159   0.71202   0.92321   0.00000  Uiso   1.00
N92    N     0.87415   0.89377   0.64903   0.00000  Uiso   1.00
C93    C     0.23003   0.89388   0.20023   0.00000  Uiso   1.00
C94    C     0.30483   0.86758   0.16139   0.00000  Uiso   1.00
C95    C     0.33466   0.93192   0.12330   0.00000  Uiso   1.00
C96    C     0.40385   0.89358   0.09163   0.00000  Uiso   1.00
C97    C     0.51427   0.86784   0.03039   0.00000  Uiso   1.00
C98    C     0.30303   0.86954   0.26137   0.00000  Uiso   1.00
C99    C     0.33132   0.93552   0.30735   0.00000  Uiso   1.00
C100   C     0.39897   0.89882   0.35985   0.00000  Uiso   1.00
C101   C     0.50652   0.87611   0.45385   0.00000  Uiso   1.00
C102   C     0.13011   0.81945   0.18580   0.00000  Uiso   1.00
C103   C     0.01300   0.84332   0.16825   0.00000  Uiso   1.00
C104   C     0.93507   0.76444   0.15713   0.00000  Uiso   1.00
C105   C     0.77413   0.66396   0.13379   0.00000  Uiso   1.00
C106   C     0.29986   0.71137   0.21171   0.00000  Uiso   1.00
C107   C     0.34276   0.76845   0.16763   0.00000  Uiso   1.00
C108   C     0.41192   0.73000   0.13601   0.00000  Uiso   1.00
C109   C     0.44184   0.79427   0.09787   0.00000  Uiso   1.00
C110   C     0.34095   0.77041   0.26761   0.00000  Uiso   1.00
C111   C     0.40857   0.73360   0.32006   0.00000  Uiso   1.00
C112   C     0.43697   0.79952   0.36610   0.00000  Uiso   1.00
C113   C     0.16803   0.72032   0.19204   0.00000  Uiso   1.00
C114   C     0.09026   0.64140   0.18095   0.00000  Uiso   1.00
C115   C     0.97306   0.66514   0.16338   0.00000  Uiso   1.00
H116   H     0.20051   0.97105   0.19538   0.00000  Uiso   1.00
H117   H     0.30530   0.00863   0.11849   0.00000  Uiso   1.00
H118   H     0.30195   0.01223   0.30251   0.00000  Uiso   1.00
H119   H     0.98368   0.92004   0.16343   0.00000  Uiso   1.00
H120   H     0.43824   0.00659   0.03601   0.00000  Uiso   1.00
H121   H     0.43114   0.01417   0.42403   0.00000  Uiso   1.00
H122   H     0.76001   0.81976   0.13075   0.00000  Uiso   1.00
H123   H     0.32939   0.63419   0.21657   0.00000  Uiso   1.00
H124   H     0.44125   0.65328   0.14084   0.00000  Uiso   1.00
H125   H     0.43790   0.65689   0.32487   0.00000  Uiso   1.00
H126   H     0.11964   0.56469   0.18579   0.00000  Uiso   1.00
H127   H     0.54859   0.71817   0.05415   0.00000  Uiso   1.00
H128   H     0.54148   0.72576   0.44218   0.00000  Uiso   1.00
H129   H     0.87036   0.53135   0.14890   0.00000  Uiso   1.00
O130   O     0.56471   0.88103   0.99489   0.00000  Uiso   1.00
O131   O     0.55537   0.89097   0.50397   0.00000  Uiso   1.00
O132   O     0.67488   0.63591   0.11919   0.00000  Uiso   1.00
N133   N     0.44884   0.93608   0.05066   0.00000  Uiso   1.00
N134   N     0.44222   0.94317   0.41344   0.00000  Uiso   1.00
N135   N     0.81477   0.76142   0.13926   0.00000  Uiso   1.00
N136   N     0.50822   0.78089   0.06043   0.00000  Uiso   1.00
N137   N     0.50159   0.78798   0.42321   0.00000  Uiso   1.00
N138   N     0.87415   0.60623   0.14903   0.00000  Uiso   1.00
C139   C     0.76997   0.39388   0.29977   0.00000  Uiso   1.00
C140   C     0.69517   0.36758   0.33861   0.00000  Uiso   1.00
C141   C     0.66534   0.43192   0.37670   0.00000  Uiso   1.00
C142   C     0.59615   0.39358   0.40837   0.00000  Uiso   1.00
C143   C     0.48573   0.36784   0.46961   0.00000  Uiso   1.00
C144   C     0.69697   0.36954   0.23863   0.00000  Uiso   1.00
C145   C     0.66868   0.43552   0.19265   0.00000  Uiso   1.00
C146   C     0.60103   0.39882   0.14015   0.00000  Uiso   1.00
C147   C     0.49348   0.37611   0.04615   0.00000  Uiso   1.00
C148   C     0.86989   0.31945   0.31420   0.00000  Uiso   1.00
C149   C     0.98700   0.34332   0.33175   0.00000  Uiso   1.00
C150   C     0.06493   0.26444   0.34287   0.00000  Uiso   1.00
C151   C     0.22587   0.16396   0.36621   0.00000  Uiso   1.00
C152   C     0.70014   0.21137   0.28829   0.00000  Uiso   1.00
C153   C     0.65724   0.26845   0.33237   0.00000  Uiso   1.00
C154   C     0.58808   0.23000   0.36399   0.00000  Uiso   1.00
C155   C     0.55816   0.29427   0.40213   0.00000  Uiso   1.00
C156   C     0.65905   0.27041   0.23239   0.00000  Uiso   1.00
C157   C     0.59143   0.23360   0.17994   0.00000  Uiso   1.00
C158   C     0.56303   0.29952   0.13390   0.00000  Uiso   1.00
C159   C     0.83197   0.22032   0.30796   0.00000  Uiso   1.00
C160   C     0.90974   0.14140   0.31905   0.00000  Uiso   1.00
C161   C     0.02694   0.16514   0.33662   0.00000  Uiso   1.00
H162   H     0.79949   0.47105   0.30462   0.00000  Uiso   1.00
H163   H     0.69470   0.50863   0.38151   0.00000  Uiso   1.00
H164   H     0.69805   0.51223   0.19749   0.00000  Uiso   1.00
H165   H     0.01632   0.42004   0.33657   0.00000  Uiso   1.00
H166   H     0.56176   0.50659   0.46399   0.00000  Uiso   1.00
H167   H     0.56886   0.51417   0.07597   0.00000  Uiso   1.00
H168   H     0.23999   0.31976   0.36925   0.00000  Uiso   1.00
H169   H     0.67061   0.13419   0.28343   0.00000  Uiso   1.00
H170   H     0.55875   0.15328   0.35916   0.00000  Uiso   1.00
H171   H     0.56210   0.15689   0.17513   0.00000  Uiso   1.00
H172   H     0.88036   0.06469   0.31421   0.00000  Uiso   1.00
H173   H     0.45141   0.21817   0.44585   0.00000  Uiso   1.00
H174   H     0.45852   0.22576   0.05782   0.00000  Uiso   1.00
H175   H     0.12964   0.03135   0.35110   0.00000  Uiso   1.00
O176   O     0.43529   0.38103   0.50511   0.00000  Uiso   1.00
O177   O     0.44463   0.39097   0.99603   0.00000  Uiso   1.00
O178   O     0.32512   0.13591   0.38081   0.00000  Uiso   1.00
N179   N     0.55116   0.43608   0.44934   0.00000  Uiso   1.00
N180   N     0.55778   0.44317   0.08656   0.00000  Uiso   1.00
N181   N     0.18523   0.26142   0.36074   0.00000  Uiso   1.00
N182   N     0.49178   0.28089   0.43957   0.00000  Uiso   1.00
N183   N     0.49841   0.28798   0.07679   0.00000  Uiso   1.00
N184   N     0.12585   0.10623   0.35097   0.00000  Uiso   1.00
