data_job_01192
_audit_creation_date              2018-12-19
_audit_creation_method            'Materials Studio'
_symmetry_space_group_name_H-M    'P1'
_symmetry_Int_Tables_number       1
_symmetry_cell_setting            triclinic
loop_
_symmetry_equiv_pos_as_xyz
  x,y,z
_cell_length_a                    7.6603
_cell_length_b                    17.7294
_cell_length_c                    18.9132
_cell_angle_alpha                 90.0000
_cell_angle_beta                  106.2890
_cell_angle_gamma                 90.0000
loop_
_atom_site_label
_atom_site_type_symbol
_atom_site_fract_x
_atom_site_fract_y
_atom_site_fract_z
_atom_site_U_iso_or_equiv
_atom_site_adp_type
_atom_site_occupancy
C1     C     0.98258   0.72383   0.73166   0.00000  Uiso   1.00
C2     C     0.10086   0.65319   0.74654   0.00000  Uiso   1.00
C3     C     0.04557   0.58212   0.76222   0.00000  Uiso   1.00
C4     C     0.17417   0.52484   0.77417   0.00000  Uiso   1.00
C5     C     0.33086   0.41313   0.79787   0.00000  Uiso   1.00
C6     C     0.08220   0.78249   0.78744   0.00000  Uiso   1.00
C7     C     0.01120   0.82012   0.83750   0.00000  Uiso   1.00
C8     C     0.12409   0.87170   0.88387   0.00000  Uiso   1.00
C9     C     0.25176   0.96076   0.97103   0.00000  Uiso   1.00
C10    C     0.98858   0.75273   0.65644   0.00000  Uiso   1.00
C11    C     0.83886   0.76536   0.59634   0.00000  Uiso   1.00
C12    C     0.87292   0.79190   0.53243   0.00000  Uiso   1.00
C13    C     0.85523   0.83475   0.41618   0.00000  Uiso   1.00
C14    C     0.30929   0.74852   0.72500   0.00000  Uiso   1.00
C15    C     0.27832   0.66661   0.74293   0.00000  Uiso   1.00
C16    C     0.40704   0.60943   0.75486   0.00000  Uiso   1.00
C17    C     0.35194   0.53827   0.77055   0.00000  Uiso   1.00
C18    C     0.25965   0.79590   0.78383   0.00000  Uiso   1.00
C19    C     0.37267   0.84744   0.83014   0.00000  Uiso   1.00
C20    C     0.30186   0.88513   0.88025   0.00000  Uiso   1.00
C21    C     0.16604   0.76614   0.65282   0.00000  Uiso   1.00
C22    C     0.20033   0.79267   0.58899   0.00000  Uiso   1.00
C23    C     0.05070   0.80533   0.52881   0.00000  Uiso   1.00
H24    H     0.84443   0.71339   0.73447   0.00000  Uiso   1.00
H25    H     0.90823   0.57176   0.76502   0.00000  Uiso   1.00
H26    H     0.87386   0.80974   0.84028   0.00000  Uiso   1.00
H27    H     0.70155   0.75498   0.59916   0.00000  Uiso   1.00
H28    H     0.05724   0.42066   0.79731   0.00000  Uiso   1.00
H29    H     0.98476   0.92246   0.95599   0.00000  Uiso   1.00
H30    H     0.62140   0.80699   0.44755   0.00000  Uiso   1.00
H31    H     0.44746   0.75896   0.72219   0.00000  Uiso   1.00
H32    H     0.54436   0.61982   0.75206   0.00000  Uiso   1.00
H33    H     0.50998   0.85780   0.82732   0.00000  Uiso   1.00
H34    H     0.33768   0.80304   0.58621   0.00000  Uiso   1.00
H35    H     0.57355   0.45966   0.78680   0.00000  Uiso   1.00
H36    H     0.50105   0.96147   0.94547   0.00000  Uiso   1.00
H37    H     0.13771   0.84599   0.43704   0.00000  Uiso   1.00
O38    O     0.36827   0.34782   0.81195   0.00000  Uiso   1.00
O39    O     0.27315   0.00617   0.02011   0.00000  Uiso   1.00
O40    O     0.79645   0.85467   0.35306   0.00000  Uiso   1.00
N41    N     0.16545   0.44893   0.79073   0.00000  Uiso   1.00
N42    N     0.09768   0.91808   0.93908   0.00000  Uiso   1.00
N43    N     0.75798   0.81014   0.46374   0.00000  Uiso   1.00
N44    N     0.44327   0.46992   0.78507   0.00000  Uiso   1.00
N45    N     0.37550   0.93907   0.93343   0.00000  Uiso   1.00
N46    N     0.03580   0.83113   0.45808   0.00000  Uiso   1.00
C47    C     0.01742   0.22383   0.76834   0.00000  Uiso   1.00
C48    C     0.89914   0.15319   0.75346   0.00000  Uiso   1.00
C49    C     0.95443   0.08212   0.73778   0.00000  Uiso   1.00
C50    C     0.82583   0.02484   0.72583   0.00000  Uiso   1.00
C51    C     0.66914   0.91313   0.70213   0.00000  Uiso   1.00
C52    C     0.91780   0.28249   0.71256   0.00000  Uiso   1.00
C53    C     0.98880   0.32012   0.66250   0.00000  Uiso   1.00
C54    C     0.87591   0.37170   0.61613   0.00000  Uiso   1.00
C55    C     0.74824   0.46076   0.52897   0.00000  Uiso   1.00
C56    C     0.01142   0.25273   0.84356   0.00000  Uiso   1.00
C57    C     0.16114   0.26536   0.90366   0.00000  Uiso   1.00
C58    C     0.12708   0.29190   0.96757   0.00000  Uiso   1.00
C59    C     0.14477   0.33475   0.08382   0.00000  Uiso   1.00
C60    C     0.69071   0.24852   0.77500   0.00000  Uiso   1.00
C61    C     0.72168   0.16661   0.75707   0.00000  Uiso   1.00
C62    C     0.59296   0.10943   0.74514   0.00000  Uiso   1.00
C63    C     0.64806   0.03827   0.72945   0.00000  Uiso   1.00
C64    C     0.74035   0.29590   0.71617   0.00000  Uiso   1.00
C65    C     0.62733   0.34744   0.66986   0.00000  Uiso   1.00
C66    C     0.69814   0.38513   0.61975   0.00000  Uiso   1.00
C67    C     0.83396   0.26614   0.84718   0.00000  Uiso   1.00
C68    C     0.79967   0.29267   0.91101   0.00000  Uiso   1.00
C69    C     0.94930   0.30533   0.97119   0.00000  Uiso   1.00
H70    H     0.15557   0.21339   0.76553   0.00000  Uiso   1.00
H71    H     0.09177   0.07176   0.73498   0.00000  Uiso   1.00
H72    H     0.12614   0.30974   0.65972   0.00000  Uiso   1.00
H73    H     0.29845   0.25498   0.90084   0.00000  Uiso   1.00
H74    H     0.94276   0.92066   0.70269   0.00000  Uiso   1.00
H75    H     0.01524   0.42246   0.54401   0.00000  Uiso   1.00
H76    H     0.37860   0.30699   0.05245   0.00000  Uiso   1.00
H77    H     0.55254   0.25896   0.77781   0.00000  Uiso   1.00
H78    H     0.45564   0.11982   0.74794   0.00000  Uiso   1.00
H79    H     0.49002   0.35780   0.67268   0.00000  Uiso   1.00
H80    H     0.66232   0.30304   0.91379   0.00000  Uiso   1.00
H81    H     0.42645   0.95966   0.71320   0.00000  Uiso   1.00
H82    H     0.49895   0.46147   0.55453   0.00000  Uiso   1.00
H83    H     0.86229   0.34599   0.06296   0.00000  Uiso   1.00
O84    O     0.63173   0.84782   0.68805   0.00000  Uiso   1.00
O85    O     0.72685   0.50617   0.47989   0.00000  Uiso   1.00
O86    O     0.20355   0.35467   0.14694   0.00000  Uiso   1.00
N87    N     0.83455   0.94893   0.70927   0.00000  Uiso   1.00
N88    N     0.90232   0.41808   0.56092   0.00000  Uiso   1.00
N89    N     0.24202   0.31014   0.03626   0.00000  Uiso   1.00
N90    N     0.55673   0.96992   0.71493   0.00000  Uiso   1.00
N91    N     0.62450   0.43907   0.56657   0.00000  Uiso   1.00
N92    N     0.96420   0.33113   0.04192   0.00000  Uiso   1.00
C93    C     0.01742   0.27617   0.26834   0.00000  Uiso   1.00
C94    C     0.89914   0.34681   0.25346   0.00000  Uiso   1.00
C95    C     0.95443   0.41788   0.23778   0.00000  Uiso   1.00
C96    C     0.82583   0.47516   0.22583   0.00000  Uiso   1.00
C97    C     0.66914   0.58687   0.20213   0.00000  Uiso   1.00
C98    C     0.91780   0.21751   0.21256   0.00000  Uiso   1.00
C99    C     0.98880   0.17988   0.16250   0.00000  Uiso   1.00
C100   C     0.87591   0.12830   0.11613   0.00000  Uiso   1.00
C101   C     0.74824   0.03924   0.02897   0.00000  Uiso   1.00
C102   C     0.01142   0.24727   0.34356   0.00000  Uiso   1.00
C103   C     0.16114   0.23464   0.40366   0.00000  Uiso   1.00
C104   C     0.12708   0.20810   0.46757   0.00000  Uiso   1.00
C105   C     0.14477   0.16525   0.58382   0.00000  Uiso   1.00
C106   C     0.69071   0.25148   0.27500   0.00000  Uiso   1.00
C107   C     0.72168   0.33339   0.25707   0.00000  Uiso   1.00
C108   C     0.59296   0.39057   0.24514   0.00000  Uiso   1.00
C109   C     0.64806   0.46173   0.22945   0.00000  Uiso   1.00
C110   C     0.74035   0.20410   0.21617   0.00000  Uiso   1.00
C111   C     0.62733   0.15256   0.16986   0.00000  Uiso   1.00
C112   C     0.69814   0.11487   0.11975   0.00000  Uiso   1.00
C113   C     0.83396   0.23386   0.34718   0.00000  Uiso   1.00
C114   C     0.79967   0.20733   0.41101   0.00000  Uiso   1.00
C115   C     0.94930   0.19467   0.47119   0.00000  Uiso   1.00
H116   H     0.15557   0.28661   0.26553   0.00000  Uiso   1.00
H117   H     0.09177   0.42824   0.23498   0.00000  Uiso   1.00
H118   H     0.12614   0.19026   0.15972   0.00000  Uiso   1.00
H119   H     0.29845   0.24502   0.40084   0.00000  Uiso   1.00
H120   H     0.94276   0.57934   0.20269   0.00000  Uiso   1.00
H121   H     0.01524   0.07754   0.04401   0.00000  Uiso   1.00
H122   H     0.37860   0.19301   0.55245   0.00000  Uiso   1.00
H123   H     0.55254   0.24104   0.27781   0.00000  Uiso   1.00
H124   H     0.45564   0.38018   0.24794   0.00000  Uiso   1.00
H125   H     0.49002   0.14220   0.17268   0.00000  Uiso   1.00
H126   H     0.66232   0.19696   0.41379   0.00000  Uiso   1.00
H127   H     0.42645   0.54034   0.21320   0.00000  Uiso   1.00
H128   H     0.49895   0.03853   0.05453   0.00000  Uiso   1.00
H129   H     0.86229   0.15401   0.56296   0.00000  Uiso   1.00
O130   O     0.63173   0.65218   0.18805   0.00000  Uiso   1.00
O131   O     0.72685   0.99383   0.97989   0.00000  Uiso   1.00
O132   O     0.20355   0.14533   0.64694   0.00000  Uiso   1.00
N133   N     0.83455   0.55107   0.20927   0.00000  Uiso   1.00
N134   N     0.90232   0.08192   0.06092   0.00000  Uiso   1.00
N135   N     0.24202   0.18986   0.53626   0.00000  Uiso   1.00
N136   N     0.55673   0.53008   0.21493   0.00000  Uiso   1.00
N137   N     0.62450   0.06093   0.06657   0.00000  Uiso   1.00
N138   N     0.96420   0.16887   0.54192   0.00000  Uiso   1.00
C139   C     0.98258   0.77617   0.23166   0.00000  Uiso   1.00
C140   C     0.10086   0.84681   0.24654   0.00000  Uiso   1.00
C141   C     0.04557   0.91788   0.26222   0.00000  Uiso   1.00
C142   C     0.17417   0.97516   0.27417   0.00000  Uiso   1.00
C143   C     0.33086   0.08687   0.29787   0.00000  Uiso   1.00
C144   C     0.08220   0.71751   0.28744   0.00000  Uiso   1.00
C145   C     0.01120   0.67988   0.33750   0.00000  Uiso   1.00
C146   C     0.12409   0.62830   0.38387   0.00000  Uiso   1.00
C147   C     0.25176   0.53924   0.47103   0.00000  Uiso   1.00
C148   C     0.98858   0.74727   0.15644   0.00000  Uiso   1.00
C149   C     0.83886   0.73464   0.09634   0.00000  Uiso   1.00
C150   C     0.87292   0.70810   0.03243   0.00000  Uiso   1.00
C151   C     0.85523   0.66525   0.91618   0.00000  Uiso   1.00
C152   C     0.30929   0.75148   0.22500   0.00000  Uiso   1.00
C153   C     0.27832   0.83339   0.24293   0.00000  Uiso   1.00
C154   C     0.40704   0.89057   0.25486   0.00000  Uiso   1.00
C155   C     0.35194   0.96173   0.27055   0.00000  Uiso   1.00
C156   C     0.25965   0.70410   0.28383   0.00000  Uiso   1.00
C157   C     0.37267   0.65256   0.33014   0.00000  Uiso   1.00
C158   C     0.30186   0.61487   0.38025   0.00000  Uiso   1.00
C159   C     0.16604   0.73386   0.15282   0.00000  Uiso   1.00
C160   C     0.20033   0.70733   0.08899   0.00000  Uiso   1.00
C161   C     0.05070   0.69467   0.02881   0.00000  Uiso   1.00
H162   H     0.84443   0.78661   0.23447   0.00000  Uiso   1.00
H163   H     0.90823   0.92824   0.26502   0.00000  Uiso   1.00
H164   H     0.87386   0.69026   0.34028   0.00000  Uiso   1.00
H165   H     0.70155   0.74502   0.09916   0.00000  Uiso   1.00
H166   H     0.05724   0.07934   0.29731   0.00000  Uiso   1.00
H167   H     0.98476   0.57754   0.45599   0.00000  Uiso   1.00
H168   H     0.62140   0.69301   0.94755   0.00000  Uiso   1.00
H169   H     0.44746   0.74104   0.22219   0.00000  Uiso   1.00
H170   H     0.54436   0.88018   0.25206   0.00000  Uiso   1.00
H171   H     0.50998   0.64220   0.32732   0.00000  Uiso   1.00
H172   H     0.33768   0.69696   0.08621   0.00000  Uiso   1.00
H173   H     0.57355   0.04034   0.28680   0.00000  Uiso   1.00
H174   H     0.50105   0.53853   0.44547   0.00000  Uiso   1.00
H175   H     0.13771   0.65401   0.93704   0.00000  Uiso   1.00
O176   O     0.36827   0.15218   0.31195   0.00000  Uiso   1.00
O177   O     0.27315   0.49383   0.52011   0.00000  Uiso   1.00
O178   O     0.79645   0.64533   0.85306   0.00000  Uiso   1.00
N179   N     0.16545   0.05107   0.29073   0.00000  Uiso   1.00
N180   N     0.09768   0.58192   0.43908   0.00000  Uiso   1.00
N181   N     0.75798   0.68986   0.96374   0.00000  Uiso   1.00
N182   N     0.44327   0.03008   0.28507   0.00000  Uiso   1.00
N183   N     0.37550   0.56093   0.43343   0.00000  Uiso   1.00
N184   N     0.03580   0.66887   0.95808   0.00000  Uiso   1.00
