data_job_02065
_audit_creation_date              2018-12-19
_audit_creation_method            'Materials Studio'
_symmetry_space_group_name_H-M    'P1'
_symmetry_Int_Tables_number       1
_symmetry_cell_setting            triclinic
loop_
_symmetry_equiv_pos_as_xyz
  x,y,z
_cell_length_a                    15.1375
_cell_length_b                    18.3676
_cell_length_c                    21.8217
_cell_angle_alpha                 90.0000
_cell_angle_beta                  112.9313
_cell_angle_gamma                 90.0000
loop_
_atom_site_label
_atom_site_type_symbol
_atom_site_fract_x
_atom_site_fract_y
_atom_site_fract_z
_atom_site_U_iso_or_equiv
_atom_site_adp_type
_atom_site_occupancy
C1     C     0.13914   0.56907   0.17384   0.00000  Uiso   1.00
C2     C     0.15827   0.63582   0.13929   0.00000  Uiso   1.00
C3     C     0.09323   0.69113   0.10943   0.00000  Uiso   1.00
C4     C     0.12454   0.74747   0.08049   0.00000  Uiso   1.00
C5     C     0.14008   0.85095   0.02667   0.00000  Uiso   1.00
C6     C     0.16018   0.50319   0.13918   0.00000  Uiso   1.00
C7     C     0.09674   0.44698   0.10923   0.00000  Uiso   1.00
C8     C     0.12966   0.39167   0.08020   0.00000  Uiso   1.00
C9     C     0.14818   0.28922   0.02626   0.00000  Uiso   1.00
C10    C     0.21633   0.56938   0.24421   0.00000  Uiso   1.00
C11    C     0.20012   0.56879   0.30258   0.00000  Uiso   1.00
C12    C     0.28032   0.56918   0.36198   0.00000  Uiso   1.00
C13    C     0.38603   0.56948   0.47111   0.00000  Uiso   1.00
C14    C     0.31040   0.57079   0.17554   0.00000  Uiso   1.00
C15    C     0.25129   0.63675   0.14022   0.00000  Uiso   1.00
C16    C     0.28270   0.69302   0.11131   0.00000  Uiso   1.00
C17    C     0.21772   0.74840   0.08141   0.00000  Uiso   1.00
C18    C     0.25319   0.50412   0.14010   0.00000  Uiso   1.00
C19    C     0.28621   0.44888   0.11112   0.00000  Uiso   1.00
C20    C     0.22284   0.39260   0.08113   0.00000  Uiso   1.00
C21    C     0.30935   0.57031   0.24514   0.00000  Uiso   1.00
C22    C     0.38959   0.57069   0.30446   0.00000  Uiso   1.00
C23    C     0.37351   0.57011   0.36290   0.00000  Uiso   1.00
H24    H     0.06672   0.56835   0.17312   0.00000  Uiso   1.00
H25    H     0.02125   0.69039   0.10872   0.00000  Uiso   1.00
H26    H     0.02477   0.44628   0.10853   0.00000  Uiso   1.00
H27    H     0.12813   0.56807   0.30184   0.00000  Uiso   1.00
H28    H     0.01185   0.82608   0.03771   0.00000  Uiso   1.00
H29    H     0.01927   0.31135   0.03733   0.00000  Uiso   1.00
H30    H     0.23723   0.56818   0.44496   0.00000  Uiso   1.00
H31    H     0.38282   0.57151   0.17626   0.00000  Uiso   1.00
H32    H     0.35469   0.69373   0.11204   0.00000  Uiso   1.00
H33    H     0.35820   0.44961   0.11184   0.00000  Uiso   1.00
H34    H     0.46157   0.57141   0.30515   0.00000  Uiso   1.00
H35    H     0.28248   0.82879   0.04040   0.00000  Uiso   1.00
H36    H     0.28990   0.31406   0.04002   0.00000  Uiso   1.00
H37    H     0.50786   0.57089   0.44765   0.00000  Uiso   1.00
O38    O     0.12294   0.90777   0.99673   0.00000  Uiso   1.00
O39    O     0.13269   0.23245   0.99624   0.00000  Uiso   1.00
O40    O     0.41865   0.56941   0.53104   0.00000  Uiso   1.00
N41    N     0.07941   0.80996   0.04717   0.00000  Uiso   1.00
N42    N     0.08634   0.32872   0.04680   0.00000  Uiso   1.00
N43    N     0.29012   0.56881   0.42791   0.00000  Uiso   1.00
N44    N     0.22503   0.81142   0.04861   0.00000  Uiso   1.00
N45    N     0.23196   0.33018   0.04825   0.00000  Uiso   1.00
N46    N     0.43574   0.57027   0.42935   0.00000  Uiso   1.00
C47    C     0.63914   0.06907   0.17384   0.00000  Uiso   1.00
C48    C     0.65827   0.13582   0.13929   0.00000  Uiso   1.00
C49    C     0.59323   0.19113   0.10943   0.00000  Uiso   1.00
C50    C     0.62454   0.24747   0.08049   0.00000  Uiso   1.00
C51    C     0.64008   0.35095   0.02667   0.00000  Uiso   1.00
C52    C     0.66018   0.00319   0.13918   0.00000  Uiso   1.00
C53    C     0.59674   0.94698   0.10923   0.00000  Uiso   1.00
C54    C     0.62966   0.89167   0.08020   0.00000  Uiso   1.00
C55    C     0.64818   0.78922   0.02626   0.00000  Uiso   1.00
C56    C     0.71633   0.06938   0.24421   0.00000  Uiso   1.00
C57    C     0.70012   0.06879   0.30258   0.00000  Uiso   1.00
C58    C     0.78032   0.06918   0.36198   0.00000  Uiso   1.00
C59    C     0.88603   0.06948   0.47111   0.00000  Uiso   1.00
C60    C     0.81040   0.07079   0.17554   0.00000  Uiso   1.00
C61    C     0.75129   0.13675   0.14022   0.00000  Uiso   1.00
C62    C     0.78270   0.19302   0.11131   0.00000  Uiso   1.00
C63    C     0.71772   0.24840   0.08141   0.00000  Uiso   1.00
C64    C     0.75319   0.00412   0.14010   0.00000  Uiso   1.00
C65    C     0.78621   0.94888   0.11112   0.00000  Uiso   1.00
C66    C     0.72284   0.89260   0.08113   0.00000  Uiso   1.00
C67    C     0.80935   0.07031   0.24514   0.00000  Uiso   1.00
C68    C     0.88959   0.07069   0.30446   0.00000  Uiso   1.00
C69    C     0.87351   0.07011   0.36290   0.00000  Uiso   1.00
H70    H     0.56672   0.06835   0.17312   0.00000  Uiso   1.00
H71    H     0.52125   0.19039   0.10872   0.00000  Uiso   1.00
H72    H     0.52477   0.94628   0.10853   0.00000  Uiso   1.00
H73    H     0.62813   0.06807   0.30184   0.00000  Uiso   1.00
H74    H     0.51185   0.32608   0.03771   0.00000  Uiso   1.00
H75    H     0.51927   0.81135   0.03733   0.00000  Uiso   1.00
H76    H     0.73723   0.06818   0.44496   0.00000  Uiso   1.00
H77    H     0.88282   0.07151   0.17626   0.00000  Uiso   1.00
H78    H     0.85469   0.19373   0.11204   0.00000  Uiso   1.00
H79    H     0.85820   0.94961   0.11184   0.00000  Uiso   1.00
H80    H     0.96157   0.07141   0.30515   0.00000  Uiso   1.00
H81    H     0.78248   0.32879   0.04040   0.00000  Uiso   1.00
H82    H     0.78990   0.81406   0.04002   0.00000  Uiso   1.00
H83    H     0.00786   0.07089   0.44765   0.00000  Uiso   1.00
O84    O     0.62294   0.40777   0.99673   0.00000  Uiso   1.00
O85    O     0.63269   0.73245   0.99624   0.00000  Uiso   1.00
O86    O     0.91865   0.06941   0.53104   0.00000  Uiso   1.00
N87    N     0.57941   0.30996   0.04717   0.00000  Uiso   1.00
N88    N     0.58634   0.82872   0.04680   0.00000  Uiso   1.00
N89    N     0.79012   0.06881   0.42791   0.00000  Uiso   1.00
N90    N     0.72503   0.31142   0.04861   0.00000  Uiso   1.00
N91    N     0.73196   0.83018   0.04825   0.00000  Uiso   1.00
N92    N     0.93574   0.07027   0.42935   0.00000  Uiso   1.00
C93    C     0.86086   0.56907   0.32616   0.00000  Uiso   1.00
C94    C     0.84173   0.63582   0.36071   0.00000  Uiso   1.00
C95    C     0.90677   0.69113   0.39057   0.00000  Uiso   1.00
C96    C     0.87546   0.74747   0.41951   0.00000  Uiso   1.00
C97    C     0.85992   0.85095   0.47333   0.00000  Uiso   1.00
C98    C     0.83982   0.50319   0.36082   0.00000  Uiso   1.00
C99    C     0.90326   0.44698   0.39077   0.00000  Uiso   1.00
C100   C     0.87034   0.39167   0.41980   0.00000  Uiso   1.00
C101   C     0.85182   0.28922   0.47374   0.00000  Uiso   1.00
C102   C     0.78367   0.56938   0.25579   0.00000  Uiso   1.00
C103   C     0.79988   0.56879   0.19742   0.00000  Uiso   1.00
C104   C     0.71968   0.56918   0.13802   0.00000  Uiso   1.00
C105   C     0.61397   0.56948   0.02889   0.00000  Uiso   1.00
C106   C     0.68960   0.57079   0.32446   0.00000  Uiso   1.00
C107   C     0.74871   0.63675   0.35978   0.00000  Uiso   1.00
C108   C     0.71730   0.69302   0.38869   0.00000  Uiso   1.00
C109   C     0.78228   0.74840   0.41859   0.00000  Uiso   1.00
C110   C     0.74681   0.50412   0.35990   0.00000  Uiso   1.00
C111   C     0.71379   0.44888   0.38888   0.00000  Uiso   1.00
C112   C     0.77716   0.39260   0.41887   0.00000  Uiso   1.00
C113   C     0.69065   0.57031   0.25486   0.00000  Uiso   1.00
C114   C     0.61041   0.57069   0.19554   0.00000  Uiso   1.00
C115   C     0.62649   0.57011   0.13710   0.00000  Uiso   1.00
H116   H     0.93328   0.56835   0.32688   0.00000  Uiso   1.00
H117   H     0.97875   0.69039   0.39128   0.00000  Uiso   1.00
H118   H     0.97523   0.44628   0.39147   0.00000  Uiso   1.00
H119   H     0.87187   0.56807   0.19816   0.00000  Uiso   1.00
H120   H     0.98815   0.82608   0.46229   0.00000  Uiso   1.00
H121   H     0.98073   0.31135   0.46267   0.00000  Uiso   1.00
H122   H     0.76277   0.56818   0.05504   0.00000  Uiso   1.00
H123   H     0.61718   0.57151   0.32374   0.00000  Uiso   1.00
H124   H     0.64531   0.69373   0.38796   0.00000  Uiso   1.00
H125   H     0.64180   0.44961   0.38816   0.00000  Uiso   1.00
H126   H     0.53843   0.57141   0.19485   0.00000  Uiso   1.00
H127   H     0.71752   0.82879   0.45960   0.00000  Uiso   1.00
H128   H     0.71010   0.31406   0.45998   0.00000  Uiso   1.00
H129   H     0.49214   0.57089   0.05235   0.00000  Uiso   1.00
O130   O     0.87706   0.90777   0.50327   0.00000  Uiso   1.00
O131   O     0.86731   0.23245   0.50376   0.00000  Uiso   1.00
O132   O     0.58135   0.56941   0.96896   0.00000  Uiso   1.00
N133   N     0.92059   0.80996   0.45283   0.00000  Uiso   1.00
N134   N     0.91366   0.32872   0.45320   0.00000  Uiso   1.00
N135   N     0.70988   0.56881   0.07209   0.00000  Uiso   1.00
N136   N     0.77497   0.81142   0.45139   0.00000  Uiso   1.00
N137   N     0.76804   0.33018   0.45175   0.00000  Uiso   1.00
N138   N     0.56426   0.57027   0.07065   0.00000  Uiso   1.00
C139   C     0.36086   0.06907   0.32616   0.00000  Uiso   1.00
C140   C     0.34173   0.13582   0.36071   0.00000  Uiso   1.00
C141   C     0.40677   0.19113   0.39057   0.00000  Uiso   1.00
C142   C     0.37546   0.24747   0.41951   0.00000  Uiso   1.00
C143   C     0.35992   0.35095   0.47333   0.00000  Uiso   1.00
C144   C     0.33982   0.00319   0.36082   0.00000  Uiso   1.00
C145   C     0.40326   0.94698   0.39077   0.00000  Uiso   1.00
C146   C     0.37034   0.89167   0.41980   0.00000  Uiso   1.00
C147   C     0.35182   0.78922   0.47374   0.00000  Uiso   1.00
C148   C     0.28367   0.06938   0.25579   0.00000  Uiso   1.00
C149   C     0.29988   0.06879   0.19742   0.00000  Uiso   1.00
C150   C     0.21968   0.06918   0.13802   0.00000  Uiso   1.00
C151   C     0.11397   0.06948   0.02889   0.00000  Uiso   1.00
C152   C     0.18960   0.07079   0.32446   0.00000  Uiso   1.00
C153   C     0.24871   0.13675   0.35978   0.00000  Uiso   1.00
C154   C     0.21730   0.19302   0.38869   0.00000  Uiso   1.00
C155   C     0.28228   0.24840   0.41859   0.00000  Uiso   1.00
C156   C     0.24681   0.00412   0.35990   0.00000  Uiso   1.00
C157   C     0.21379   0.94888   0.38888   0.00000  Uiso   1.00
C158   C     0.27716   0.89260   0.41887   0.00000  Uiso   1.00
C159   C     0.19065   0.07031   0.25486   0.00000  Uiso   1.00
C160   C     0.11041   0.07069   0.19554   0.00000  Uiso   1.00
C161   C     0.12649   0.07011   0.13710   0.00000  Uiso   1.00
H162   H     0.43328   0.06835   0.32688   0.00000  Uiso   1.00
H163   H     0.47875   0.19039   0.39128   0.00000  Uiso   1.00
H164   H     0.47523   0.94628   0.39147   0.00000  Uiso   1.00
H165   H     0.37187   0.06807   0.19816   0.00000  Uiso   1.00
H166   H     0.48815   0.32608   0.46229   0.00000  Uiso   1.00
H167   H     0.48073   0.81135   0.46267   0.00000  Uiso   1.00
H168   H     0.26277   0.06818   0.05504   0.00000  Uiso   1.00
H169   H     0.11718   0.07151   0.32374   0.00000  Uiso   1.00
H170   H     0.14531   0.19373   0.38796   0.00000  Uiso   1.00
H171   H     0.14180   0.94961   0.38816   0.00000  Uiso   1.00
H172   H     0.03843   0.07141   0.19485   0.00000  Uiso   1.00
H173   H     0.21752   0.32879   0.45960   0.00000  Uiso   1.00
H174   H     0.21010   0.81406   0.45998   0.00000  Uiso   1.00
H175   H     0.99214   0.07089   0.05235   0.00000  Uiso   1.00
O176   O     0.37706   0.40777   0.50327   0.00000  Uiso   1.00
O177   O     0.36731   0.73245   0.50376   0.00000  Uiso   1.00
O178   O     0.08135   0.06941   0.96896   0.00000  Uiso   1.00
N179   N     0.42059   0.30996   0.45283   0.00000  Uiso   1.00
N180   N     0.41366   0.82872   0.45320   0.00000  Uiso   1.00
N181   N     0.20988   0.06881   0.07209   0.00000  Uiso   1.00
N182   N     0.27497   0.31142   0.45139   0.00000  Uiso   1.00
N183   N     0.26804   0.83018   0.45175   0.00000  Uiso   1.00
N184   N     0.06426   0.07027   0.07065   0.00000  Uiso   1.00
C185   C     0.86086   0.43093   0.82616   0.00000  Uiso   1.00
C186   C     0.84173   0.36418   0.86071   0.00000  Uiso   1.00
C187   C     0.90677   0.30887   0.89057   0.00000  Uiso   1.00
C188   C     0.87546   0.25253   0.91951   0.00000  Uiso   1.00
C189   C     0.85992   0.14905   0.97333   0.00000  Uiso   1.00
C190   C     0.83982   0.49681   0.86082   0.00000  Uiso   1.00
C191   C     0.90326   0.55302   0.89077   0.00000  Uiso   1.00
C192   C     0.87034   0.60833   0.91980   0.00000  Uiso   1.00
C193   C     0.85182   0.71078   0.97374   0.00000  Uiso   1.00
C194   C     0.78367   0.43062   0.75579   0.00000  Uiso   1.00
C195   C     0.79988   0.43121   0.69742   0.00000  Uiso   1.00
C196   C     0.71968   0.43082   0.63802   0.00000  Uiso   1.00
C197   C     0.61397   0.43052   0.52889   0.00000  Uiso   1.00
C198   C     0.68960   0.42921   0.82446   0.00000  Uiso   1.00
C199   C     0.74871   0.36325   0.85978   0.00000  Uiso   1.00
C200   C     0.71730   0.30698   0.88869   0.00000  Uiso   1.00
C201   C     0.78228   0.25160   0.91859   0.00000  Uiso   1.00
C202   C     0.74681   0.49588   0.85990   0.00000  Uiso   1.00
C203   C     0.71379   0.55112   0.88888   0.00000  Uiso   1.00
C204   C     0.77716   0.60740   0.91887   0.00000  Uiso   1.00
C205   C     0.69065   0.42969   0.75486   0.00000  Uiso   1.00
C206   C     0.61041   0.42931   0.69554   0.00000  Uiso   1.00
C207   C     0.62649   0.42989   0.63710   0.00000  Uiso   1.00
H208   H     0.93328   0.43165   0.82688   0.00000  Uiso   1.00
H209   H     0.97875   0.30961   0.89128   0.00000  Uiso   1.00
H210   H     0.97523   0.55372   0.89147   0.00000  Uiso   1.00
H211   H     0.87187   0.43193   0.69816   0.00000  Uiso   1.00
H212   H     0.98815   0.17392   0.96229   0.00000  Uiso   1.00
H213   H     0.98073   0.68865   0.96267   0.00000  Uiso   1.00
H214   H     0.76277   0.43182   0.55504   0.00000  Uiso   1.00
H215   H     0.61718   0.42849   0.82374   0.00000  Uiso   1.00
H216   H     0.64531   0.30627   0.88796   0.00000  Uiso   1.00
H217   H     0.64180   0.55039   0.88816   0.00000  Uiso   1.00
H218   H     0.53843   0.42859   0.69485   0.00000  Uiso   1.00
H219   H     0.71752   0.17121   0.95960   0.00000  Uiso   1.00
H220   H     0.71010   0.68594   0.95998   0.00000  Uiso   1.00
H221   H     0.49214   0.42911   0.55235   0.00000  Uiso   1.00
O222   O     0.87706   0.09223   0.00327   0.00000  Uiso   1.00
O223   O     0.86731   0.76755   0.00376   0.00000  Uiso   1.00
O224   O     0.58135   0.43059   0.46896   0.00000  Uiso   1.00
N225   N     0.92059   0.19004   0.95283   0.00000  Uiso   1.00
N226   N     0.91366   0.67128   0.95320   0.00000  Uiso   1.00
N227   N     0.70988   0.43119   0.57209   0.00000  Uiso   1.00
N228   N     0.77497   0.18858   0.95139   0.00000  Uiso   1.00
N229   N     0.76804   0.66982   0.95175   0.00000  Uiso   1.00
N230   N     0.56426   0.42973   0.57065   0.00000  Uiso   1.00
C231   C     0.36086   0.93093   0.82616   0.00000  Uiso   1.00
C232   C     0.34173   0.86418   0.86071   0.00000  Uiso   1.00
C233   C     0.40677   0.80887   0.89057   0.00000  Uiso   1.00
C234   C     0.37546   0.75253   0.91951   0.00000  Uiso   1.00
C235   C     0.35992   0.64905   0.97333   0.00000  Uiso   1.00
C236   C     0.33982   0.99681   0.86082   0.00000  Uiso   1.00
C237   C     0.40326   0.05302   0.89077   0.00000  Uiso   1.00
C238   C     0.37034   0.10833   0.91980   0.00000  Uiso   1.00
C239   C     0.35182   0.21078   0.97374   0.00000  Uiso   1.00
C240   C     0.28367   0.93062   0.75579   0.00000  Uiso   1.00
C241   C     0.29988   0.93121   0.69742   0.00000  Uiso   1.00
C242   C     0.21968   0.93082   0.63802   0.00000  Uiso   1.00
C243   C     0.11397   0.93052   0.52889   0.00000  Uiso   1.00
C244   C     0.18960   0.92921   0.82446   0.00000  Uiso   1.00
C245   C     0.24871   0.86325   0.85978   0.00000  Uiso   1.00
C246   C     0.21730   0.80698   0.88869   0.00000  Uiso   1.00
C247   C     0.28228   0.75160   0.91859   0.00000  Uiso   1.00
C248   C     0.24681   0.99588   0.85990   0.00000  Uiso   1.00
C249   C     0.21379   0.05112   0.88888   0.00000  Uiso   1.00
C250   C     0.27716   0.10740   0.91887   0.00000  Uiso   1.00
C251   C     0.19065   0.92969   0.75486   0.00000  Uiso   1.00
C252   C     0.11041   0.92931   0.69554   0.00000  Uiso   1.00
C253   C     0.12649   0.92989   0.63710   0.00000  Uiso   1.00
H254   H     0.43328   0.93165   0.82688   0.00000  Uiso   1.00
H255   H     0.47875   0.80961   0.89128   0.00000  Uiso   1.00
H256   H     0.47523   0.05372   0.89147   0.00000  Uiso   1.00
H257   H     0.37187   0.93193   0.69816   0.00000  Uiso   1.00
H258   H     0.48815   0.67392   0.96229   0.00000  Uiso   1.00
H259   H     0.48073   0.18865   0.96267   0.00000  Uiso   1.00
H260   H     0.26277   0.93182   0.55504   0.00000  Uiso   1.00
H261   H     0.11718   0.92849   0.82374   0.00000  Uiso   1.00
H262   H     0.14531   0.80627   0.88796   0.00000  Uiso   1.00
H263   H     0.14180   0.05039   0.88816   0.00000  Uiso   1.00
H264   H     0.03843   0.92859   0.69485   0.00000  Uiso   1.00
H265   H     0.21752   0.67121   0.95960   0.00000  Uiso   1.00
H266   H     0.21010   0.18594   0.95998   0.00000  Uiso   1.00
H267   H     0.99214   0.92911   0.55235   0.00000  Uiso   1.00
O268   O     0.37706   0.59223   0.00327   0.00000  Uiso   1.00
O269   O     0.36731   0.26755   0.00376   0.00000  Uiso   1.00
O270   O     0.08135   0.93059   0.46896   0.00000  Uiso   1.00
N271   N     0.42059   0.69004   0.95283   0.00000  Uiso   1.00
N272   N     0.41366   0.17128   0.95320   0.00000  Uiso   1.00
N273   N     0.20988   0.93119   0.57209   0.00000  Uiso   1.00
N274   N     0.27497   0.68858   0.95139   0.00000  Uiso   1.00
N275   N     0.26804   0.16982   0.95175   0.00000  Uiso   1.00
N276   N     0.06426   0.92973   0.57065   0.00000  Uiso   1.00
C277   C     0.13914   0.43093   0.67384   0.00000  Uiso   1.00
C278   C     0.15827   0.36418   0.63929   0.00000  Uiso   1.00
C279   C     0.09323   0.30887   0.60943   0.00000  Uiso   1.00
C280   C     0.12454   0.25253   0.58049   0.00000  Uiso   1.00
C281   C     0.14008   0.14905   0.52667   0.00000  Uiso   1.00
C282   C     0.16018   0.49681   0.63918   0.00000  Uiso   1.00
C283   C     0.09674   0.55302   0.60923   0.00000  Uiso   1.00
C284   C     0.12966   0.60833   0.58020   0.00000  Uiso   1.00
C285   C     0.14818   0.71078   0.52626   0.00000  Uiso   1.00
C286   C     0.21633   0.43062   0.74421   0.00000  Uiso   1.00
C287   C     0.20012   0.43121   0.80258   0.00000  Uiso   1.00
C288   C     0.28032   0.43082   0.86198   0.00000  Uiso   1.00
C289   C     0.38603   0.43052   0.97111   0.00000  Uiso   1.00
C290   C     0.31040   0.42921   0.67554   0.00000  Uiso   1.00
C291   C     0.25129   0.36325   0.64022   0.00000  Uiso   1.00
C292   C     0.28270   0.30698   0.61131   0.00000  Uiso   1.00
C293   C     0.21772   0.25160   0.58141   0.00000  Uiso   1.00
C294   C     0.25319   0.49588   0.64010   0.00000  Uiso   1.00
C295   C     0.28621   0.55112   0.61112   0.00000  Uiso   1.00
C296   C     0.22284   0.60740   0.58113   0.00000  Uiso   1.00
C297   C     0.30935   0.42969   0.74514   0.00000  Uiso   1.00
C298   C     0.38959   0.42931   0.80446   0.00000  Uiso   1.00
C299   C     0.37351   0.42989   0.86290   0.00000  Uiso   1.00
H300   H     0.06672   0.43165   0.67312   0.00000  Uiso   1.00
H301   H     0.02125   0.30961   0.60872   0.00000  Uiso   1.00
H302   H     0.02477   0.55372   0.60853   0.00000  Uiso   1.00
H303   H     0.12813   0.43193   0.80184   0.00000  Uiso   1.00
H304   H     0.01185   0.17392   0.53771   0.00000  Uiso   1.00
H305   H     0.01927   0.68865   0.53733   0.00000  Uiso   1.00
H306   H     0.23723   0.43182   0.94496   0.00000  Uiso   1.00
H307   H     0.38282   0.42849   0.67626   0.00000  Uiso   1.00
H308   H     0.35469   0.30627   0.61204   0.00000  Uiso   1.00
H309   H     0.35820   0.55039   0.61184   0.00000  Uiso   1.00
H310   H     0.46157   0.42859   0.80515   0.00000  Uiso   1.00
H311   H     0.28248   0.17121   0.54040   0.00000  Uiso   1.00
H312   H     0.28990   0.68594   0.54002   0.00000  Uiso   1.00
H313   H     0.50786   0.42911   0.94765   0.00000  Uiso   1.00
O314   O     0.12294   0.09223   0.49673   0.00000  Uiso   1.00
O315   O     0.13269   0.76755   0.49624   0.00000  Uiso   1.00
O316   O     0.41865   0.43059   0.03104   0.00000  Uiso   1.00
N317   N     0.07941   0.19004   0.54717   0.00000  Uiso   1.00
N318   N     0.08634   0.67128   0.54680   0.00000  Uiso   1.00
N319   N     0.29012   0.43119   0.92791   0.00000  Uiso   1.00
N320   N     0.22503   0.18858   0.54861   0.00000  Uiso   1.00
N321   N     0.23196   0.66982   0.54825   0.00000  Uiso   1.00
N322   N     0.43574   0.42973   0.92935   0.00000  Uiso   1.00
C323   C     0.63914   0.93093   0.67384   0.00000  Uiso   1.00
C324   C     0.65827   0.86418   0.63929   0.00000  Uiso   1.00
C325   C     0.59323   0.80887   0.60943   0.00000  Uiso   1.00
C326   C     0.62454   0.75253   0.58049   0.00000  Uiso   1.00
C327   C     0.64008   0.64905   0.52667   0.00000  Uiso   1.00
C328   C     0.66018   0.99681   0.63918   0.00000  Uiso   1.00
C329   C     0.59674   0.05302   0.60923   0.00000  Uiso   1.00
C330   C     0.62966   0.10833   0.58020   0.00000  Uiso   1.00
C331   C     0.64818   0.21078   0.52626   0.00000  Uiso   1.00
C332   C     0.71633   0.93062   0.74421   0.00000  Uiso   1.00
C333   C     0.70012   0.93121   0.80258   0.00000  Uiso   1.00
C334   C     0.78032   0.93082   0.86198   0.00000  Uiso   1.00
C335   C     0.88603   0.93052   0.97111   0.00000  Uiso   1.00
C336   C     0.81040   0.92921   0.67554   0.00000  Uiso   1.00
C337   C     0.75129   0.86325   0.64022   0.00000  Uiso   1.00
C338   C     0.78270   0.80698   0.61131   0.00000  Uiso   1.00
C339   C     0.71772   0.75160   0.58141   0.00000  Uiso   1.00
C340   C     0.75319   0.99588   0.64010   0.00000  Uiso   1.00
C341   C     0.78621   0.05112   0.61112   0.00000  Uiso   1.00
C342   C     0.72284   0.10740   0.58113   0.00000  Uiso   1.00
C343   C     0.80935   0.92969   0.74514   0.00000  Uiso   1.00
C344   C     0.88959   0.92931   0.80446   0.00000  Uiso   1.00
C345   C     0.87351   0.92989   0.86290   0.00000  Uiso   1.00
H346   H     0.56672   0.93165   0.67312   0.00000  Uiso   1.00
H347   H     0.52125   0.80961   0.60872   0.00000  Uiso   1.00
H348   H     0.52477   0.05372   0.60853   0.00000  Uiso   1.00
H349   H     0.62813   0.93193   0.80184   0.00000  Uiso   1.00
H350   H     0.51185   0.67392   0.53771   0.00000  Uiso   1.00
H351   H     0.51927   0.18865   0.53733   0.00000  Uiso   1.00
H352   H     0.73723   0.93182   0.94496   0.00000  Uiso   1.00
H353   H     0.88282   0.92849   0.67626   0.00000  Uiso   1.00
H354   H     0.85469   0.80627   0.61204   0.00000  Uiso   1.00
H355   H     0.85820   0.05039   0.61184   0.00000  Uiso   1.00
H356   H     0.96157   0.92859   0.80515   0.00000  Uiso   1.00
H357   H     0.78248   0.67121   0.54040   0.00000  Uiso   1.00
H358   H     0.78990   0.18594   0.54002   0.00000  Uiso   1.00
H359   H     0.00786   0.92911   0.94765   0.00000  Uiso   1.00
O360   O     0.62294   0.59223   0.49673   0.00000  Uiso   1.00
O361   O     0.63269   0.26755   0.49624   0.00000  Uiso   1.00
O362   O     0.91865   0.93059   0.03104   0.00000  Uiso   1.00
N363   N     0.57941   0.69004   0.54717   0.00000  Uiso   1.00
N364   N     0.58634   0.17128   0.54680   0.00000  Uiso   1.00
N365   N     0.79012   0.93119   0.92791   0.00000  Uiso   1.00
N366   N     0.72503   0.68858   0.54861   0.00000  Uiso   1.00
N367   N     0.73196   0.16982   0.54825   0.00000  Uiso   1.00
N368   N     0.93574   0.92973   0.92935   0.00000  Uiso   1.00
