data_job_05551
_audit_creation_date              2018-12-19
_audit_creation_method            'Materials Studio'
_symmetry_space_group_name_H-M    'P1'
_symmetry_Int_Tables_number       1
_symmetry_cell_setting            triclinic
loop_
_symmetry_equiv_pos_as_xyz
  x,y,z
_cell_length_a                    23.3131
_cell_length_b                    18.0019
_cell_length_c                    12.9110
_cell_angle_alpha                 90.0000
_cell_angle_beta                  90.0000
_cell_angle_gamma                 90.0000
loop_
_atom_site_label
_atom_site_type_symbol
_atom_site_fract_x
_atom_site_fract_y
_atom_site_fract_z
_atom_site_U_iso_or_equiv
_atom_site_adp_type
_atom_site_occupancy
C1     C     0.58599   0.32162   0.50535   0.00000  Uiso   1.00
C2     C     0.59560   0.24201   0.46889   0.00000  Uiso   1.00
C3     C     0.55649   0.19904   0.41432   0.00000  Uiso   1.00
C4     C     0.57342   0.12753   0.38812   0.00000  Uiso   1.00
C5     C     0.58010   0.00809   0.32738   0.00000  Uiso   1.00
C6     C     0.59566   0.32095   0.62216   0.00000  Uiso   1.00
C7     C     0.55662   0.34437   0.69644   0.00000  Uiso   1.00
C8     C     0.57361   0.33932   0.79927   0.00000  Uiso   1.00
C9     C     0.58040   0.34250   0.97648   0.00000  Uiso   1.00
C10    C     0.63496   0.36720   0.45965   0.00000  Uiso   1.00
C11    C     0.62896   0.42953   0.39731   0.00000  Uiso   1.00
C12    C     0.67904   0.46342   0.36333   0.00000  Uiso   1.00
C13    C     0.74685   0.53841   0.28821   0.00000  Uiso   1.00
C14    C     0.68559   0.27101   0.55589   0.00000  Uiso   1.00
C15    C     0.64970   0.21453   0.49635   0.00000  Uiso   1.00
C16    C     0.66669   0.14306   0.47023   0.00000  Uiso   1.00
C17    C     0.62762   0.09999   0.41562   0.00000  Uiso   1.00
C18    C     0.64976   0.29347   0.64962   0.00000  Uiso   1.00
C19    C     0.66682   0.28839   0.75236   0.00000  Uiso   1.00
C20    C     0.62780   0.31179   0.82678   0.00000  Uiso   1.00
C21    C     0.68906   0.33972   0.48710   0.00000  Uiso   1.00
C22    C     0.73916   0.37353   0.45322   0.00000  Uiso   1.00
C23    C     0.73324   0.43589   0.39083   0.00000  Uiso   1.00
H24    H     0.54387   0.34302   0.48399   0.00000  Uiso   1.00
H25    H     0.51463   0.22033   0.39309   0.00000  Uiso   1.00
H26    H     0.51475   0.36565   0.67517   0.00000  Uiso   1.00
H27    H     0.58709   0.45078   0.37608   0.00000  Uiso   1.00
H28    H     0.50606   0.07218   0.30446   0.00000  Uiso   1.00
H29    H     0.50633   0.37861   0.89924   0.00000  Uiso   1.00
H30    H     0.65886   0.55813   0.26854   0.00000  Uiso   1.00
H31    H     0.72771   0.24962   0.57727   0.00000  Uiso   1.00
H32    H     0.70856   0.12180   0.49149   0.00000  Uiso   1.00
H33    H     0.70869   0.26712   0.77357   0.00000  Uiso   1.00
H34    H     0.78102   0.35225   0.47448   0.00000  Uiso   1.00
H35    H     0.66346   0.99221   0.38432   0.00000  Uiso   1.00
H36    H     0.66373   0.29864   0.97911   0.00000  Uiso   1.00
H37    H     0.81627   0.47816   0.34841   0.00000  Uiso   1.00
O38    O     0.56884   0.94980   0.28631   0.00000  Uiso   1.00
O39    O     0.56920   0.35183   0.06664   0.00000  Uiso   1.00
O40    O     0.76931   0.58735   0.23918   0.00000  Uiso   1.00
N41    N     0.54574   0.07091   0.33501   0.00000  Uiso   1.00
N42    N     0.54599   0.35739   0.89110   0.00000  Uiso   1.00
N43    N     0.68859   0.52524   0.30147   0.00000  Uiso   1.00
N44    N     0.63043   0.02788   0.37798   0.00000  Uiso   1.00
N45    N     0.63069   0.31436   0.93407   0.00000  Uiso   1.00
N46    N     0.77329   0.48221   0.34444   0.00000  Uiso   1.00
C47    C     0.08599   0.82162   0.00535   0.00000  Uiso   1.00
C48    C     0.09560   0.74201   0.96889   0.00000  Uiso   1.00
C49    C     0.05649   0.69904   0.91432   0.00000  Uiso   1.00
C50    C     0.07342   0.62753   0.88812   0.00000  Uiso   1.00
C51    C     0.08010   0.50809   0.82738   0.00000  Uiso   1.00
C52    C     0.09566   0.82095   0.12216   0.00000  Uiso   1.00
C53    C     0.05662   0.84437   0.19644   0.00000  Uiso   1.00
C54    C     0.07361   0.83932   0.29927   0.00000  Uiso   1.00
C55    C     0.08040   0.84250   0.47648   0.00000  Uiso   1.00
C56    C     0.13496   0.86720   0.95965   0.00000  Uiso   1.00
C57    C     0.12896   0.92953   0.89731   0.00000  Uiso   1.00
C58    C     0.17904   0.96342   0.86333   0.00000  Uiso   1.00
C59    C     0.24685   0.03841   0.78821   0.00000  Uiso   1.00
C60    C     0.18559   0.77101   0.05589   0.00000  Uiso   1.00
C61    C     0.14970   0.71453   0.99635   0.00000  Uiso   1.00
C62    C     0.16669   0.64306   0.97023   0.00000  Uiso   1.00
C63    C     0.12762   0.59999   0.91562   0.00000  Uiso   1.00
C64    C     0.14976   0.79347   0.14962   0.00000  Uiso   1.00
C65    C     0.16682   0.78839   0.25236   0.00000  Uiso   1.00
C66    C     0.12780   0.81179   0.32678   0.00000  Uiso   1.00
C67    C     0.18906   0.83972   0.98710   0.00000  Uiso   1.00
C68    C     0.23916   0.87353   0.95322   0.00000  Uiso   1.00
C69    C     0.23324   0.93589   0.89083   0.00000  Uiso   1.00
H70    H     0.04387   0.84302   0.98399   0.00000  Uiso   1.00
H71    H     0.01463   0.72033   0.89309   0.00000  Uiso   1.00
H72    H     0.01475   0.86565   0.17517   0.00000  Uiso   1.00
H73    H     0.08709   0.95078   0.87608   0.00000  Uiso   1.00
H74    H     0.00606   0.57218   0.80446   0.00000  Uiso   1.00
H75    H     0.00633   0.87861   0.39924   0.00000  Uiso   1.00
H76    H     0.15886   0.05813   0.76854   0.00000  Uiso   1.00
H77    H     0.22771   0.74962   0.07727   0.00000  Uiso   1.00
H78    H     0.20856   0.62180   0.99149   0.00000  Uiso   1.00
H79    H     0.20869   0.76712   0.27357   0.00000  Uiso   1.00
H80    H     0.28102   0.85225   0.97448   0.00000  Uiso   1.00
H81    H     0.16346   0.49221   0.88432   0.00000  Uiso   1.00
H82    H     0.16373   0.79864   0.47911   0.00000  Uiso   1.00
H83    H     0.31627   0.97816   0.84841   0.00000  Uiso   1.00
O84    O     0.06884   0.44980   0.78631   0.00000  Uiso   1.00
O85    O     0.06920   0.85183   0.56664   0.00000  Uiso   1.00
O86    O     0.26931   0.08735   0.73918   0.00000  Uiso   1.00
N87    N     0.04574   0.57091   0.83501   0.00000  Uiso   1.00
N88    N     0.04599   0.85739   0.39110   0.00000  Uiso   1.00
N89    N     0.18859   0.02524   0.80147   0.00000  Uiso   1.00
N90    N     0.13043   0.52788   0.87798   0.00000  Uiso   1.00
N91    N     0.13069   0.81436   0.43407   0.00000  Uiso   1.00
N92    N     0.27329   0.98221   0.84444   0.00000  Uiso   1.00
C93    C     0.41401   0.67838   0.50535   0.00000  Uiso   1.00
C94    C     0.40440   0.75799   0.46889   0.00000  Uiso   1.00
C95    C     0.44351   0.80096   0.41432   0.00000  Uiso   1.00
C96    C     0.42658   0.87247   0.38812   0.00000  Uiso   1.00
C97    C     0.41990   0.99191   0.32738   0.00000  Uiso   1.00
C98    C     0.40434   0.67905   0.62216   0.00000  Uiso   1.00
C99    C     0.44338   0.65563   0.69644   0.00000  Uiso   1.00
C100   C     0.42639   0.66068   0.79927   0.00000  Uiso   1.00
C101   C     0.41960   0.65750   0.97648   0.00000  Uiso   1.00
C102   C     0.36504   0.63280   0.45965   0.00000  Uiso   1.00
C103   C     0.37104   0.57047   0.39731   0.00000  Uiso   1.00
C104   C     0.32096   0.53658   0.36333   0.00000  Uiso   1.00
C105   C     0.25315   0.46159   0.28821   0.00000  Uiso   1.00
C106   C     0.31441   0.72899   0.55589   0.00000  Uiso   1.00
C107   C     0.35030   0.78547   0.49635   0.00000  Uiso   1.00
C108   C     0.33331   0.85694   0.47023   0.00000  Uiso   1.00
C109   C     0.37238   0.90001   0.41562   0.00000  Uiso   1.00
C110   C     0.35024   0.70653   0.64962   0.00000  Uiso   1.00
C111   C     0.33318   0.71161   0.75236   0.00000  Uiso   1.00
C112   C     0.37220   0.68821   0.82678   0.00000  Uiso   1.00
C113   C     0.31094   0.66028   0.48710   0.00000  Uiso   1.00
C114   C     0.26084   0.62647   0.45322   0.00000  Uiso   1.00
C115   C     0.26676   0.56411   0.39083   0.00000  Uiso   1.00
H116   H     0.45613   0.65698   0.48399   0.00000  Uiso   1.00
H117   H     0.48537   0.77967   0.39309   0.00000  Uiso   1.00
H118   H     0.48525   0.63435   0.67517   0.00000  Uiso   1.00
H119   H     0.41291   0.54922   0.37608   0.00000  Uiso   1.00
H120   H     0.49394   0.92782   0.30446   0.00000  Uiso   1.00
H121   H     0.49367   0.62139   0.89924   0.00000  Uiso   1.00
H122   H     0.34114   0.44187   0.26854   0.00000  Uiso   1.00
H123   H     0.27229   0.75038   0.57727   0.00000  Uiso   1.00
H124   H     0.29144   0.87820   0.49149   0.00000  Uiso   1.00
H125   H     0.29131   0.73288   0.77357   0.00000  Uiso   1.00
H126   H     0.21898   0.64775   0.47448   0.00000  Uiso   1.00
H127   H     0.33654   0.00779   0.38432   0.00000  Uiso   1.00
H128   H     0.33627   0.70136   0.97911   0.00000  Uiso   1.00
H129   H     0.18373   0.52184   0.34841   0.00000  Uiso   1.00
O130   O     0.43116   0.05020   0.28631   0.00000  Uiso   1.00
O131   O     0.43080   0.64817   0.06664   0.00000  Uiso   1.00
O132   O     0.23069   0.41265   0.23918   0.00000  Uiso   1.00
N133   N     0.45426   0.92909   0.33501   0.00000  Uiso   1.00
N134   N     0.45401   0.64261   0.89110   0.00000  Uiso   1.00
N135   N     0.31141   0.47476   0.30147   0.00000  Uiso   1.00
N136   N     0.36957   0.97212   0.37798   0.00000  Uiso   1.00
N137   N     0.36931   0.68564   0.93407   0.00000  Uiso   1.00
N138   N     0.22671   0.51779   0.34444   0.00000  Uiso   1.00
C139   C     0.91401   0.17838   0.00535   0.00000  Uiso   1.00
C140   C     0.90440   0.25799   0.96889   0.00000  Uiso   1.00
C141   C     0.94351   0.30096   0.91432   0.00000  Uiso   1.00
C142   C     0.92658   0.37247   0.88812   0.00000  Uiso   1.00
C143   C     0.91990   0.49191   0.82738   0.00000  Uiso   1.00
C144   C     0.90434   0.17905   0.12216   0.00000  Uiso   1.00
C145   C     0.94338   0.15563   0.19644   0.00000  Uiso   1.00
C146   C     0.92639   0.16068   0.29927   0.00000  Uiso   1.00
C147   C     0.91960   0.15750   0.47648   0.00000  Uiso   1.00
C148   C     0.86504   0.13280   0.95965   0.00000  Uiso   1.00
C149   C     0.87104   0.07047   0.89731   0.00000  Uiso   1.00
C150   C     0.82096   0.03658   0.86333   0.00000  Uiso   1.00
C151   C     0.75315   0.96159   0.78821   0.00000  Uiso   1.00
C152   C     0.81441   0.22899   0.05589   0.00000  Uiso   1.00
C153   C     0.85030   0.28547   0.99635   0.00000  Uiso   1.00
C154   C     0.83331   0.35694   0.97023   0.00000  Uiso   1.00
C155   C     0.87238   0.40001   0.91562   0.00000  Uiso   1.00
C156   C     0.85024   0.20653   0.14962   0.00000  Uiso   1.00
C157   C     0.83318   0.21161   0.25236   0.00000  Uiso   1.00
C158   C     0.87220   0.18821   0.32678   0.00000  Uiso   1.00
C159   C     0.81094   0.16028   0.98710   0.00000  Uiso   1.00
C160   C     0.76084   0.12647   0.95322   0.00000  Uiso   1.00
C161   C     0.76676   0.06411   0.89083   0.00000  Uiso   1.00
H162   H     0.95613   0.15698   0.98399   0.00000  Uiso   1.00
H163   H     0.98537   0.27967   0.89309   0.00000  Uiso   1.00
H164   H     0.98525   0.13435   0.17517   0.00000  Uiso   1.00
H165   H     0.91291   0.04922   0.87608   0.00000  Uiso   1.00
H166   H     0.99394   0.42782   0.80446   0.00000  Uiso   1.00
H167   H     0.99367   0.12139   0.39924   0.00000  Uiso   1.00
H168   H     0.84114   0.94187   0.76854   0.00000  Uiso   1.00
H169   H     0.77229   0.25038   0.07727   0.00000  Uiso   1.00
H170   H     0.79144   0.37820   0.99149   0.00000  Uiso   1.00
H171   H     0.79131   0.23288   0.27357   0.00000  Uiso   1.00
H172   H     0.71898   0.14775   0.97448   0.00000  Uiso   1.00
H173   H     0.83654   0.50779   0.88432   0.00000  Uiso   1.00
H174   H     0.83627   0.20136   0.47911   0.00000  Uiso   1.00
H175   H     0.68373   0.02184   0.84841   0.00000  Uiso   1.00
O176   O     0.93116   0.55020   0.78631   0.00000  Uiso   1.00
O177   O     0.93080   0.14817   0.56664   0.00000  Uiso   1.00
O178   O     0.73069   0.91265   0.73918   0.00000  Uiso   1.00
N179   N     0.95426   0.42909   0.83501   0.00000  Uiso   1.00
N180   N     0.95401   0.14261   0.39110   0.00000  Uiso   1.00
N181   N     0.81141   0.97476   0.80147   0.00000  Uiso   1.00
N182   N     0.86957   0.47212   0.87798   0.00000  Uiso   1.00
N183   N     0.86931   0.18564   0.43407   0.00000  Uiso   1.00
N184   N     0.72671   0.01779   0.84444   0.00000  Uiso   1.00
C185   C     0.41401   0.32162   0.49465   0.00000  Uiso   1.00
C186   C     0.40440   0.24201   0.53111   0.00000  Uiso   1.00
C187   C     0.44351   0.19904   0.58568   0.00000  Uiso   1.00
C188   C     0.42658   0.12753   0.61188   0.00000  Uiso   1.00
C189   C     0.41990   0.00809   0.67262   0.00000  Uiso   1.00
C190   C     0.40434   0.32095   0.37784   0.00000  Uiso   1.00
C191   C     0.44338   0.34437   0.30356   0.00000  Uiso   1.00
C192   C     0.42639   0.33932   0.20073   0.00000  Uiso   1.00
C193   C     0.41960   0.34250   0.02352   0.00000  Uiso   1.00
C194   C     0.36504   0.36720   0.54035   0.00000  Uiso   1.00
C195   C     0.37104   0.42953   0.60269   0.00000  Uiso   1.00
C196   C     0.32096   0.46342   0.63667   0.00000  Uiso   1.00
C197   C     0.25315   0.53841   0.71179   0.00000  Uiso   1.00
C198   C     0.31441   0.27101   0.44411   0.00000  Uiso   1.00
C199   C     0.35030   0.21453   0.50365   0.00000  Uiso   1.00
C200   C     0.33331   0.14306   0.52977   0.00000  Uiso   1.00
C201   C     0.37238   0.09999   0.58438   0.00000  Uiso   1.00
C202   C     0.35024   0.29347   0.35038   0.00000  Uiso   1.00
C203   C     0.33318   0.28839   0.24764   0.00000  Uiso   1.00
C204   C     0.37220   0.31179   0.17322   0.00000  Uiso   1.00
C205   C     0.31094   0.33972   0.51290   0.00000  Uiso   1.00
C206   C     0.26084   0.37353   0.54678   0.00000  Uiso   1.00
C207   C     0.26676   0.43589   0.60917   0.00000  Uiso   1.00
H208   H     0.45613   0.34302   0.51601   0.00000  Uiso   1.00
H209   H     0.48537   0.22033   0.60691   0.00000  Uiso   1.00
H210   H     0.48525   0.36565   0.32483   0.00000  Uiso   1.00
H211   H     0.41291   0.45078   0.62392   0.00000  Uiso   1.00
H212   H     0.49394   0.07218   0.69554   0.00000  Uiso   1.00
H213   H     0.49367   0.37861   0.10076   0.00000  Uiso   1.00
H214   H     0.34114   0.55813   0.73146   0.00000  Uiso   1.00
H215   H     0.27229   0.24962   0.42273   0.00000  Uiso   1.00
H216   H     0.29144   0.12180   0.50851   0.00000  Uiso   1.00
H217   H     0.29131   0.26712   0.22643   0.00000  Uiso   1.00
H218   H     0.21898   0.35225   0.52552   0.00000  Uiso   1.00
H219   H     0.33654   0.99221   0.61568   0.00000  Uiso   1.00
H220   H     0.33627   0.29864   0.02089   0.00000  Uiso   1.00
H221   H     0.18373   0.47816   0.65159   0.00000  Uiso   1.00
O222   O     0.43116   0.94980   0.71369   0.00000  Uiso   1.00
O223   O     0.43080   0.35183   0.93336   0.00000  Uiso   1.00
O224   O     0.23069   0.58735   0.76082   0.00000  Uiso   1.00
N225   N     0.45426   0.07091   0.66499   0.00000  Uiso   1.00
N226   N     0.45401   0.35739   0.10890   0.00000  Uiso   1.00
N227   N     0.31141   0.52524   0.69853   0.00000  Uiso   1.00
N228   N     0.36957   0.02788   0.62202   0.00000  Uiso   1.00
N229   N     0.36931   0.31436   0.06593   0.00000  Uiso   1.00
N230   N     0.22671   0.48221   0.65556   0.00000  Uiso   1.00
C231   C     0.91401   0.82162   0.99465   0.00000  Uiso   1.00
C232   C     0.90440   0.74201   0.03111   0.00000  Uiso   1.00
C233   C     0.94351   0.69904   0.08568   0.00000  Uiso   1.00
C234   C     0.92658   0.62753   0.11188   0.00000  Uiso   1.00
C235   C     0.91990   0.50809   0.17262   0.00000  Uiso   1.00
C236   C     0.90434   0.82095   0.87784   0.00000  Uiso   1.00
C237   C     0.94338   0.84437   0.80356   0.00000  Uiso   1.00
C238   C     0.92639   0.83932   0.70073   0.00000  Uiso   1.00
C239   C     0.91960   0.84250   0.52352   0.00000  Uiso   1.00
C240   C     0.86504   0.86720   0.04035   0.00000  Uiso   1.00
C241   C     0.87104   0.92953   0.10269   0.00000  Uiso   1.00
C242   C     0.82096   0.96342   0.13667   0.00000  Uiso   1.00
C243   C     0.75315   0.03841   0.21179   0.00000  Uiso   1.00
C244   C     0.81441   0.77101   0.94411   0.00000  Uiso   1.00
C245   C     0.85030   0.71453   0.00365   0.00000  Uiso   1.00
C246   C     0.83331   0.64306   0.02977   0.00000  Uiso   1.00
C247   C     0.87238   0.59999   0.08438   0.00000  Uiso   1.00
C248   C     0.85024   0.79347   0.85038   0.00000  Uiso   1.00
C249   C     0.83318   0.78839   0.74764   0.00000  Uiso   1.00
C250   C     0.87220   0.81179   0.67322   0.00000  Uiso   1.00
C251   C     0.81094   0.83972   0.01290   0.00000  Uiso   1.00
C252   C     0.76084   0.87353   0.04678   0.00000  Uiso   1.00
C253   C     0.76676   0.93589   0.10917   0.00000  Uiso   1.00
H254   H     0.95613   0.84302   0.01601   0.00000  Uiso   1.00
H255   H     0.98537   0.72033   0.10691   0.00000  Uiso   1.00
H256   H     0.98525   0.86565   0.82483   0.00000  Uiso   1.00
H257   H     0.91291   0.95078   0.12392   0.00000  Uiso   1.00
H258   H     0.99394   0.57218   0.19554   0.00000  Uiso   1.00
H259   H     0.99367   0.87861   0.60076   0.00000  Uiso   1.00
H260   H     0.84114   0.05813   0.23146   0.00000  Uiso   1.00
H261   H     0.77229   0.74962   0.92273   0.00000  Uiso   1.00
H262   H     0.79144   0.62180   0.00851   0.00000  Uiso   1.00
H263   H     0.79131   0.76712   0.72643   0.00000  Uiso   1.00
H264   H     0.71898   0.85225   0.02552   0.00000  Uiso   1.00
H265   H     0.83654   0.49221   0.11568   0.00000  Uiso   1.00
H266   H     0.83627   0.79864   0.52089   0.00000  Uiso   1.00
H267   H     0.68373   0.97816   0.15159   0.00000  Uiso   1.00
O268   O     0.93116   0.44980   0.21369   0.00000  Uiso   1.00
O269   O     0.93080   0.85183   0.43336   0.00000  Uiso   1.00
O270   O     0.73069   0.08735   0.26082   0.00000  Uiso   1.00
N271   N     0.95426   0.57091   0.16499   0.00000  Uiso   1.00
N272   N     0.95401   0.85739   0.60890   0.00000  Uiso   1.00
N273   N     0.81141   0.02524   0.19853   0.00000  Uiso   1.00
N274   N     0.86957   0.52788   0.12202   0.00000  Uiso   1.00
N275   N     0.86931   0.81436   0.56593   0.00000  Uiso   1.00
N276   N     0.72671   0.98221   0.15556   0.00000  Uiso   1.00
C277   C     0.58599   0.67838   0.49465   0.00000  Uiso   1.00
C278   C     0.59560   0.75799   0.53111   0.00000  Uiso   1.00
C279   C     0.55649   0.80096   0.58568   0.00000  Uiso   1.00
C280   C     0.57342   0.87247   0.61188   0.00000  Uiso   1.00
C281   C     0.58010   0.99191   0.67262   0.00000  Uiso   1.00
C282   C     0.59566   0.67905   0.37784   0.00000  Uiso   1.00
C283   C     0.55662   0.65563   0.30356   0.00000  Uiso   1.00
C284   C     0.57361   0.66068   0.20073   0.00000  Uiso   1.00
C285   C     0.58040   0.65750   0.02352   0.00000  Uiso   1.00
C286   C     0.63496   0.63280   0.54035   0.00000  Uiso   1.00
C287   C     0.62896   0.57047   0.60269   0.00000  Uiso   1.00
C288   C     0.67904   0.53658   0.63667   0.00000  Uiso   1.00
C289   C     0.74685   0.46159   0.71179   0.00000  Uiso   1.00
C290   C     0.68559   0.72899   0.44411   0.00000  Uiso   1.00
C291   C     0.64970   0.78547   0.50365   0.00000  Uiso   1.00
C292   C     0.66669   0.85694   0.52977   0.00000  Uiso   1.00
C293   C     0.62762   0.90001   0.58438   0.00000  Uiso   1.00
C294   C     0.64976   0.70653   0.35038   0.00000  Uiso   1.00
C295   C     0.66682   0.71161   0.24764   0.00000  Uiso   1.00
C296   C     0.62780   0.68821   0.17322   0.00000  Uiso   1.00
C297   C     0.68906   0.66028   0.51290   0.00000  Uiso   1.00
C298   C     0.73916   0.62647   0.54678   0.00000  Uiso   1.00
C299   C     0.73324   0.56411   0.60917   0.00000  Uiso   1.00
H300   H     0.54387   0.65698   0.51601   0.00000  Uiso   1.00
H301   H     0.51463   0.77967   0.60691   0.00000  Uiso   1.00
H302   H     0.51475   0.63435   0.32483   0.00000  Uiso   1.00
H303   H     0.58709   0.54922   0.62392   0.00000  Uiso   1.00
H304   H     0.50606   0.92782   0.69554   0.00000  Uiso   1.00
H305   H     0.50633   0.62139   0.10076   0.00000  Uiso   1.00
H306   H     0.65886   0.44187   0.73146   0.00000  Uiso   1.00
H307   H     0.72771   0.75038   0.42273   0.00000  Uiso   1.00
H308   H     0.70856   0.87820   0.50851   0.00000  Uiso   1.00
H309   H     0.70869   0.73288   0.22643   0.00000  Uiso   1.00
H310   H     0.78102   0.64775   0.52552   0.00000  Uiso   1.00
H311   H     0.66346   0.00779   0.61568   0.00000  Uiso   1.00
H312   H     0.66373   0.70136   0.02089   0.00000  Uiso   1.00
H313   H     0.81627   0.52184   0.65159   0.00000  Uiso   1.00
O314   O     0.56884   0.05020   0.71369   0.00000  Uiso   1.00
O315   O     0.56920   0.64817   0.93336   0.00000  Uiso   1.00
O316   O     0.76931   0.41265   0.76082   0.00000  Uiso   1.00
N317   N     0.54574   0.92909   0.66499   0.00000  Uiso   1.00
N318   N     0.54599   0.64261   0.10890   0.00000  Uiso   1.00
N319   N     0.68859   0.47476   0.69853   0.00000  Uiso   1.00
N320   N     0.63043   0.97212   0.62202   0.00000  Uiso   1.00
N321   N     0.63069   0.68564   0.06593   0.00000  Uiso   1.00
N322   N     0.77329   0.51779   0.65556   0.00000  Uiso   1.00
C323   C     0.08599   0.17838   0.99465   0.00000  Uiso   1.00
C324   C     0.09560   0.25799   0.03111   0.00000  Uiso   1.00
C325   C     0.05649   0.30096   0.08568   0.00000  Uiso   1.00
C326   C     0.07342   0.37247   0.11188   0.00000  Uiso   1.00
C327   C     0.08010   0.49191   0.17262   0.00000  Uiso   1.00
C328   C     0.09566   0.17905   0.87784   0.00000  Uiso   1.00
C329   C     0.05662   0.15563   0.80356   0.00000  Uiso   1.00
C330   C     0.07361   0.16068   0.70073   0.00000  Uiso   1.00
C331   C     0.08040   0.15750   0.52352   0.00000  Uiso   1.00
C332   C     0.13496   0.13280   0.04035   0.00000  Uiso   1.00
C333   C     0.12896   0.07047   0.10269   0.00000  Uiso   1.00
C334   C     0.17904   0.03658   0.13667   0.00000  Uiso   1.00
C335   C     0.24685   0.96159   0.21179   0.00000  Uiso   1.00
C336   C     0.18559   0.22899   0.94411   0.00000  Uiso   1.00
C337   C     0.14970   0.28547   0.00365   0.00000  Uiso   1.00
C338   C     0.16669   0.35694   0.02977   0.00000  Uiso   1.00
C339   C     0.12762   0.40001   0.08438   0.00000  Uiso   1.00
C340   C     0.14976   0.20653   0.85038   0.00000  Uiso   1.00
C341   C     0.16682   0.21161   0.74764   0.00000  Uiso   1.00
C342   C     0.12780   0.18821   0.67322   0.00000  Uiso   1.00
C343   C     0.18906   0.16028   0.01290   0.00000  Uiso   1.00
C344   C     0.23916   0.12647   0.04678   0.00000  Uiso   1.00
C345   C     0.23324   0.06411   0.10917   0.00000  Uiso   1.00
H346   H     0.04387   0.15698   0.01601   0.00000  Uiso   1.00
H347   H     0.01463   0.27967   0.10691   0.00000  Uiso   1.00
H348   H     0.01475   0.13435   0.82483   0.00000  Uiso   1.00
H349   H     0.08709   0.04922   0.12392   0.00000  Uiso   1.00
H350   H     0.00606   0.42782   0.19554   0.00000  Uiso   1.00
H351   H     0.00633   0.12139   0.60076   0.00000  Uiso   1.00
H352   H     0.15886   0.94187   0.23146   0.00000  Uiso   1.00
H353   H     0.22771   0.25038   0.92273   0.00000  Uiso   1.00
H354   H     0.20856   0.37820   0.00851   0.00000  Uiso   1.00
H355   H     0.20869   0.23288   0.72643   0.00000  Uiso   1.00
H356   H     0.28102   0.14775   0.02552   0.00000  Uiso   1.00
H357   H     0.16346   0.50779   0.11568   0.00000  Uiso   1.00
H358   H     0.16373   0.20136   0.52089   0.00000  Uiso   1.00
H359   H     0.31627   0.02184   0.15159   0.00000  Uiso   1.00
O360   O     0.06884   0.55020   0.21369   0.00000  Uiso   1.00
O361   O     0.06920   0.14817   0.43336   0.00000  Uiso   1.00
O362   O     0.26931   0.91265   0.26082   0.00000  Uiso   1.00
N363   N     0.04574   0.42909   0.16499   0.00000  Uiso   1.00
N364   N     0.04599   0.14261   0.60890   0.00000  Uiso   1.00
N365   N     0.18859   0.97476   0.19853   0.00000  Uiso   1.00
N366   N     0.13043   0.47212   0.12202   0.00000  Uiso   1.00
N367   N     0.13069   0.18564   0.56593   0.00000  Uiso   1.00
N368   N     0.27329   0.01779   0.15556   0.00000  Uiso   1.00
