data_job_02157
_audit_creation_date              2018-12-19
_audit_creation_method            'Materials Studio'
_symmetry_space_group_name_H-M    'P1'
_symmetry_Int_Tables_number       1
_symmetry_cell_setting            triclinic
loop_
_symmetry_equiv_pos_as_xyz
  x,y,z
_cell_length_a                    20.4016
_cell_length_b                    13.1530
_cell_length_c                    23.0402
_cell_angle_alpha                 90.0000
_cell_angle_beta                  108.7990
_cell_angle_gamma                 90.0000
loop_
_atom_site_label
_atom_site_type_symbol
_atom_site_fract_x
_atom_site_fract_y
_atom_site_fract_z
_atom_site_U_iso_or_equiv
_atom_site_adp_type
_atom_site_occupancy
C1     C     0.77953   0.89571   0.70057   0.00000  Uiso   1.00
C2     C     0.71252   0.83495   0.67670   0.00000  Uiso   1.00
C3     C     0.64690   0.87000   0.67218   0.00000  Uiso   1.00
C4     C     0.59223   0.80269   0.64919   0.00000  Uiso   1.00
C5     C     0.48657   0.72336   0.61487   0.00000  Uiso   1.00
C6     C     0.82750   0.83349   0.75301   0.00000  Uiso   1.00
C7     C     0.85855   0.86732   0.81265   0.00000  Uiso   1.00
C8     C     0.90066   0.79878   0.85389   0.00000  Uiso   1.00
C9     C     0.97354   0.71720   0.93804   0.00000  Uiso   1.00
C10    C     0.81201   0.89406   0.64952   0.00000  Uiso   1.00
C11    C     0.83006   0.97882   0.62214   0.00000  Uiso   1.00
C12    C     0.85916   0.96128   0.57626   0.00000  Uiso   1.00
C13    C     0.90800   0.97375   0.49971   0.00000  Uiso   1.00
C14    C     0.79914   0.71385   0.66777   0.00000  Uiso   1.00
C15    C     0.72318   0.73617   0.65889   0.00000  Uiso   1.00
C16    C     0.66859   0.66879   0.63590   0.00000  Uiso   1.00
C17    C     0.60290   0.70374   0.63134   0.00000  Uiso   1.00
C18    C     0.83814   0.73471   0.73520   0.00000  Uiso   1.00
C19    C     0.88023   0.66611   0.77637   0.00000  Uiso   1.00
C20    C     0.91133   0.69982   0.83605   0.00000  Uiso   1.00
C21    C     0.82266   0.79528   0.63171   0.00000  Uiso   1.00
C22    C     0.85175   0.77761   0.58586   0.00000  Uiso   1.00
C23    C     0.86983   0.86232   0.55842   0.00000  Uiso   1.00
H24    H     0.77125   0.97261   0.71444   0.00000  Uiso   1.00
H25    H     0.63868   0.94645   0.68598   0.00000  Uiso   1.00
H26    H     0.85030   0.94377   0.82642   0.00000  Uiso   1.00
H27    H     0.82182   0.05525   0.63594   0.00000  Uiso   1.00
H28    H     0.49641   0.87387   0.64658   0.00000  Uiso   1.00
H29    H     0.94263   0.86822   0.94271   0.00000  Uiso   1.00
H30    H     0.88257   0.10331   0.54105   0.00000  Uiso   1.00
H31    H     0.80743   0.63694   0.65391   0.00000  Uiso   1.00
H32    H     0.67685   0.59235   0.62212   0.00000  Uiso   1.00
H33    H     0.88846   0.58967   0.76256   0.00000  Uiso   1.00
H34    H     0.85998   0.70116   0.57209   0.00000  Uiso   1.00
H35    H     0.52739   0.58647   0.59476   0.00000  Uiso   1.00
H36    H     0.97361   0.58082   0.89089   0.00000  Uiso   1.00
H37    H     0.91355   0.81591   0.48923   0.00000  Uiso   1.00
O38    O     0.42535   0.70688   0.60087   0.00000  Uiso   1.00
O39    O     0.01079   0.69948   0.98937   0.00000  Uiso   1.00
O40    O     0.93198   0.00792   0.46241   0.00000  Uiso   1.00
N41    N     0.52162   0.81235   0.63874   0.00000  Uiso   1.00
N42    N     0.93880   0.80707   0.91560   0.00000  Uiso   1.00
N43    N     0.88267   0.02686   0.54010   0.00000  Uiso   1.00
N44    N     0.53829   0.65770   0.61085   0.00000  Uiso   1.00
N45    N     0.95547   0.65242   0.88771   0.00000  Uiso   1.00
N46    N     0.89933   0.87221   0.51221   0.00000  Uiso   1.00
C47    C     0.27953   0.39571   0.70057   0.00000  Uiso   1.00
C48    C     0.21252   0.33495   0.67670   0.00000  Uiso   1.00
C49    C     0.14690   0.37000   0.67218   0.00000  Uiso   1.00
C50    C     0.09223   0.30269   0.64919   0.00000  Uiso   1.00
C51    C     0.98657   0.22336   0.61487   0.00000  Uiso   1.00
C52    C     0.32750   0.33349   0.75301   0.00000  Uiso   1.00
C53    C     0.35855   0.36732   0.81265   0.00000  Uiso   1.00
C54    C     0.40066   0.29878   0.85389   0.00000  Uiso   1.00
C55    C     0.47354   0.21720   0.93804   0.00000  Uiso   1.00
C56    C     0.31201   0.39406   0.64952   0.00000  Uiso   1.00
C57    C     0.33006   0.47882   0.62214   0.00000  Uiso   1.00
C58    C     0.35916   0.46128   0.57626   0.00000  Uiso   1.00
C59    C     0.40800   0.47375   0.49971   0.00000  Uiso   1.00
C60    C     0.29914   0.21385   0.66777   0.00000  Uiso   1.00
C61    C     0.22318   0.23617   0.65889   0.00000  Uiso   1.00
C62    C     0.16859   0.16879   0.63590   0.00000  Uiso   1.00
C63    C     0.10290   0.20374   0.63134   0.00000  Uiso   1.00
C64    C     0.33814   0.23471   0.73520   0.00000  Uiso   1.00
C65    C     0.38023   0.16611   0.77637   0.00000  Uiso   1.00
C66    C     0.41133   0.19982   0.83605   0.00000  Uiso   1.00
C67    C     0.32266   0.29528   0.63171   0.00000  Uiso   1.00
C68    C     0.35175   0.27761   0.58586   0.00000  Uiso   1.00
C69    C     0.36983   0.36232   0.55842   0.00000  Uiso   1.00
H70    H     0.27125   0.47261   0.71444   0.00000  Uiso   1.00
H71    H     0.13868   0.44645   0.68598   0.00000  Uiso   1.00
H72    H     0.35030   0.44377   0.82642   0.00000  Uiso   1.00
H73    H     0.32182   0.55525   0.63594   0.00000  Uiso   1.00
H74    H     0.99641   0.37387   0.64658   0.00000  Uiso   1.00
H75    H     0.44263   0.36822   0.94271   0.00000  Uiso   1.00
H76    H     0.38257   0.60331   0.54105   0.00000  Uiso   1.00
H77    H     0.30743   0.13694   0.65391   0.00000  Uiso   1.00
H78    H     0.17685   0.09235   0.62212   0.00000  Uiso   1.00
H79    H     0.38846   0.08967   0.76256   0.00000  Uiso   1.00
H80    H     0.35998   0.20116   0.57209   0.00000  Uiso   1.00
H81    H     0.02739   0.08647   0.59476   0.00000  Uiso   1.00
H82    H     0.47361   0.08082   0.89089   0.00000  Uiso   1.00
H83    H     0.41355   0.31591   0.48923   0.00000  Uiso   1.00
O84    O     0.92535   0.20688   0.60087   0.00000  Uiso   1.00
O85    O     0.51079   0.19948   0.98937   0.00000  Uiso   1.00
O86    O     0.43198   0.50792   0.46241   0.00000  Uiso   1.00
N87    N     0.02162   0.31235   0.63874   0.00000  Uiso   1.00
N88    N     0.43880   0.30707   0.91560   0.00000  Uiso   1.00
N89    N     0.38267   0.52686   0.54010   0.00000  Uiso   1.00
N90    N     0.03829   0.15770   0.61085   0.00000  Uiso   1.00
N91    N     0.45547   0.15242   0.88771   0.00000  Uiso   1.00
N92    N     0.39933   0.37221   0.51221   0.00000  Uiso   1.00
C93    C     0.22047   0.89571   0.79943   0.00000  Uiso   1.00
C94    C     0.28748   0.83495   0.82330   0.00000  Uiso   1.00
C95    C     0.35310   0.87000   0.82782   0.00000  Uiso   1.00
C96    C     0.40777   0.80269   0.85081   0.00000  Uiso   1.00
C97    C     0.51343   0.72336   0.88513   0.00000  Uiso   1.00
C98    C     0.17250   0.83349   0.74699   0.00000  Uiso   1.00
C99    C     0.14145   0.86732   0.68735   0.00000  Uiso   1.00
C100   C     0.09934   0.79878   0.64611   0.00000  Uiso   1.00
C101   C     0.02646   0.71720   0.56196   0.00000  Uiso   1.00
C102   C     0.18799   0.89406   0.85048   0.00000  Uiso   1.00
C103   C     0.16994   0.97882   0.87786   0.00000  Uiso   1.00
C104   C     0.14084   0.96128   0.92374   0.00000  Uiso   1.00
C105   C     0.09200   0.97375   0.00029   0.00000  Uiso   1.00
C106   C     0.20086   0.71385   0.83223   0.00000  Uiso   1.00
C107   C     0.27682   0.73617   0.84111   0.00000  Uiso   1.00
C108   C     0.33141   0.66879   0.86410   0.00000  Uiso   1.00
C109   C     0.39710   0.70374   0.86866   0.00000  Uiso   1.00
C110   C     0.16186   0.73471   0.76480   0.00000  Uiso   1.00
C111   C     0.11977   0.66611   0.72363   0.00000  Uiso   1.00
C112   C     0.08867   0.69982   0.66395   0.00000  Uiso   1.00
C113   C     0.17734   0.79528   0.86829   0.00000  Uiso   1.00
C114   C     0.14825   0.77761   0.91414   0.00000  Uiso   1.00
C115   C     0.13017   0.86232   0.94158   0.00000  Uiso   1.00
H116   H     0.22875   0.97261   0.78556   0.00000  Uiso   1.00
H117   H     0.36132   0.94645   0.81402   0.00000  Uiso   1.00
H118   H     0.14970   0.94377   0.67358   0.00000  Uiso   1.00
H119   H     0.17818   0.05525   0.86406   0.00000  Uiso   1.00
H120   H     0.50359   0.87387   0.85342   0.00000  Uiso   1.00
H121   H     0.05737   0.86822   0.55729   0.00000  Uiso   1.00
H122   H     0.11743   0.10331   0.95895   0.00000  Uiso   1.00
H123   H     0.19257   0.63694   0.84609   0.00000  Uiso   1.00
H124   H     0.32315   0.59235   0.87788   0.00000  Uiso   1.00
H125   H     0.11154   0.58967   0.73744   0.00000  Uiso   1.00
H126   H     0.14002   0.70116   0.92791   0.00000  Uiso   1.00
H127   H     0.47261   0.58647   0.90524   0.00000  Uiso   1.00
H128   H     0.02639   0.58082   0.60911   0.00000  Uiso   1.00
H129   H     0.08645   0.81591   0.01077   0.00000  Uiso   1.00
O130   O     0.57465   0.70688   0.89913   0.00000  Uiso   1.00
O131   O     0.98921   0.69948   0.51063   0.00000  Uiso   1.00
O132   O     0.06802   0.00792   0.03759   0.00000  Uiso   1.00
N133   N     0.47838   0.81235   0.86126   0.00000  Uiso   1.00
N134   N     0.06120   0.80707   0.58440   0.00000  Uiso   1.00
N135   N     0.11733   0.02686   0.95990   0.00000  Uiso   1.00
N136   N     0.46171   0.65770   0.88915   0.00000  Uiso   1.00
N137   N     0.04453   0.65242   0.61229   0.00000  Uiso   1.00
N138   N     0.10067   0.87221   0.98779   0.00000  Uiso   1.00
C139   C     0.72047   0.39571   0.79943   0.00000  Uiso   1.00
C140   C     0.78748   0.33495   0.82330   0.00000  Uiso   1.00
C141   C     0.85310   0.37000   0.82782   0.00000  Uiso   1.00
C142   C     0.90777   0.30269   0.85081   0.00000  Uiso   1.00
C143   C     0.01343   0.22336   0.88513   0.00000  Uiso   1.00
C144   C     0.67250   0.33349   0.74699   0.00000  Uiso   1.00
C145   C     0.64145   0.36732   0.68735   0.00000  Uiso   1.00
C146   C     0.59934   0.29878   0.64611   0.00000  Uiso   1.00
C147   C     0.52646   0.21720   0.56196   0.00000  Uiso   1.00
C148   C     0.68799   0.39406   0.85048   0.00000  Uiso   1.00
C149   C     0.66994   0.47882   0.87786   0.00000  Uiso   1.00
C150   C     0.64084   0.46128   0.92374   0.00000  Uiso   1.00
C151   C     0.59200   0.47375   0.00029   0.00000  Uiso   1.00
C152   C     0.70086   0.21385   0.83223   0.00000  Uiso   1.00
C153   C     0.77682   0.23617   0.84111   0.00000  Uiso   1.00
C154   C     0.83141   0.16879   0.86410   0.00000  Uiso   1.00
C155   C     0.89710   0.20374   0.86866   0.00000  Uiso   1.00
C156   C     0.66186   0.23471   0.76480   0.00000  Uiso   1.00
C157   C     0.61977   0.16611   0.72363   0.00000  Uiso   1.00
C158   C     0.58867   0.19982   0.66395   0.00000  Uiso   1.00
C159   C     0.67734   0.29528   0.86829   0.00000  Uiso   1.00
C160   C     0.64825   0.27761   0.91414   0.00000  Uiso   1.00
C161   C     0.63017   0.36232   0.94158   0.00000  Uiso   1.00
H162   H     0.72875   0.47261   0.78556   0.00000  Uiso   1.00
H163   H     0.86132   0.44645   0.81402   0.00000  Uiso   1.00
H164   H     0.64970   0.44377   0.67358   0.00000  Uiso   1.00
H165   H     0.67818   0.55525   0.86406   0.00000  Uiso   1.00
H166   H     0.00359   0.37387   0.85342   0.00000  Uiso   1.00
H167   H     0.55737   0.36822   0.55729   0.00000  Uiso   1.00
H168   H     0.61743   0.60331   0.95895   0.00000  Uiso   1.00
H169   H     0.69257   0.13694   0.84609   0.00000  Uiso   1.00
H170   H     0.82315   0.09235   0.87788   0.00000  Uiso   1.00
H171   H     0.61154   0.08967   0.73744   0.00000  Uiso   1.00
H172   H     0.64002   0.20116   0.92791   0.00000  Uiso   1.00
H173   H     0.97261   0.08647   0.90524   0.00000  Uiso   1.00
H174   H     0.52639   0.08082   0.60911   0.00000  Uiso   1.00
H175   H     0.58645   0.31591   0.01077   0.00000  Uiso   1.00
O176   O     0.07465   0.20688   0.89913   0.00000  Uiso   1.00
O177   O     0.48921   0.19948   0.51063   0.00000  Uiso   1.00
O178   O     0.56802   0.50792   0.03759   0.00000  Uiso   1.00
N179   N     0.97838   0.31235   0.86126   0.00000  Uiso   1.00
N180   N     0.56120   0.30707   0.58440   0.00000  Uiso   1.00
N181   N     0.61733   0.52686   0.95990   0.00000  Uiso   1.00
N182   N     0.96171   0.15770   0.88915   0.00000  Uiso   1.00
N183   N     0.54453   0.15242   0.61229   0.00000  Uiso   1.00
N184   N     0.60067   0.37221   0.98779   0.00000  Uiso   1.00
C185   C     0.22047   0.10429   0.29943   0.00000  Uiso   1.00
C186   C     0.28748   0.16505   0.32330   0.00000  Uiso   1.00
C187   C     0.35310   0.13000   0.32782   0.00000  Uiso   1.00
C188   C     0.40777   0.19731   0.35081   0.00000  Uiso   1.00
C189   C     0.51343   0.27664   0.38513   0.00000  Uiso   1.00
C190   C     0.17250   0.16651   0.24699   0.00000  Uiso   1.00
C191   C     0.14145   0.13268   0.18735   0.00000  Uiso   1.00
C192   C     0.09934   0.20122   0.14611   0.00000  Uiso   1.00
C193   C     0.02646   0.28280   0.06196   0.00000  Uiso   1.00
C194   C     0.18799   0.10594   0.35048   0.00000  Uiso   1.00
C195   C     0.16994   0.02118   0.37786   0.00000  Uiso   1.00
C196   C     0.14084   0.03872   0.42374   0.00000  Uiso   1.00
C197   C     0.09200   0.02625   0.50029   0.00000  Uiso   1.00
C198   C     0.20086   0.28615   0.33223   0.00000  Uiso   1.00
C199   C     0.27682   0.26383   0.34111   0.00000  Uiso   1.00
C200   C     0.33141   0.33121   0.36410   0.00000  Uiso   1.00
C201   C     0.39710   0.29626   0.36866   0.00000  Uiso   1.00
C202   C     0.16186   0.26529   0.26480   0.00000  Uiso   1.00
C203   C     0.11977   0.33389   0.22363   0.00000  Uiso   1.00
C204   C     0.08867   0.30018   0.16395   0.00000  Uiso   1.00
C205   C     0.17734   0.20472   0.36829   0.00000  Uiso   1.00
C206   C     0.14825   0.22239   0.41414   0.00000  Uiso   1.00
C207   C     0.13017   0.13768   0.44158   0.00000  Uiso   1.00
H208   H     0.22875   0.02739   0.28556   0.00000  Uiso   1.00
H209   H     0.36132   0.05355   0.31402   0.00000  Uiso   1.00
H210   H     0.14970   0.05623   0.17358   0.00000  Uiso   1.00
H211   H     0.17818   0.94475   0.36406   0.00000  Uiso   1.00
H212   H     0.50359   0.12613   0.35342   0.00000  Uiso   1.00
H213   H     0.05737   0.13178   0.05729   0.00000  Uiso   1.00
H214   H     0.11743   0.89669   0.45895   0.00000  Uiso   1.00
H215   H     0.19257   0.36306   0.34609   0.00000  Uiso   1.00
H216   H     0.32315   0.40765   0.37788   0.00000  Uiso   1.00
H217   H     0.11154   0.41033   0.23744   0.00000  Uiso   1.00
H218   H     0.14002   0.29884   0.42791   0.00000  Uiso   1.00
H219   H     0.47261   0.41353   0.40524   0.00000  Uiso   1.00
H220   H     0.02639   0.41918   0.10911   0.00000  Uiso   1.00
H221   H     0.08645   0.18409   0.51077   0.00000  Uiso   1.00
O222   O     0.57465   0.29312   0.39913   0.00000  Uiso   1.00
O223   O     0.98921   0.30052   0.01063   0.00000  Uiso   1.00
O224   O     0.06802   0.99208   0.53759   0.00000  Uiso   1.00
N225   N     0.47838   0.18765   0.36126   0.00000  Uiso   1.00
N226   N     0.06120   0.19293   0.08440   0.00000  Uiso   1.00
N227   N     0.11733   0.97314   0.45990   0.00000  Uiso   1.00
N228   N     0.46171   0.34230   0.38915   0.00000  Uiso   1.00
N229   N     0.04453   0.34758   0.11229   0.00000  Uiso   1.00
N230   N     0.10067   0.12779   0.48779   0.00000  Uiso   1.00
C231   C     0.72047   0.60429   0.29943   0.00000  Uiso   1.00
C232   C     0.78748   0.66505   0.32330   0.00000  Uiso   1.00
C233   C     0.85310   0.63000   0.32782   0.00000  Uiso   1.00
C234   C     0.90777   0.69731   0.35081   0.00000  Uiso   1.00
C235   C     0.01343   0.77664   0.38513   0.00000  Uiso   1.00
C236   C     0.67250   0.66651   0.24699   0.00000  Uiso   1.00
C237   C     0.64145   0.63268   0.18735   0.00000  Uiso   1.00
C238   C     0.59934   0.70122   0.14611   0.00000  Uiso   1.00
C239   C     0.52646   0.78280   0.06196   0.00000  Uiso   1.00
C240   C     0.68799   0.60594   0.35048   0.00000  Uiso   1.00
C241   C     0.66994   0.52118   0.37786   0.00000  Uiso   1.00
C242   C     0.64084   0.53872   0.42374   0.00000  Uiso   1.00
C243   C     0.59200   0.52625   0.50029   0.00000  Uiso   1.00
C244   C     0.70086   0.78615   0.33223   0.00000  Uiso   1.00
C245   C     0.77682   0.76383   0.34111   0.00000  Uiso   1.00
C246   C     0.83141   0.83121   0.36410   0.00000  Uiso   1.00
C247   C     0.89710   0.79626   0.36866   0.00000  Uiso   1.00
C248   C     0.66186   0.76529   0.26480   0.00000  Uiso   1.00
C249   C     0.61977   0.83389   0.22363   0.00000  Uiso   1.00
C250   C     0.58867   0.80018   0.16395   0.00000  Uiso   1.00
C251   C     0.67734   0.70472   0.36829   0.00000  Uiso   1.00
C252   C     0.64825   0.72239   0.41414   0.00000  Uiso   1.00
C253   C     0.63017   0.63768   0.44158   0.00000  Uiso   1.00
H254   H     0.72875   0.52739   0.28556   0.00000  Uiso   1.00
H255   H     0.86132   0.55355   0.31402   0.00000  Uiso   1.00
H256   H     0.64970   0.55623   0.17358   0.00000  Uiso   1.00
H257   H     0.67818   0.44475   0.36406   0.00000  Uiso   1.00
H258   H     0.00359   0.62613   0.35342   0.00000  Uiso   1.00
H259   H     0.55737   0.63178   0.05729   0.00000  Uiso   1.00
H260   H     0.61743   0.39669   0.45895   0.00000  Uiso   1.00
H261   H     0.69257   0.86306   0.34609   0.00000  Uiso   1.00
H262   H     0.82315   0.90765   0.37788   0.00000  Uiso   1.00
H263   H     0.61154   0.91033   0.23744   0.00000  Uiso   1.00
H264   H     0.64002   0.79884   0.42791   0.00000  Uiso   1.00
H265   H     0.97261   0.91353   0.40524   0.00000  Uiso   1.00
H266   H     0.52639   0.91918   0.10911   0.00000  Uiso   1.00
H267   H     0.58645   0.68409   0.51077   0.00000  Uiso   1.00
O268   O     0.07465   0.79312   0.39913   0.00000  Uiso   1.00
O269   O     0.48921   0.80052   0.01063   0.00000  Uiso   1.00
O270   O     0.56802   0.49208   0.53759   0.00000  Uiso   1.00
N271   N     0.97838   0.68765   0.36126   0.00000  Uiso   1.00
N272   N     0.56120   0.69293   0.08440   0.00000  Uiso   1.00
N273   N     0.61733   0.47314   0.45990   0.00000  Uiso   1.00
N274   N     0.96171   0.84230   0.38915   0.00000  Uiso   1.00
N275   N     0.54453   0.84758   0.11229   0.00000  Uiso   1.00
N276   N     0.60067   0.62779   0.48779   0.00000  Uiso   1.00
C277   C     0.77953   0.10429   0.20057   0.00000  Uiso   1.00
C278   C     0.71252   0.16505   0.17670   0.00000  Uiso   1.00
C279   C     0.64690   0.13000   0.17218   0.00000  Uiso   1.00
C280   C     0.59223   0.19731   0.14919   0.00000  Uiso   1.00
C281   C     0.48657   0.27664   0.11487   0.00000  Uiso   1.00
C282   C     0.82750   0.16651   0.25301   0.00000  Uiso   1.00
C283   C     0.85855   0.13268   0.31265   0.00000  Uiso   1.00
C284   C     0.90066   0.20122   0.35389   0.00000  Uiso   1.00
C285   C     0.97354   0.28280   0.43804   0.00000  Uiso   1.00
C286   C     0.81201   0.10594   0.14952   0.00000  Uiso   1.00
C287   C     0.83006   0.02118   0.12214   0.00000  Uiso   1.00
C288   C     0.85916   0.03872   0.07626   0.00000  Uiso   1.00
C289   C     0.90800   0.02625   0.99971   0.00000  Uiso   1.00
C290   C     0.79914   0.28615   0.16777   0.00000  Uiso   1.00
C291   C     0.72318   0.26383   0.15889   0.00000  Uiso   1.00
C292   C     0.66859   0.33121   0.13590   0.00000  Uiso   1.00
C293   C     0.60290   0.29626   0.13134   0.00000  Uiso   1.00
C294   C     0.83814   0.26529   0.23520   0.00000  Uiso   1.00
C295   C     0.88023   0.33389   0.27637   0.00000  Uiso   1.00
C296   C     0.91133   0.30018   0.33605   0.00000  Uiso   1.00
C297   C     0.82266   0.20472   0.13171   0.00000  Uiso   1.00
C298   C     0.85175   0.22239   0.08586   0.00000  Uiso   1.00
C299   C     0.86983   0.13768   0.05842   0.00000  Uiso   1.00
H300   H     0.77125   0.02739   0.21444   0.00000  Uiso   1.00
H301   H     0.63868   0.05355   0.18598   0.00000  Uiso   1.00
H302   H     0.85030   0.05623   0.32642   0.00000  Uiso   1.00
H303   H     0.82182   0.94475   0.13594   0.00000  Uiso   1.00
H304   H     0.49641   0.12613   0.14658   0.00000  Uiso   1.00
H305   H     0.94263   0.13178   0.44271   0.00000  Uiso   1.00
H306   H     0.88257   0.89669   0.04105   0.00000  Uiso   1.00
H307   H     0.80743   0.36306   0.15391   0.00000  Uiso   1.00
H308   H     0.67685   0.40765   0.12212   0.00000  Uiso   1.00
H309   H     0.88846   0.41033   0.26256   0.00000  Uiso   1.00
H310   H     0.85998   0.29884   0.07209   0.00000  Uiso   1.00
H311   H     0.52739   0.41353   0.09476   0.00000  Uiso   1.00
H312   H     0.97361   0.41918   0.39089   0.00000  Uiso   1.00
H313   H     0.91355   0.18409   0.98923   0.00000  Uiso   1.00
O314   O     0.42535   0.29312   0.10087   0.00000  Uiso   1.00
O315   O     0.01079   0.30052   0.48937   0.00000  Uiso   1.00
O316   O     0.93198   0.99208   0.96241   0.00000  Uiso   1.00
N317   N     0.52162   0.18765   0.13874   0.00000  Uiso   1.00
N318   N     0.93880   0.19293   0.41560   0.00000  Uiso   1.00
N319   N     0.88267   0.97314   0.04010   0.00000  Uiso   1.00
N320   N     0.53829   0.34230   0.11085   0.00000  Uiso   1.00
N321   N     0.95547   0.34758   0.38771   0.00000  Uiso   1.00
N322   N     0.89933   0.12779   0.01221   0.00000  Uiso   1.00
C323   C     0.27953   0.60429   0.20057   0.00000  Uiso   1.00
C324   C     0.21252   0.66505   0.17670   0.00000  Uiso   1.00
C325   C     0.14690   0.63000   0.17218   0.00000  Uiso   1.00
C326   C     0.09223   0.69731   0.14919   0.00000  Uiso   1.00
C327   C     0.98657   0.77664   0.11487   0.00000  Uiso   1.00
C328   C     0.32750   0.66651   0.25301   0.00000  Uiso   1.00
C329   C     0.35855   0.63268   0.31265   0.00000  Uiso   1.00
C330   C     0.40066   0.70122   0.35389   0.00000  Uiso   1.00
C331   C     0.47354   0.78280   0.43804   0.00000  Uiso   1.00
C332   C     0.31201   0.60594   0.14952   0.00000  Uiso   1.00
C333   C     0.33006   0.52118   0.12214   0.00000  Uiso   1.00
C334   C     0.35916   0.53872   0.07626   0.00000  Uiso   1.00
C335   C     0.40800   0.52625   0.99971   0.00000  Uiso   1.00
C336   C     0.29914   0.78615   0.16777   0.00000  Uiso   1.00
C337   C     0.22318   0.76383   0.15889   0.00000  Uiso   1.00
C338   C     0.16859   0.83121   0.13590   0.00000  Uiso   1.00
C339   C     0.10290   0.79626   0.13134   0.00000  Uiso   1.00
C340   C     0.33814   0.76529   0.23520   0.00000  Uiso   1.00
C341   C     0.38023   0.83389   0.27637   0.00000  Uiso   1.00
C342   C     0.41133   0.80018   0.33605   0.00000  Uiso   1.00
C343   C     0.32266   0.70472   0.13171   0.00000  Uiso   1.00
C344   C     0.35175   0.72239   0.08586   0.00000  Uiso   1.00
C345   C     0.36983   0.63768   0.05842   0.00000  Uiso   1.00
H346   H     0.27125   0.52739   0.21444   0.00000  Uiso   1.00
H347   H     0.13868   0.55355   0.18598   0.00000  Uiso   1.00
H348   H     0.35030   0.55623   0.32642   0.00000  Uiso   1.00
H349   H     0.32182   0.44475   0.13594   0.00000  Uiso   1.00
H350   H     0.99641   0.62613   0.14658   0.00000  Uiso   1.00
H351   H     0.44263   0.63178   0.44271   0.00000  Uiso   1.00
H352   H     0.38257   0.39669   0.04105   0.00000  Uiso   1.00
H353   H     0.30743   0.86306   0.15391   0.00000  Uiso   1.00
H354   H     0.17685   0.90765   0.12212   0.00000  Uiso   1.00
H355   H     0.38846   0.91033   0.26256   0.00000  Uiso   1.00
H356   H     0.35998   0.79884   0.07209   0.00000  Uiso   1.00
H357   H     0.02739   0.91353   0.09476   0.00000  Uiso   1.00
H358   H     0.47361   0.91918   0.39089   0.00000  Uiso   1.00
H359   H     0.41355   0.68409   0.98923   0.00000  Uiso   1.00
O360   O     0.92535   0.79312   0.10087   0.00000  Uiso   1.00
O361   O     0.51079   0.80052   0.48937   0.00000  Uiso   1.00
O362   O     0.43198   0.49208   0.96241   0.00000  Uiso   1.00
N363   N     0.02162   0.68765   0.13874   0.00000  Uiso   1.00
N364   N     0.43880   0.69293   0.41560   0.00000  Uiso   1.00
N365   N     0.38267   0.47314   0.04010   0.00000  Uiso   1.00
N366   N     0.03829   0.84230   0.11085   0.00000  Uiso   1.00
N367   N     0.45547   0.84758   0.38771   0.00000  Uiso   1.00
N368   N     0.39933   0.62779   0.01221   0.00000  Uiso   1.00
