data_job_03978
_audit_creation_date              2018-12-19
_audit_creation_method            'Materials Studio'
_symmetry_space_group_name_H-M    'P1'
_symmetry_Int_Tables_number       1
_symmetry_cell_setting            triclinic
loop_
_symmetry_equiv_pos_as_xyz
  x,y,z
_cell_length_a                    23.7467
_cell_length_b                    35.7743
_cell_length_c                    19.8109
_cell_angle_alpha                 90.0000
_cell_angle_beta                  147.8998
_cell_angle_gamma                 90.0000
loop_
_atom_site_label
_atom_site_type_symbol
_atom_site_fract_x
_atom_site_fract_y
_atom_site_fract_z
_atom_site_U_iso_or_equiv
_atom_site_adp_type
_atom_site_occupancy
C1     C     0.40019   0.59622   0.88340   0.00000  Uiso   1.00
C2     C     0.37147   0.62821   0.80678   0.00000  Uiso   1.00
C3     C     0.43884   0.65679   0.85511   0.00000  Uiso   1.00
C4     C     0.39750   0.68342   0.76948   0.00000  Uiso   1.00
C5     C     0.36886   0.73340   0.67019   0.00000  Uiso   1.00
C6     C     0.31992   0.59771   0.85937   0.00000  Uiso   1.00
C7     C     0.34395   0.60064   0.95193   0.00000  Uiso   1.00
C8     C     0.25921   0.60158   0.91056   0.00000  Uiso   1.00
C9     C     0.15054   0.60418   0.89293   0.00000  Uiso   1.00
C10    C     0.37677   0.56031   0.82092   0.00000  Uiso   1.00
C11    C     0.44858   0.53178   0.88115   0.00000  Uiso   1.00
C12    C     0.41170   0.50123   0.80741   0.00000  Uiso   1.00
C13    C     0.39129   0.44576   0.73008   0.00000  Uiso   1.00
C14    C     0.20698   0.59268   0.64537   0.00000  Uiso   1.00
C15    C     0.26653   0.62629   0.67749   0.00000  Uiso   1.00
C16    C     0.22508   0.65288   0.59176   0.00000  Uiso   1.00
C17    C     0.29237   0.68149   0.63996   0.00000  Uiso   1.00
C18    C     0.21498   0.59579   0.73009   0.00000  Uiso   1.00
C19    C     0.13019   0.59673   0.68858   0.00000  Uiso   1.00
C20    C     0.15408   0.59966   0.78104   0.00000  Uiso   1.00
C21    C     0.27183   0.55839   0.69163   0.00000  Uiso   1.00
C22    C     0.23483   0.52787   0.61779   0.00000  Uiso   1.00
C23    C     0.30657   0.49931   0.67789   0.00000  Uiso   1.00
H24    H     0.48189   0.59771   0.98405   0.00000  Uiso   1.00
H25    H     0.52004   0.65827   0.95518   0.00000  Uiso   1.00
H26    H     0.42517   0.60212   0.05197   0.00000  Uiso   1.00
H27    H     0.52979   0.53327   0.98120   0.00000  Uiso   1.00
H28    H     0.51605   0.72457   0.86615   0.00000  Uiso   1.00
H29    H     0.31601   0.60616   0.07025   0.00000  Uiso   1.00
H30    H     0.53662   0.46099   0.92102   0.00000  Uiso   1.00
H31    H     0.12528   0.59119   0.54471   0.00000  Uiso   1.00
H32    H     0.14387   0.65139   0.49172   0.00000  Uiso   1.00
H33    H     0.04899   0.59524   0.58852   0.00000  Uiso   1.00
H34    H     0.15361   0.52640   0.51775   0.00000  Uiso   1.00
H35    H     0.21073   0.71899   0.48999   0.00000  Uiso   1.00
H36    H     0.01069   0.60058   0.69410   0.00000  Uiso   1.00
H37    H     0.23130   0.45541   0.54486   0.00000  Uiso   1.00
O38    O     0.38204   0.76150   0.65115   0.00000  Uiso   1.00
O39    O     0.11959   0.60615   0.91893   0.00000  Uiso   1.00
O40    O     0.40903   0.41569   0.72313   0.00000  Uiso   1.00
N41    N     0.44165   0.71499   0.78489   0.00000  Uiso   1.00
N42    N     0.25462   0.60429   0.97571   0.00000  Uiso   1.00
N43    N     0.46086   0.46856   0.83620   0.00000  Uiso   1.00
N44    N     0.27736   0.71198   0.58248   0.00000  Uiso   1.00
N45    N     0.09033   0.60129   0.77331   0.00000  Uiso   1.00
N46    N     0.29657   0.46556   0.63379   0.00000  Uiso   1.00
C47    C     0.90019   0.09622   0.88340   0.00000  Uiso   1.00
C48    C     0.87147   0.12821   0.80678   0.00000  Uiso   1.00
C49    C     0.93884   0.15679   0.85511   0.00000  Uiso   1.00
C50    C     0.89750   0.18342   0.76948   0.00000  Uiso   1.00
C51    C     0.86886   0.23340   0.67019   0.00000  Uiso   1.00
C52    C     0.81992   0.09771   0.85937   0.00000  Uiso   1.00
C53    C     0.84395   0.10064   0.95193   0.00000  Uiso   1.00
C54    C     0.75921   0.10158   0.91056   0.00000  Uiso   1.00
C55    C     0.65054   0.10418   0.89293   0.00000  Uiso   1.00
C56    C     0.87677   0.06031   0.82092   0.00000  Uiso   1.00
C57    C     0.94858   0.03178   0.88115   0.00000  Uiso   1.00
C58    C     0.91170   0.00123   0.80741   0.00000  Uiso   1.00
C59    C     0.89129   0.94576   0.73008   0.00000  Uiso   1.00
C60    C     0.70698   0.09268   0.64537   0.00000  Uiso   1.00
C61    C     0.76653   0.12629   0.67749   0.00000  Uiso   1.00
C62    C     0.72508   0.15288   0.59176   0.00000  Uiso   1.00
C63    C     0.79237   0.18149   0.63996   0.00000  Uiso   1.00
C64    C     0.71498   0.09579   0.73009   0.00000  Uiso   1.00
C65    C     0.63019   0.09673   0.68858   0.00000  Uiso   1.00
C66    C     0.65408   0.09966   0.78104   0.00000  Uiso   1.00
C67    C     0.77183   0.05839   0.69163   0.00000  Uiso   1.00
C68    C     0.73483   0.02787   0.61779   0.00000  Uiso   1.00
C69    C     0.80657   0.99931   0.67789   0.00000  Uiso   1.00
H70    H     0.98189   0.09771   0.98405   0.00000  Uiso   1.00
H71    H     0.02004   0.15827   0.95518   0.00000  Uiso   1.00
H72    H     0.92517   0.10212   0.05197   0.00000  Uiso   1.00
H73    H     0.02979   0.03327   0.98120   0.00000  Uiso   1.00
H74    H     0.01605   0.22457   0.86615   0.00000  Uiso   1.00
H75    H     0.81601   0.10616   0.07025   0.00000  Uiso   1.00
H76    H     0.03662   0.96099   0.92102   0.00000  Uiso   1.00
H77    H     0.62528   0.09119   0.54471   0.00000  Uiso   1.00
H78    H     0.64387   0.15139   0.49172   0.00000  Uiso   1.00
H79    H     0.54899   0.09524   0.58852   0.00000  Uiso   1.00
H80    H     0.65361   0.02640   0.51775   0.00000  Uiso   1.00
H81    H     0.71073   0.21899   0.48999   0.00000  Uiso   1.00
H82    H     0.51069   0.10058   0.69410   0.00000  Uiso   1.00
H83    H     0.73130   0.95541   0.54486   0.00000  Uiso   1.00
O84    O     0.88204   0.26150   0.65115   0.00000  Uiso   1.00
O85    O     0.61959   0.10615   0.91893   0.00000  Uiso   1.00
O86    O     0.90903   0.91569   0.72313   0.00000  Uiso   1.00
N87    N     0.94165   0.21499   0.78489   0.00000  Uiso   1.00
N88    N     0.75462   0.10429   0.97571   0.00000  Uiso   1.00
N89    N     0.96086   0.96856   0.83620   0.00000  Uiso   1.00
N90    N     0.77736   0.21198   0.58248   0.00000  Uiso   1.00
N91    N     0.59033   0.10129   0.77331   0.00000  Uiso   1.00
N92    N     0.79657   0.96556   0.63379   0.00000  Uiso   1.00
C93    C     0.59981   0.59622   0.61660   0.00000  Uiso   1.00
C94    C     0.62853   0.62821   0.69322   0.00000  Uiso   1.00
C95    C     0.56116   0.65679   0.64489   0.00000  Uiso   1.00
C96    C     0.60250   0.68342   0.73052   0.00000  Uiso   1.00
C97    C     0.63114   0.73340   0.82981   0.00000  Uiso   1.00
C98    C     0.68008   0.59771   0.64063   0.00000  Uiso   1.00
C99    C     0.65605   0.60064   0.54807   0.00000  Uiso   1.00
C100   C     0.74079   0.60158   0.58944   0.00000  Uiso   1.00
C101   C     0.84946   0.60418   0.60707   0.00000  Uiso   1.00
C102   C     0.62323   0.56031   0.67908   0.00000  Uiso   1.00
C103   C     0.55142   0.53178   0.61885   0.00000  Uiso   1.00
C104   C     0.58830   0.50123   0.69259   0.00000  Uiso   1.00
C105   C     0.60871   0.44576   0.76992   0.00000  Uiso   1.00
C106   C     0.79302   0.59268   0.85463   0.00000  Uiso   1.00
C107   C     0.73347   0.62629   0.82251   0.00000  Uiso   1.00
C108   C     0.77492   0.65288   0.90824   0.00000  Uiso   1.00
C109   C     0.70763   0.68149   0.86004   0.00000  Uiso   1.00
C110   C     0.78502   0.59579   0.76991   0.00000  Uiso   1.00
C111   C     0.86981   0.59673   0.81142   0.00000  Uiso   1.00
C112   C     0.84592   0.59966   0.71896   0.00000  Uiso   1.00
C113   C     0.72817   0.55839   0.80837   0.00000  Uiso   1.00
C114   C     0.76517   0.52787   0.88221   0.00000  Uiso   1.00
C115   C     0.69343   0.49931   0.82211   0.00000  Uiso   1.00
H116   H     0.51811   0.59771   0.51595   0.00000  Uiso   1.00
H117   H     0.47996   0.65827   0.54482   0.00000  Uiso   1.00
H118   H     0.57483   0.60212   0.44803   0.00000  Uiso   1.00
H119   H     0.47021   0.53327   0.51880   0.00000  Uiso   1.00
H120   H     0.48395   0.72457   0.63385   0.00000  Uiso   1.00
H121   H     0.68399   0.60616   0.42975   0.00000  Uiso   1.00
H122   H     0.46338   0.46099   0.57898   0.00000  Uiso   1.00
H123   H     0.87472   0.59119   0.95529   0.00000  Uiso   1.00
H124   H     0.85613   0.65139   0.00828   0.00000  Uiso   1.00
H125   H     0.95101   0.59524   0.91148   0.00000  Uiso   1.00
H126   H     0.84639   0.52640   0.98225   0.00000  Uiso   1.00
H127   H     0.78927   0.71899   0.01001   0.00000  Uiso   1.00
H128   H     0.98931   0.60058   0.80590   0.00000  Uiso   1.00
H129   H     0.76870   0.45541   0.95514   0.00000  Uiso   1.00
O130   O     0.61796   0.76150   0.84885   0.00000  Uiso   1.00
O131   O     0.88041   0.60615   0.58107   0.00000  Uiso   1.00
O132   O     0.59097   0.41569   0.77687   0.00000  Uiso   1.00
N133   N     0.55835   0.71499   0.71511   0.00000  Uiso   1.00
N134   N     0.74538   0.60429   0.52429   0.00000  Uiso   1.00
N135   N     0.53914   0.46856   0.66380   0.00000  Uiso   1.00
N136   N     0.72264   0.71198   0.91752   0.00000  Uiso   1.00
N137   N     0.90967   0.60129   0.72669   0.00000  Uiso   1.00
N138   N     0.70343   0.46556   0.86621   0.00000  Uiso   1.00
C139   C     0.09981   0.09622   0.61660   0.00000  Uiso   1.00
C140   C     0.12853   0.12821   0.69322   0.00000  Uiso   1.00
C141   C     0.06116   0.15679   0.64489   0.00000  Uiso   1.00
C142   C     0.10250   0.18342   0.73052   0.00000  Uiso   1.00
C143   C     0.13114   0.23340   0.82981   0.00000  Uiso   1.00
C144   C     0.18008   0.09771   0.64063   0.00000  Uiso   1.00
C145   C     0.15605   0.10064   0.54807   0.00000  Uiso   1.00
C146   C     0.24079   0.10158   0.58944   0.00000  Uiso   1.00
C147   C     0.34946   0.10418   0.60707   0.00000  Uiso   1.00
C148   C     0.12323   0.06031   0.67908   0.00000  Uiso   1.00
C149   C     0.05142   0.03178   0.61885   0.00000  Uiso   1.00
C150   C     0.08830   0.00123   0.69259   0.00000  Uiso   1.00
C151   C     0.10871   0.94576   0.76992   0.00000  Uiso   1.00
C152   C     0.29302   0.09268   0.85463   0.00000  Uiso   1.00
C153   C     0.23347   0.12629   0.82251   0.00000  Uiso   1.00
C154   C     0.27492   0.15288   0.90824   0.00000  Uiso   1.00
C155   C     0.20763   0.18149   0.86004   0.00000  Uiso   1.00
C156   C     0.28502   0.09579   0.76991   0.00000  Uiso   1.00
C157   C     0.36981   0.09673   0.81142   0.00000  Uiso   1.00
C158   C     0.34592   0.09966   0.71896   0.00000  Uiso   1.00
C159   C     0.22817   0.05839   0.80837   0.00000  Uiso   1.00
C160   C     0.26517   0.02787   0.88221   0.00000  Uiso   1.00
C161   C     0.19343   0.99931   0.82211   0.00000  Uiso   1.00
H162   H     0.01811   0.09771   0.51595   0.00000  Uiso   1.00
H163   H     0.97996   0.15827   0.54482   0.00000  Uiso   1.00
H164   H     0.07483   0.10212   0.44803   0.00000  Uiso   1.00
H165   H     0.97021   0.03327   0.51880   0.00000  Uiso   1.00
H166   H     0.98395   0.22457   0.63385   0.00000  Uiso   1.00
H167   H     0.18399   0.10616   0.42975   0.00000  Uiso   1.00
H168   H     0.96338   0.96099   0.57898   0.00000  Uiso   1.00
H169   H     0.37472   0.09119   0.95529   0.00000  Uiso   1.00
H170   H     0.35613   0.15139   0.00828   0.00000  Uiso   1.00
H171   H     0.45101   0.09524   0.91148   0.00000  Uiso   1.00
H172   H     0.34639   0.02640   0.98225   0.00000  Uiso   1.00
H173   H     0.28927   0.21899   0.01001   0.00000  Uiso   1.00
H174   H     0.48931   0.10058   0.80590   0.00000  Uiso   1.00
H175   H     0.26870   0.95541   0.95514   0.00000  Uiso   1.00
O176   O     0.11796   0.26150   0.84885   0.00000  Uiso   1.00
O177   O     0.38041   0.10615   0.58107   0.00000  Uiso   1.00
O178   O     0.09097   0.91569   0.77687   0.00000  Uiso   1.00
N179   N     0.05835   0.21499   0.71511   0.00000  Uiso   1.00
N180   N     0.24538   0.10429   0.52429   0.00000  Uiso   1.00
N181   N     0.03914   0.96856   0.66380   0.00000  Uiso   1.00
N182   N     0.22264   0.21198   0.91752   0.00000  Uiso   1.00
N183   N     0.40967   0.10129   0.72669   0.00000  Uiso   1.00
N184   N     0.20343   0.96556   0.86621   0.00000  Uiso   1.00
C185   C     0.59981   0.40378   0.11660   0.00000  Uiso   1.00
C186   C     0.62853   0.37179   0.19322   0.00000  Uiso   1.00
C187   C     0.56116   0.34321   0.14489   0.00000  Uiso   1.00
C188   C     0.60250   0.31658   0.23052   0.00000  Uiso   1.00
C189   C     0.63114   0.26660   0.32981   0.00000  Uiso   1.00
C190   C     0.68008   0.40229   0.14063   0.00000  Uiso   1.00
C191   C     0.65605   0.39936   0.04807   0.00000  Uiso   1.00
C192   C     0.74079   0.39842   0.08944   0.00000  Uiso   1.00
C193   C     0.84946   0.39582   0.10707   0.00000  Uiso   1.00
C194   C     0.62323   0.43969   0.17908   0.00000  Uiso   1.00
C195   C     0.55142   0.46822   0.11885   0.00000  Uiso   1.00
C196   C     0.58830   0.49877   0.19259   0.00000  Uiso   1.00
C197   C     0.60871   0.55424   0.26992   0.00000  Uiso   1.00
C198   C     0.79302   0.40732   0.35463   0.00000  Uiso   1.00
C199   C     0.73347   0.37371   0.32251   0.00000  Uiso   1.00
C200   C     0.77492   0.34712   0.40824   0.00000  Uiso   1.00
C201   C     0.70763   0.31851   0.36004   0.00000  Uiso   1.00
C202   C     0.78502   0.40421   0.26991   0.00000  Uiso   1.00
C203   C     0.86981   0.40327   0.31142   0.00000  Uiso   1.00
C204   C     0.84592   0.40034   0.21896   0.00000  Uiso   1.00
C205   C     0.72817   0.44161   0.30837   0.00000  Uiso   1.00
C206   C     0.76517   0.47213   0.38221   0.00000  Uiso   1.00
C207   C     0.69343   0.50069   0.32211   0.00000  Uiso   1.00
H208   H     0.51811   0.40229   0.01595   0.00000  Uiso   1.00
H209   H     0.47996   0.34173   0.04482   0.00000  Uiso   1.00
H210   H     0.57483   0.39788   0.94803   0.00000  Uiso   1.00
H211   H     0.47021   0.46673   0.01880   0.00000  Uiso   1.00
H212   H     0.48395   0.27543   0.13385   0.00000  Uiso   1.00
H213   H     0.68399   0.39384   0.92975   0.00000  Uiso   1.00
H214   H     0.46338   0.53901   0.07898   0.00000  Uiso   1.00
H215   H     0.87472   0.40881   0.45529   0.00000  Uiso   1.00
H216   H     0.85613   0.34861   0.50828   0.00000  Uiso   1.00
H217   H     0.95101   0.40476   0.41148   0.00000  Uiso   1.00
H218   H     0.84639   0.47360   0.48225   0.00000  Uiso   1.00
H219   H     0.78927   0.28101   0.51001   0.00000  Uiso   1.00
H220   H     0.98931   0.39942   0.30590   0.00000  Uiso   1.00
H221   H     0.76870   0.54459   0.45514   0.00000  Uiso   1.00
O222   O     0.61796   0.23850   0.34885   0.00000  Uiso   1.00
O223   O     0.88041   0.39385   0.08107   0.00000  Uiso   1.00
O224   O     0.59097   0.58431   0.27687   0.00000  Uiso   1.00
N225   N     0.55835   0.28501   0.21511   0.00000  Uiso   1.00
N226   N     0.74538   0.39571   0.02429   0.00000  Uiso   1.00
N227   N     0.53914   0.53144   0.16380   0.00000  Uiso   1.00
N228   N     0.72264   0.28802   0.41752   0.00000  Uiso   1.00
N229   N     0.90967   0.39871   0.22669   0.00000  Uiso   1.00
N230   N     0.70343   0.53444   0.36621   0.00000  Uiso   1.00
C231   C     0.09981   0.90378   0.11660   0.00000  Uiso   1.00
C232   C     0.12853   0.87179   0.19322   0.00000  Uiso   1.00
C233   C     0.06116   0.84321   0.14489   0.00000  Uiso   1.00
C234   C     0.10250   0.81658   0.23052   0.00000  Uiso   1.00
C235   C     0.13114   0.76660   0.32981   0.00000  Uiso   1.00
C236   C     0.18008   0.90229   0.14063   0.00000  Uiso   1.00
C237   C     0.15605   0.89936   0.04807   0.00000  Uiso   1.00
C238   C     0.24079   0.89842   0.08944   0.00000  Uiso   1.00
C239   C     0.34946   0.89582   0.10707   0.00000  Uiso   1.00
C240   C     0.12323   0.93969   0.17908   0.00000  Uiso   1.00
C241   C     0.05142   0.96822   0.11885   0.00000  Uiso   1.00
C242   C     0.08830   0.99877   0.19259   0.00000  Uiso   1.00
C243   C     0.10871   0.05424   0.26992   0.00000  Uiso   1.00
C244   C     0.29302   0.90732   0.35463   0.00000  Uiso   1.00
C245   C     0.23347   0.87371   0.32251   0.00000  Uiso   1.00
C246   C     0.27492   0.84712   0.40824   0.00000  Uiso   1.00
C247   C     0.20763   0.81851   0.36004   0.00000  Uiso   1.00
C248   C     0.28502   0.90421   0.26991   0.00000  Uiso   1.00
C249   C     0.36981   0.90327   0.31142   0.00000  Uiso   1.00
C250   C     0.34592   0.90034   0.21896   0.00000  Uiso   1.00
C251   C     0.22817   0.94161   0.30837   0.00000  Uiso   1.00
C252   C     0.26517   0.97213   0.38221   0.00000  Uiso   1.00
C253   C     0.19343   0.00069   0.32211   0.00000  Uiso   1.00
H254   H     0.01811   0.90229   0.01595   0.00000  Uiso   1.00
H255   H     0.97996   0.84173   0.04482   0.00000  Uiso   1.00
H256   H     0.07483   0.89788   0.94803   0.00000  Uiso   1.00
H257   H     0.97021   0.96673   0.01880   0.00000  Uiso   1.00
H258   H     0.98395   0.77543   0.13385   0.00000  Uiso   1.00
H259   H     0.18399   0.89384   0.92975   0.00000  Uiso   1.00
H260   H     0.96338   0.03901   0.07898   0.00000  Uiso   1.00
H261   H     0.37472   0.90881   0.45529   0.00000  Uiso   1.00
H262   H     0.35613   0.84861   0.50828   0.00000  Uiso   1.00
H263   H     0.45101   0.90476   0.41148   0.00000  Uiso   1.00
H264   H     0.34639   0.97360   0.48225   0.00000  Uiso   1.00
H265   H     0.28927   0.78101   0.51001   0.00000  Uiso   1.00
H266   H     0.48931   0.89942   0.30590   0.00000  Uiso   1.00
H267   H     0.26870   0.04459   0.45514   0.00000  Uiso   1.00
O268   O     0.11796   0.73850   0.34885   0.00000  Uiso   1.00
O269   O     0.38041   0.89385   0.08107   0.00000  Uiso   1.00
O270   O     0.09097   0.08431   0.27687   0.00000  Uiso   1.00
N271   N     0.05835   0.78501   0.21511   0.00000  Uiso   1.00
N272   N     0.24538   0.89571   0.02429   0.00000  Uiso   1.00
N273   N     0.03914   0.03144   0.16380   0.00000  Uiso   1.00
N274   N     0.22264   0.78802   0.41752   0.00000  Uiso   1.00
N275   N     0.40967   0.89871   0.22669   0.00000  Uiso   1.00
N276   N     0.20343   0.03444   0.36621   0.00000  Uiso   1.00
C277   C     0.40019   0.40378   0.38340   0.00000  Uiso   1.00
C278   C     0.37147   0.37179   0.30678   0.00000  Uiso   1.00
C279   C     0.43884   0.34321   0.35511   0.00000  Uiso   1.00
C280   C     0.39750   0.31658   0.26948   0.00000  Uiso   1.00
C281   C     0.36886   0.26660   0.17019   0.00000  Uiso   1.00
C282   C     0.31992   0.40229   0.35937   0.00000  Uiso   1.00
C283   C     0.34395   0.39936   0.45193   0.00000  Uiso   1.00
C284   C     0.25921   0.39842   0.41056   0.00000  Uiso   1.00
C285   C     0.15054   0.39582   0.39293   0.00000  Uiso   1.00
C286   C     0.37677   0.43969   0.32092   0.00000  Uiso   1.00
C287   C     0.44858   0.46822   0.38115   0.00000  Uiso   1.00
C288   C     0.41170   0.49877   0.30741   0.00000  Uiso   1.00
C289   C     0.39129   0.55424   0.23008   0.00000  Uiso   1.00
C290   C     0.20698   0.40732   0.14537   0.00000  Uiso   1.00
C291   C     0.26653   0.37371   0.17749   0.00000  Uiso   1.00
C292   C     0.22508   0.34712   0.09176   0.00000  Uiso   1.00
C293   C     0.29237   0.31851   0.13996   0.00000  Uiso   1.00
C294   C     0.21498   0.40421   0.23009   0.00000  Uiso   1.00
C295   C     0.13019   0.40327   0.18858   0.00000  Uiso   1.00
C296   C     0.15408   0.40034   0.28104   0.00000  Uiso   1.00
C297   C     0.27183   0.44161   0.19163   0.00000  Uiso   1.00
C298   C     0.23483   0.47213   0.11779   0.00000  Uiso   1.00
C299   C     0.30657   0.50069   0.17789   0.00000  Uiso   1.00
H300   H     0.48189   0.40229   0.48405   0.00000  Uiso   1.00
H301   H     0.52004   0.34173   0.45518   0.00000  Uiso   1.00
H302   H     0.42517   0.39788   0.55197   0.00000  Uiso   1.00
H303   H     0.52979   0.46673   0.48120   0.00000  Uiso   1.00
H304   H     0.51605   0.27543   0.36615   0.00000  Uiso   1.00
H305   H     0.31601   0.39384   0.57025   0.00000  Uiso   1.00
H306   H     0.53662   0.53901   0.42102   0.00000  Uiso   1.00
H307   H     0.12528   0.40881   0.04471   0.00000  Uiso   1.00
H308   H     0.14387   0.34861   0.99172   0.00000  Uiso   1.00
H309   H     0.04899   0.40476   0.08852   0.00000  Uiso   1.00
H310   H     0.15361   0.47360   0.01775   0.00000  Uiso   1.00
H311   H     0.21073   0.28101   0.98999   0.00000  Uiso   1.00
H312   H     0.01069   0.39942   0.19410   0.00000  Uiso   1.00
H313   H     0.23130   0.54459   0.04486   0.00000  Uiso   1.00
O314   O     0.38204   0.23850   0.15115   0.00000  Uiso   1.00
O315   O     0.11959   0.39385   0.41893   0.00000  Uiso   1.00
O316   O     0.40903   0.58431   0.22313   0.00000  Uiso   1.00
N317   N     0.44165   0.28501   0.28489   0.00000  Uiso   1.00
N318   N     0.25462   0.39571   0.47571   0.00000  Uiso   1.00
N319   N     0.46086   0.53144   0.33620   0.00000  Uiso   1.00
N320   N     0.27736   0.28802   0.08248   0.00000  Uiso   1.00
N321   N     0.09033   0.39871   0.27331   0.00000  Uiso   1.00
N322   N     0.29657   0.53444   0.13379   0.00000  Uiso   1.00
C323   C     0.90019   0.90378   0.38340   0.00000  Uiso   1.00
C324   C     0.87147   0.87179   0.30678   0.00000  Uiso   1.00
C325   C     0.93884   0.84321   0.35511   0.00000  Uiso   1.00
C326   C     0.89750   0.81658   0.26948   0.00000  Uiso   1.00
C327   C     0.86886   0.76660   0.17019   0.00000  Uiso   1.00
C328   C     0.81992   0.90229   0.35937   0.00000  Uiso   1.00
C329   C     0.84395   0.89936   0.45193   0.00000  Uiso   1.00
C330   C     0.75921   0.89842   0.41056   0.00000  Uiso   1.00
C331   C     0.65054   0.89582   0.39293   0.00000  Uiso   1.00
C332   C     0.87677   0.93969   0.32092   0.00000  Uiso   1.00
C333   C     0.94858   0.96822   0.38115   0.00000  Uiso   1.00
C334   C     0.91170   0.99877   0.30741   0.00000  Uiso   1.00
C335   C     0.89129   0.05424   0.23008   0.00000  Uiso   1.00
C336   C     0.70698   0.90732   0.14537   0.00000  Uiso   1.00
C337   C     0.76653   0.87371   0.17749   0.00000  Uiso   1.00
C338   C     0.72508   0.84712   0.09176   0.00000  Uiso   1.00
C339   C     0.79237   0.81851   0.13996   0.00000  Uiso   1.00
C340   C     0.71498   0.90421   0.23009   0.00000  Uiso   1.00
C341   C     0.63019   0.90327   0.18858   0.00000  Uiso   1.00
C342   C     0.65408   0.90034   0.28104   0.00000  Uiso   1.00
C343   C     0.77183   0.94161   0.19163   0.00000  Uiso   1.00
C344   C     0.73483   0.97213   0.11779   0.00000  Uiso   1.00
C345   C     0.80657   0.00069   0.17789   0.00000  Uiso   1.00
H346   H     0.98189   0.90229   0.48405   0.00000  Uiso   1.00
H347   H     0.02004   0.84173   0.45518   0.00000  Uiso   1.00
H348   H     0.92517   0.89788   0.55197   0.00000  Uiso   1.00
H349   H     0.02979   0.96673   0.48120   0.00000  Uiso   1.00
H350   H     0.01605   0.77543   0.36615   0.00000  Uiso   1.00
H351   H     0.81601   0.89384   0.57025   0.00000  Uiso   1.00
H352   H     0.03662   0.03901   0.42102   0.00000  Uiso   1.00
H353   H     0.62528   0.90881   0.04471   0.00000  Uiso   1.00
H354   H     0.64387   0.84861   0.99172   0.00000  Uiso   1.00
H355   H     0.54899   0.90476   0.08852   0.00000  Uiso   1.00
H356   H     0.65361   0.97360   0.01775   0.00000  Uiso   1.00
H357   H     0.71073   0.78101   0.98999   0.00000  Uiso   1.00
H358   H     0.51069   0.89942   0.19410   0.00000  Uiso   1.00
H359   H     0.73130   0.04459   0.04486   0.00000  Uiso   1.00
O360   O     0.88204   0.73850   0.15115   0.00000  Uiso   1.00
O361   O     0.61959   0.89385   0.41893   0.00000  Uiso   1.00
O362   O     0.90903   0.08431   0.22313   0.00000  Uiso   1.00
N363   N     0.94165   0.78501   0.28489   0.00000  Uiso   1.00
N364   N     0.75462   0.89571   0.47571   0.00000  Uiso   1.00
N365   N     0.96086   0.03144   0.33620   0.00000  Uiso   1.00
N366   N     0.77736   0.78802   0.08248   0.00000  Uiso   1.00
N367   N     0.59033   0.89871   0.27331   0.00000  Uiso   1.00
N368   N     0.79657   0.03444   0.13379   0.00000  Uiso   1.00
