data_job_06964
_audit_creation_date              2018-12-19
_audit_creation_method            'Materials Studio'
_symmetry_space_group_name_H-M    'P1'
_symmetry_Int_Tables_number       1
_symmetry_cell_setting            triclinic
loop_
_symmetry_equiv_pos_as_xyz
  x,y,z
_cell_length_a                    22.1090
_cell_length_b                    23.6728
_cell_length_c                    21.4477
_cell_angle_alpha                 101.9950
_cell_angle_beta                  117.2780
_cell_angle_gamma                 93.4079
loop_
_atom_site_label
_atom_site_type_symbol
_atom_site_fract_x
_atom_site_fract_y
_atom_site_fract_z
_atom_site_U_iso_or_equiv
_atom_site_adp_type
_atom_site_occupancy
C1     C     0.46022   0.45215   0.84151   0.00000  Uiso   1.00
C2     C     0.43410   0.38812   0.83161   0.00000  Uiso   1.00
C3     C     0.47453   0.34500   0.84651   0.00000  Uiso   1.00
C4     C     0.44084   0.28909   0.83381   0.00000  Uiso   1.00
C5     C     0.41116   0.19154   0.82245   0.00000  Uiso   1.00
C6     C     0.41903   0.46435   0.76757   0.00000  Uiso   1.00
C7     C     0.44680   0.48532   0.72864   0.00000  Uiso   1.00
C8     C     0.40042   0.49358   0.66204   0.00000  Uiso   1.00
C9     C     0.34734   0.51441   0.55129   0.00000  Uiso   1.00
C10    C     0.43726   0.48848   0.89172   0.00000  Uiso   1.00
C11    C     0.48034   0.52975   0.95716   0.00000  Uiso   1.00
C12    C     0.44931   0.55835   0.99507   0.00000  Uiso   1.00
C13    C     0.42454   0.61665   0.07708   0.00000  Uiso   1.00
C14    C     0.32849   0.42955   0.79244   0.00000  Uiso   1.00
C15    C     0.36254   0.37585   0.80495   0.00000  Uiso   1.00
C16    C     0.32878   0.31999   0.79223   0.00000  Uiso   1.00
C17    C     0.36916   0.27679   0.80711   0.00000  Uiso   1.00
C18    C     0.34748   0.45208   0.74092   0.00000  Uiso   1.00
C19    C     0.30105   0.46032   0.67436   0.00000  Uiso   1.00
C20    C     0.32874   0.48129   0.63534   0.00000  Uiso   1.00
C21    C     0.36570   0.47621   0.86507   0.00000  Uiso   1.00
C22    C     0.33460   0.50475   0.90288   0.00000  Uiso   1.00
C23    C     0.37763   0.54605   0.96837   0.00000  Uiso   1.00
H24    H     0.51592   0.46170   0.86225   0.00000  Uiso   1.00
H25    H     0.52990   0.35451   0.86713   0.00000  Uiso   1.00
H26    H     0.50217   0.49482   0.74928   0.00000  Uiso   1.00
H27    H     0.53571   0.53924   0.97777   0.00000  Uiso   1.00
H28    H     0.51384   0.23025   0.86076   0.00000  Uiso   1.00
H29    H     0.45537   0.52611   0.61229   0.00000  Uiso   1.00
H30    H     0.52610   0.61979   0.09409   0.00000  Uiso   1.00
H31    H     0.27278   0.41999   0.77169   0.00000  Uiso   1.00
H32    H     0.27341   0.31051   0.77160   0.00000  Uiso   1.00
H33    H     0.24568   0.45082   0.65375   0.00000  Uiso   1.00
H34    H     0.27922   0.49524   0.88224   0.00000  Uiso   1.00
H35    H     0.30566   0.19453   0.78322   0.00000  Uiso   1.00
H36    H     0.24719   0.49040   0.53475   0.00000  Uiso   1.00
H37    H     0.31792   0.58408   0.01655   0.00000  Uiso   1.00
O38    O     0.41455   0.14112   0.82354   0.00000  Uiso   1.00
O39    O     0.33784   0.52929   0.49757   0.00000  Uiso   1.00
O40    O     0.43064   0.65219   0.12968   0.00000  Uiso   1.00
N41    N     0.46476   0.23687   0.84254   0.00000  Uiso   1.00
N42    N     0.41009   0.51347   0.61022   0.00000  Uiso   1.00
N43    N     0.47622   0.60107   0.06066   0.00000  Uiso   1.00
N44    N     0.35274   0.21765   0.80081   0.00000  Uiso   1.00
N45    N     0.29807   0.49426   0.56850   0.00000  Uiso   1.00
N46    N     0.36420   0.58185   0.01894   0.00000  Uiso   1.00
C47    C     0.78795   0.29848   0.27011   0.00000  Uiso   1.00
C48    C     0.79103   0.25660   0.20758   0.00000  Uiso   1.00
C49    C     0.79179   0.27141   0.14861   0.00000  Uiso   1.00
C50    C     0.79470   0.22676   0.09716   0.00000  Uiso   1.00
C51    C     0.79912   0.17044   0.99893   0.00000  Uiso   1.00
C52    C     0.72478   0.27181   0.27248   0.00000  Uiso   1.00
C53    C     0.66986   0.29943   0.26810   0.00000  Uiso   1.00
C54    C     0.61701   0.26759   0.27129   0.00000  Uiso   1.00
C55    C     0.51862   0.23491   0.27388   0.00000  Uiso   1.00
C56    C     0.85066   0.29465   0.33950   0.00000  Uiso   1.00
C57    C     0.90157   0.34147   0.39148   0.00000  Uiso   1.00
C58    C     0.95470   0.32887   0.45112   0.00000  Uiso   1.00
C59    C     0.05175   0.33165   0.55777   0.00000  Uiso   1.00
C60    C     0.79178   0.19285   0.28359   0.00000  Uiso   1.00
C61    C     0.79310   0.19922   0.21490   0.00000  Uiso   1.00
C62    C     0.79602   0.15453   0.16353   0.00000  Uiso   1.00
C63    C     0.79679   0.16928   0.10449   0.00000  Uiso   1.00
C64    C     0.72686   0.21444   0.27980   0.00000  Uiso   1.00
C65    C     0.67409   0.18255   0.28301   0.00000  Uiso   1.00
C66    C     0.61909   0.21011   0.27863   0.00000  Uiso   1.00
C67    C     0.85274   0.23728   0.34683   0.00000  Uiso   1.00
C68    C     0.90580   0.22460   0.40639   0.00000  Uiso   1.00
C69    C     0.95678   0.27139   0.45845   0.00000  Uiso   1.00
H70    H     0.78633   0.34316   0.26441   0.00000  Uiso   1.00
H71    H     0.79017   0.31582   0.14296   0.00000  Uiso   1.00
H72    H     0.66827   0.34383   0.26244   0.00000  Uiso   1.00
H73    H     0.89994   0.38587   0.38580   0.00000  Uiso   1.00
H74    H     0.79532   0.26020   0.01153   0.00000  Uiso   1.00
H75    H     0.53829   0.31928   0.26347   0.00000  Uiso   1.00
H76    H     0.02682   0.40792   0.52361   0.00000  Uiso   1.00
H77    H     0.79339   0.14817   0.28929   0.00000  Uiso   1.00
H78    H     0.79763   0.11014   0.16921   0.00000  Uiso   1.00
H79    H     0.67572   0.13815   0.28868   0.00000  Uiso   1.00
H80    H     0.90739   0.18019   0.41204   0.00000  Uiso   1.00
H81    H     0.80137   0.09326   0.03283   0.00000  Uiso   1.00
H82    H     0.54433   0.15234   0.28478   0.00000  Uiso   1.00
H83    H     0.03287   0.24098   0.54491   0.00000  Uiso   1.00
O84    O     0.80098   0.15522   0.94272   0.00000  Uiso   1.00
O85    O     0.46377   0.23273   0.27328   0.00000  Uiso   1.00
O86    O     0.10471   0.34904   0.61457   0.00000  Uiso   1.00
N87    N     0.79618   0.22613   0.03303   0.00000  Uiso   1.00
N88    N     0.55586   0.28136   0.26857   0.00000  Uiso   1.00
N89    N     0.01259   0.36424   0.51179   0.00000  Uiso   1.00
N90    N     0.79943   0.13631   0.04449   0.00000  Uiso   1.00
N91    N     0.55911   0.19153   0.28003   0.00000  Uiso   1.00
N92    N     0.01584   0.27442   0.52325   0.00000  Uiso   1.00
C93    C     0.72220   0.84502   0.51976   0.00000  Uiso   1.00
C94    C     0.64412   0.82402   0.47696   0.00000  Uiso   1.00
C95    C     0.59849   0.83175   0.50455   0.00000  Uiso   1.00
C96    C     0.52901   0.80929   0.45660   0.00000  Uiso   1.00
C97    C     0.41127   0.78108   0.40123   0.00000  Uiso   1.00
C98    C     0.75442   0.79069   0.51126   0.00000  Uiso   1.00
C99    C     0.80153   0.77040   0.56770   0.00000  Uiso   1.00
C100   C     0.82490   0.71990   0.54862   0.00000  Uiso   1.00
C101   C     0.87843   0.63997   0.54651   0.00000  Uiso   1.00
C102   C     0.73911   0.88361   0.47908   0.00000  Uiso   1.00
C103   C     0.77336   0.94145   0.50847   0.00000  Uiso   1.00
C104   C     0.78386   0.96918   0.46230   0.00000  Uiso   1.00
C105   C     0.81363   0.03353   0.41023   0.00000  Uiso   1.00
C106   C     0.67995   0.79141   0.38553   0.00000  Uiso   1.00
C107   C     0.62118   0.79490   0.40404   0.00000  Uiso   1.00
C108   C     0.55175   0.77243   0.35603   0.00000  Uiso   1.00
C109   C     0.50602   0.78012   0.38355   0.00000  Uiso   1.00
C110   C     0.73147   0.76157   0.43835   0.00000  Uiso   1.00
C111   C     0.75478   0.71109   0.41918   0.00000  Uiso   1.00
C112   C     0.80191   0.69072   0.47558   0.00000  Uiso   1.00
C113   C     0.71616   0.85449   0.40617   0.00000  Uiso   1.00
C114   C     0.72662   0.88213   0.35995   0.00000  Uiso   1.00
C115   C     0.76087   0.94000   0.38926   0.00000  Uiso   1.00
H116   H     0.74007   0.86769   0.57653   0.00000  Uiso   1.00
H117   H     0.61627   0.85428   0.56098   0.00000  Uiso   1.00
H118   H     0.81928   0.79295   0.62412   0.00000  Uiso   1.00
H119   H     0.79111   0.96397   0.56489   0.00000  Uiso   1.00
H120   H     0.46890   0.82655   0.51160   0.00000  Uiso   1.00
H121   H     0.89697   0.69725   0.64473   0.00000  Uiso   1.00
H122   H     0.83759   0.05788   0.51984   0.00000  Uiso   1.00
H123   H     0.66209   0.76873   0.32876   0.00000  Uiso   1.00
H124   H     0.53401   0.74989   0.29961   0.00000  Uiso   1.00
H125   H     0.73702   0.68856   0.36275   0.00000  Uiso   1.00
H126   H     0.70885   0.85958   0.30353   0.00000  Uiso   1.00
H127   H     0.40213   0.74182   0.29946   0.00000  Uiso   1.00
H128   H     0.83021   0.61252   0.43259   0.00000  Uiso   1.00
H129   H     0.77082   0.97315   0.30770   0.00000  Uiso   1.00
O130   O     0.35267   0.77356   0.39083   0.00000  Uiso   1.00
O131   O     0.91429   0.60393   0.56550   0.00000  Uiso   1.00
O132   O     0.83638   0.07707   0.40165   0.00000  Uiso   1.00
N133   N     0.47076   0.80921   0.46567   0.00000  Uiso   1.00
N134   N     0.87097   0.68831   0.59014   0.00000  Uiso   1.00
N135   N     0.81547   0.02547   0.47338   0.00000  Uiso   1.00
N136   N     0.43484   0.76361   0.35152   0.00000  Uiso   1.00
N137   N     0.83505   0.64272   0.47599   0.00000  Uiso   1.00
N138   N     0.77954   0.97988   0.35923   0.00000  Uiso   1.00
C139   C     0.96667   0.34968   0.79813   0.00000  Uiso   1.00
C140   C     0.89919   0.34932   0.73093   0.00000  Uiso   1.00
C141   C     0.89089   0.34538   0.66190   0.00000  Uiso   1.00
C142   C     0.82500   0.34575   0.60768   0.00000  Uiso   1.00
C143   C     0.72867   0.34453   0.50114   0.00000  Uiso   1.00
C144   C     0.95215   0.29918   0.82620   0.00000  Uiso   1.00
C145   C     0.98838   0.25309   0.83729   0.00000  Uiso   1.00
C146   C     0.96708   0.21126   0.86327   0.00000  Uiso   1.00
C147   C     0.95300   0.13221   0.90470   0.00000  Uiso   1.00
C148   C     0.97859   0.40579   0.85538   0.00000  Uiso   1.00
C149   C     0.03706   0.44933   0.89101   0.00000  Uiso   1.00
C150   C     0.03802   0.49724   0.94157   0.00000  Uiso   1.00
C151   C     0.06499   0.58372   0.02830   0.00000  Uiso   1.00
C152   C     0.86441   0.35735   0.82458   0.00000  Uiso   1.00
C153   C     0.84365   0.35349   0.74530   0.00000  Uiso   1.00
C154   C     0.77776   0.35387   0.69117   0.00000  Uiso   1.00
C155   C     0.76936   0.34993   0.62207   0.00000  Uiso   1.00
C156   C     0.89661   0.30335   0.84057   0.00000  Uiso   1.00
C157   C     0.87525   0.26158   0.86655   0.00000  Uiso   1.00
C158   C     0.91144   0.21543   0.87766   0.00000  Uiso   1.00
C159   C     0.92305   0.40996   0.86975   0.00000  Uiso   1.00
C160   C     0.92392   0.45781   0.92027   0.00000  Uiso   1.00
C161   C     0.98238   0.50141   0.95597   0.00000  Uiso   1.00
H162   H     0.00991   0.34644   0.78695   0.00000  Uiso   1.00
H163   H     0.93389   0.34215   0.65080   0.00000  Uiso   1.00
H164   H     0.03137   0.24988   0.82617   0.00000  Uiso   1.00
H165   H     0.08003   0.44609   0.87988   0.00000  Uiso   1.00
H166   H     0.82510   0.33922   0.50619   0.00000  Uiso   1.00
H167   H     0.03066   0.14467   0.87598   0.00000  Uiso   1.00
H168   H     0.13328   0.55841   0.98924   0.00000  Uiso   1.00
H169   H     0.82117   0.36060   0.83577   0.00000  Uiso   1.00
H170   H     0.73479   0.35709   0.70230   0.00000  Uiso   1.00
H171   H     0.83227   0.26482   0.87767   0.00000  Uiso   1.00
H172   H     0.88093   0.46102   0.93138   0.00000  Uiso   1.00
H173   H     0.66350   0.35134   0.54799   0.00000  Uiso   1.00
H174   H     0.86906   0.15679   0.91779   0.00000  Uiso   1.00
H175   H     0.97168   0.57053   0.03104   0.00000  Uiso   1.00
O176   O     0.69087   0.34270   0.43841   0.00000  Uiso   1.00
O177   O     0.96057   0.08746   0.92357   0.00000  Uiso   1.00
O178   O     0.09520   0.63028   0.07216   0.00000  Uiso   1.00
N179   N     0.79892   0.34256   0.53435   0.00000  Uiso   1.00
N180   N     0.99110   0.16066   0.88007   0.00000  Uiso   1.00
N181   N     0.08705   0.54747   0.98597   0.00000  Uiso   1.00
N182   N     0.71197   0.34909   0.55684   0.00000  Uiso   1.00
N183   N     0.90415   0.16719   0.90256   0.00000  Uiso   1.00
N184   N     0.00010   0.55399   0.00847   0.00000  Uiso   1.00
C185   C     0.17560   0.88944   0.57302   0.00000  Uiso   1.00
C186   C     0.18576   0.82606   0.55556   0.00000  Uiso   1.00
C187   C     0.18101   0.78451   0.59096   0.00000  Uiso   1.00
C188   C     0.19203   0.72895   0.56686   0.00000  Uiso   1.00
C189   C     0.20545   0.63257   0.54847   0.00000  Uiso   1.00
C190   C     0.11862   0.89773   0.50235   0.00000  Uiso   1.00
C191   C     0.05744   0.91645   0.49302   0.00000  Uiso   1.00
C192   C     0.01195   0.92122   0.42413   0.00000  Uiso   1.00
C193   C     0.92116   0.93615   0.32315   0.00000  Uiso   1.00
C194   C     0.24162   0.92755   0.58867   0.00000  Uiso   1.00
C195   C     0.28385   0.97135   0.65191   0.00000  Uiso   1.00
C196   C     0.34192   0.00123   0.65570   0.00000  Uiso   1.00
C197   C     0.44211   0.06246   0.68875   0.00000  Uiso   1.00
C198   C     0.20362   0.86465   0.46729   0.00000  Uiso   1.00
C199   C     0.20097   0.81260   0.49813   0.00000  Uiso   1.00
C200   C     0.21201   0.75708   0.47398   0.00000  Uiso   1.00
C201   C     0.20728   0.71545   0.50934   0.00000  Uiso   1.00
C202   C     0.13383   0.88426   0.44492   0.00000  Uiso   1.00
C203   C     0.08843   0.88902   0.37604   0.00000  Uiso   1.00
C204   C     0.02719   0.90773   0.36660   0.00000  Uiso   1.00
C205   C     0.25684   0.91408   0.53125   0.00000  Uiso   1.00
C206   C     0.31485   0.94391   0.53494   0.00000  Uiso   1.00
C207   C     0.35717   0.98774   0.59817   0.00000  Uiso   1.00
H208   H     0.16375   0.89993   0.61772   0.00000  Uiso   1.00
H209   H     0.16923   0.79495   0.63539   0.00000  Uiso   1.00
H210   H     0.04568   0.92687   0.53747   0.00000  Uiso   1.00
H211   H     0.27206   0.98175   0.69634   0.00000  Uiso   1.00
H212   H     0.18198   0.67261   0.62964   0.00000  Uiso   1.00
H213   H     0.92148   0.95079   0.42317   0.00000  Uiso   1.00
H214   H     0.39886   0.06654   0.75819   0.00000  Uiso   1.00
H215   H     0.21546   0.85417   0.42258   0.00000  Uiso   1.00
H216   H     0.22378   0.74667   0.42954   0.00000  Uiso   1.00
H217   H     0.10023   0.87859   0.33162   0.00000  Uiso   1.00
H218   H     0.32661   0.93348   0.49049   0.00000  Uiso   1.00
H219   H     0.22626   0.63343   0.46256   0.00000  Uiso   1.00
H220   H     0.96576   0.91162   0.25609   0.00000  Uiso   1.00
H221   H     0.44313   0.02735   0.59111   0.00000  Uiso   1.00
O222   O     0.20863   0.58313   0.55418   0.00000  Uiso   1.00
O223   O     0.86687   0.94810   0.28331   0.00000  Uiso   1.00
O224   O     0.49318   0.09995   0.72284   0.00000  Uiso   1.00
N225   N     0.19128   0.67815   0.58937   0.00000  Uiso   1.00
N226   N     0.94772   0.93822   0.39633   0.00000  Uiso   1.00
N227   N     0.39401   0.04644   0.70954   0.00000  Uiso   1.00
N228   N     0.21510   0.65706   0.49947   0.00000  Uiso   1.00
N229   N     0.97154   0.91714   0.30643   0.00000  Uiso   1.00
N230   N     0.41784   0.02535   0.61963   0.00000  Uiso   1.00
C231   C     0.00840   0.86152   0.10070   0.00000  Uiso   1.00
C232   C     0.95822   0.83348   0.12076   0.00000  Uiso   1.00
C233   C     0.90864   0.85978   0.13266   0.00000  Uiso   1.00
C234   C     0.86776   0.82682   0.15046   0.00000  Uiso   1.00
C235   C     0.78853   0.79196   0.18070   0.00000  Uiso   1.00
C236   C     0.99702   0.82021   0.02996   0.00000  Uiso   1.00
C237   C     0.98007   0.83536   0.96553   0.00000  Uiso   1.00
C238   C     0.97187   0.79123   0.90691   0.00000  Uiso   1.00
C239   C     0.95292   0.73579   0.79621   0.00000  Uiso   1.00
C240   C     0.08064   0.85871   0.15854   0.00000  Uiso   1.00
C241   C     0.13402   0.90622   0.20220   0.00000  Uiso   1.00
C242   C     0.19623   0.89450   0.25182   0.00000  Uiso   1.00
C243   C     0.30712   0.89883   0.34075   0.00000  Uiso   1.00
C244   C     0.02399   0.75622   0.11116   0.00000  Uiso   1.00
C245   C     0.96668   0.77628   0.12644   0.00000  Uiso   1.00
C246   C     0.92588   0.74327   0.14423   0.00000  Uiso   1.00
C247   C     0.87624   0.76952   0.15616   0.00000  Uiso   1.00
C248   C     0.00548   0.76301   0.03565   0.00000  Uiso   1.00
C249   C     0.99731   0.71885   0.97711   0.00000  Uiso   1.00
C250   C     0.98035   0.73393   0.91260   0.00000  Uiso   1.00
C251   C     0.08911   0.80151   0.16422   0.00000  Uiso   1.00
C252   C     0.15125   0.78971   0.21378   0.00000  Uiso   1.00
C253   C     0.20471   0.83720   0.25751   0.00000  Uiso   1.00
H254   H     0.00181   0.90605   0.09627   0.00000  Uiso   1.00
H255   H     0.90210   0.90405   0.12824   0.00000  Uiso   1.00
H256   H     0.97353   0.87963   0.96115   0.00000  Uiso   1.00
H257   H     0.12745   0.95048   0.19779   0.00000  Uiso   1.00
H258   H     0.79526   0.87658   0.16617   0.00000  Uiso   1.00
H259   H     0.94590   0.82511   0.81385   0.00000  Uiso   1.00
H260   H     0.27047   0.97451   0.31285   0.00000  Uiso   1.00
H261   H     0.03058   0.71168   0.11559   0.00000  Uiso   1.00
H262   H     0.93244   0.69900   0.14862   0.00000  Uiso   1.00
H263   H     0.00387   0.67459   0.98153   0.00000  Uiso   1.00
H264   H     0.15779   0.74544   0.21816   0.00000  Uiso   1.00
H265   H     0.81989   0.71017   0.18271   0.00000  Uiso   1.00
H266   H     0.97052   0.65869   0.83039   0.00000  Uiso   1.00
H267   H     0.29509   0.80809   0.32938   0.00000  Uiso   1.00
O268   O     0.74248   0.78854   0.19580   0.00000  Uiso   1.00
O269   O     0.94012   0.72101   0.73358   0.00000  Uiso   1.00
O270   O     0.36595   0.91702   0.38824   0.00000  Uiso   1.00
N271   N     0.81453   0.83916   0.16555   0.00000  Uiso   1.00
N272   N     0.95536   0.79103   0.83614   0.00000  Uiso   1.00
N273   N     0.25881   0.93071   0.30265   0.00000  Uiso   1.00
N274   N     0.82778   0.74961   0.17445   0.00000  Uiso   1.00
N275   N     0.96861   0.70149   0.84504   0.00000  Uiso   1.00
N276   N     0.27206   0.84116   0.31155   0.00000  Uiso   1.00
C277   C     0.65631   0.47391   0.23839   0.00000  Uiso   1.00
C278   C     0.65705   0.53573   0.22811   0.00000  Uiso   1.00
C279   C     0.60752   0.57017   0.22463   0.00000  Uiso   1.00
C280   C     0.61755   0.62551   0.21502   0.00000  Uiso   1.00
C281   C     0.60998   0.71846   0.19999   0.00000  Uiso   1.00
C282   C     0.72467   0.47609   0.30553   0.00000  Uiso   1.00
C283   C     0.73200   0.46038   0.36714   0.00000  Uiso   1.00
C284   C     0.79896   0.46551   0.42269   0.00000  Uiso   1.00
C285   C     0.89636   0.46582   0.52783   0.00000  Uiso   1.00
C286   C     0.65978   0.43529   0.17408   0.00000  Uiso   1.00
C287   C     0.61255   0.38526   0.12518   0.00000  Uiso   1.00
C288   C     0.62488   0.35603   0.07008   0.00000  Uiso   1.00
C289   C     0.62153   0.29299   0.97113   0.00000  Uiso   1.00
C290   C     0.76221   0.51095   0.22750   0.00000  Uiso   1.00
C291   C     0.71458   0.55585   0.22219   0.00000  Uiso   1.00
C292   C     0.72469   0.61116   0.21258   0.00000  Uiso   1.00
C293   C     0.67518   0.64567   0.20909   0.00000  Uiso   1.00
C294   C     0.78219   0.49621   0.29961   0.00000  Uiso   1.00
C295   C     0.84916   0.50136   0.35509   0.00000  Uiso   1.00
C296   C     0.85658   0.48567   0.41677   0.00000  Uiso   1.00
C297   C     0.71730   0.45541   0.16816   0.00000  Uiso   1.00
C298   C     0.72971   0.42625   0.11313   0.00000  Uiso   1.00
C299   C     0.68251   0.37618   0.06415   0.00000  Uiso   1.00
H300   H     0.61153   0.45824   0.24300   0.00000  Uiso   1.00
H301   H     0.56302   0.55458   0.22922   0.00000  Uiso   1.00
H302   H     0.68747   0.44480   0.37169   0.00000  Uiso   1.00
H303   H     0.56804   0.36970   0.12977   0.00000  Uiso   1.00
H304   H     0.53461   0.67028   0.21135   0.00000  Uiso   1.00
H305   H     0.79703   0.43878   0.51177   0.00000  Uiso   1.00
H306   H     0.54519   0.28041   0.00163   0.00000  Uiso   1.00
H307   H     0.80699   0.52662   0.22289   0.00000  Uiso   1.00
H308   H     0.76920   0.62671   0.20800   0.00000  Uiso   1.00
H309   H     0.89366   0.51693   0.35049   0.00000  Uiso   1.00
H310   H     0.77423   0.44183   0.10857   0.00000  Uiso   1.00
H311   H     0.70196   0.72882   0.19414   0.00000  Uiso   1.00
H312   H     0.96438   0.49732   0.49456   0.00000  Uiso   1.00
H313   H     0.71254   0.33895   0.98442   0.00000  Uiso   1.00
O314   O     0.58991   0.76417   0.19334   0.00000  Uiso   1.00
O315   O     0.93420   0.46044   0.58747   0.00000  Uiso   1.00
O316   O     0.60379   0.25266   0.91818   0.00000  Uiso   1.00
N317   N     0.57917   0.67031   0.20933   0.00000  Uiso   1.00
N318   N     0.82452   0.45389   0.49021   0.00000  Uiso   1.00
N319   N     0.58908   0.30581   0.01329   0.00000  Uiso   1.00
N320   N     0.66922   0.70182   0.20007   0.00000  Uiso   1.00
N321   N     0.91457   0.48539   0.48094   0.00000  Uiso   1.00
N322   N     0.67913   0.33732   0.00402   0.00000  Uiso   1.00
C323   C     0.07369   0.53825   0.33827   0.00000  Uiso   1.00
C324   C     0.04721   0.59144   0.36389   0.00000  Uiso   1.00
C325   C     0.04049   0.60418   0.42633   0.00000  Uiso   1.00
C326   C     0.01530   0.65496   0.44024   0.00000  Uiso   1.00
C327   C     0.97693   0.73199   0.48718   0.00000  Uiso   1.00
C328   C     0.13449   0.56254   0.33033   0.00000  Uiso   1.00
C329   C     0.20116   0.55097   0.36454   0.00000  Uiso   1.00
C330   C     0.24944   0.57743   0.35020   0.00000  Uiso   1.00
C331   C     0.34656   0.60956   0.34499   0.00000  Uiso   1.00
C332   C     0.01689   0.50705   0.26143   0.00000  Uiso   1.00
C333   C     0.98469   0.44881   0.23770   0.00000  Uiso   1.00
C334   C     0.93396   0.42853   0.16533   0.00000  Uiso   1.00
C335   C     0.84849   0.37450   0.05315   0.00000  Uiso   1.00
C336   C     0.04088   0.60579   0.25195   0.00000  Uiso   1.00
C337   C     0.02939   0.62813   0.31701   0.00000  Uiso   1.00
C338   C     0.00420   0.67891   0.33083   0.00000  Uiso   1.00
C339   C     0.99744   0.69171   0.39327   0.00000  Uiso   1.00
C340   C     0.11668   0.59923   0.28345   0.00000  Uiso   1.00
C341   C     0.16486   0.62570   0.26904   0.00000  Uiso   1.00
C342   C     0.23159   0.61418   0.30323   0.00000  Uiso   1.00
C343   C     0.99907   0.54373   0.21454   0.00000  Uiso   1.00
C344   C     0.94839   0.52354   0.14220   0.00000  Uiso   1.00
C345   C     0.91611   0.46529   0.11836   0.00000  Uiso   1.00
H346   H     0.08757   0.50968   0.37477   0.00000  Uiso   1.00
H347   H     0.05430   0.57578   0.46260   0.00000  Uiso   1.00
H348   H     0.21493   0.52258   0.40082   0.00000  Uiso   1.00
H349   H     0.99849   0.42043   0.27400   0.00000  Uiso   1.00
H350   H     0.00958   0.66524   0.53932   0.00000  Uiso   1.00
H351   H     0.34828   0.55305   0.40903   0.00000  Uiso   1.00
H352   H     0.89188   0.33766   0.14159   0.00000  Uiso   1.00
H353   H     0.02701   0.63435   0.21544   0.00000  Uiso   1.00
H354   H     0.99041   0.70729   0.29453   0.00000  Uiso   1.00
H355   H     0.15105   0.65409   0.23276   0.00000  Uiso   1.00
H356   H     0.93461   0.55194   0.10593   0.00000  Uiso   1.00
H357   H     0.95773   0.77198   0.40291   0.00000  Uiso   1.00
H358   H     0.29644   0.65979   0.27262   0.00000  Uiso   1.00
H359   H     0.84003   0.44440   0.00519   0.00000  Uiso   1.00
O360   O     0.96069   0.76435   0.52603   0.00000  Uiso   1.00
O361   O     0.40506   0.61715   0.35509   0.00000  Uiso   1.00
O362   O     0.80626   0.33456   0.00422   0.00000  Uiso   1.00
N363   N     0.00238   0.68035   0.49635   0.00000  Uiso   1.00
N364   N     0.31906   0.57546   0.37455   0.00000  Uiso   1.00
N365   N     0.89237   0.37408   0.12452   0.00000  Uiso   1.00
N366   N     0.97448   0.73778   0.42295   0.00000  Uiso   1.00
N367   N     0.29116   0.63290   0.30115   0.00000  Uiso   1.00
N368   N     0.86447   0.43152   0.05112   0.00000  Uiso   1.00
C369   C     0.61416   0.13662   0.48585   0.00000  Uiso   1.00
C370   C     0.69273   0.15391   0.52532   0.00000  Uiso   1.00
C371   C     0.73490   0.14640   0.49335   0.00000  Uiso   1.00
C372   C     0.80553   0.16510   0.53879   0.00000  Uiso   1.00
C373   C     0.92336   0.18812   0.58871   0.00000  Uiso   1.00
C374   C     0.58679   0.19231   0.50227   0.00000  Uiso   1.00
C375   C     0.53989   0.21709   0.45093   0.00000  Uiso   1.00
C376   C     0.52133   0.26811   0.47698   0.00000  Uiso   1.00
C377   C     0.47465   0.35073   0.49112   0.00000  Uiso   1.00
C378   C     0.59751   0.09555   0.52421   0.00000  Uiso   1.00
C379   C     0.55960   0.03896   0.49130   0.00000  Uiso   1.00
C380   C     0.55005   0.00852   0.53581   0.00000  Uiso   1.00
C381   C     0.52002   0.94090   0.58401   0.00000  Uiso   1.00
C382   C     0.66460   0.18317   0.62339   0.00000  Uiso   1.00
C383   C     0.72012   0.17919   0.60003   0.00000  Uiso   1.00
C384   C     0.79071   0.19790   0.64553   0.00000  Uiso   1.00
C385   C     0.83298   0.19042   0.61363   0.00000  Uiso   1.00
C386   C     0.61419   0.21760   0.57698   0.00000  Uiso   1.00
C387   C     0.59569   0.26859   0.60311   0.00000  Uiso   1.00
C388   C     0.54877   0.29344   0.55182   0.00000  Uiso   1.00
C389   C     0.62491   0.12083   0.59892   0.00000  Uiso   1.00
C390   C     0.61541   0.09047   0.64348   0.00000  Uiso   1.00
C391   C     0.57750   0.03385   0.61066   0.00000  Uiso   1.00
H392   H     0.59283   0.11694   0.42768   0.00000  Uiso   1.00
H393   H     0.71368   0.12684   0.43553   0.00000  Uiso   1.00
H394   H     0.51869   0.19751   0.39312   0.00000  Uiso   1.00
H395   H     0.53841   0.01941   0.43349   0.00000  Uiso   1.00
H396   H     0.85975   0.14898   0.47718   0.00000  Uiso   1.00
H397   H     0.44859   0.29799   0.38775   0.00000  Uiso   1.00
H398   H     0.49016   0.92244   0.47287   0.00000  Uiso   1.00
H399   H     0.68592   0.20285   0.68156   0.00000  Uiso   1.00
H400   H     0.81189   0.21747   0.70334   0.00000  Uiso   1.00
H401   H     0.61690   0.28814   0.66092   0.00000  Uiso   1.00
H402   H     0.63662   0.11005   0.70129   0.00000  Uiso   1.00
H403   H     0.93946   0.22254   0.69454   0.00000  Uiso   1.00
H404   H     0.52829   0.37155   0.60511   0.00000  Uiso   1.00
H405   H     0.56987   0.99600   0.69023   0.00000  Uiso   1.00
O406   O     0.98079   0.19385   0.59560   0.00000  Uiso   1.00
O407   O     0.44135   0.38933   0.47827   0.00000  Uiso   1.00
O408   O     0.49590   0.89661   0.58995   0.00000  Uiso   1.00
N409   N     0.86122   0.16428   0.52535   0.00000  Uiso   1.00
N410   N     0.47682   0.30360   0.44174   0.00000  Uiso   1.00
N411   N     0.51567   0.95249   0.52132   0.00000  Uiso   1.00
N412   N     0.90412   0.20386   0.64231   0.00000  Uiso   1.00
N413   N     0.51971   0.34318   0.55870   0.00000  Uiso   1.00
N414   N     0.55856   0.99207   0.63828   0.00000  Uiso   1.00
C415   C     0.14158   0.74937   0.85214   0.00000  Uiso   1.00
C416   C     0.18937   0.73810   0.92505   0.00000  Uiso   1.00
C417   C     0.17193   0.73338   0.97845   0.00000  Uiso   1.00
C418   C     0.22296   0.72300   0.04132   0.00000  Uiso   1.00
C419   C     0.28712   0.70635   0.15316   0.00000  Uiso   1.00
C420   C     0.17848   0.80425   0.84878   0.00000  Uiso   1.00
C421   C     0.15188   0.85515   0.83804   0.00000  Uiso   1.00
C422   C     0.19375   0.90046   0.83669   0.00000  Uiso   1.00
C423   C     0.24099   0.98650   0.83006   0.00000  Uiso   1.00
C424   C     0.14026   0.69890   0.79403   0.00000  Uiso   1.00
C425   C     0.08153   0.66123   0.73725   0.00000  Uiso   1.00
C426   C     0.09122   0.61785   0.68980   0.00000  Uiso   1.00
C427   C     0.07912   0.54032   0.59818   0.00000  Uiso   1.00
C428   C     0.26323   0.73934   0.86882   0.00000  Uiso   1.00
C429   C     0.25544   0.73265   0.93411   0.00000  Uiso   1.00
C430   C     0.30652   0.72227   0.99691   0.00000  Uiso   1.00
C431   C     0.28916   0.71754   0.05040   0.00000  Uiso   1.00
C432   C     0.24455   0.79880   0.85784   0.00000  Uiso   1.00
C433   C     0.28647   0.84405   0.85650   0.00000  Uiso   1.00
C434   C     0.25995   0.89500   0.84576   0.00000  Uiso   1.00
C435   C     0.20634   0.69345   0.80310   0.00000  Uiso   1.00
C436   C     0.21612   0.65013   0.75572   0.00000  Uiso   1.00
C437   C     0.15742   0.61239   0.69888   0.00000  Uiso   1.00
H438   H     0.09014   0.75362   0.84508   0.00000  Uiso   1.00
H439   H     0.12079   0.73760   0.97142   0.00000  Uiso   1.00
H440   H     0.10074   0.85935   0.83102   0.00000  Uiso   1.00
H441   H     0.03040   0.66546   0.73026   0.00000  Uiso   1.00
H442   H     0.18391   0.71746   0.11549   0.00000  Uiso   1.00
H443   H     0.14164   0.97417   0.81943   0.00000  Uiso   1.00
H444   H     0.99331   0.56531   0.60695   0.00000  Uiso   1.00
H445   H     0.31468   0.73510   0.87588   0.00000  Uiso   1.00
H446   H     0.35765   0.71806   0.00391   0.00000  Uiso   1.00
H447   H     0.33760   0.83981   0.86351   0.00000  Uiso   1.00
H448   H     0.26727   0.64592   0.76275   0.00000  Uiso   1.00
H449   H     0.37616   0.70160   0.14187   0.00000  Uiso   1.00
H450   H     0.33388   0.95831   0.84579   0.00000  Uiso   1.00
H451   H     0.18556   0.54945   0.63332   0.00000  Uiso   1.00
O452   O     0.30426   0.69868   0.21236   0.00000  Uiso   1.00
O453   O     0.24879   0.03546   0.82391   0.00000  Uiso   1.00
O454   O     0.05419   0.49905   0.54515   0.00000  Uiso   1.00
N455   N     0.22326   0.71606   0.10413   0.00000  Uiso   1.00
N456   N     0.18373   0.95607   0.82733   0.00000  Uiso   1.00
N457   N     0.04506   0.57383   0.62867   0.00000  Uiso   1.00
N458   N     0.32671   0.70752   0.11831   0.00000  Uiso   1.00
N459   N     0.28718   0.94753   0.84152   0.00000  Uiso   1.00
N460   N     0.14851   0.56529   0.64286   0.00000  Uiso   1.00
C461   C     0.63219   0.95835   0.94639   0.00000  Uiso   1.00
C462   C     0.61414   0.01411   0.97899   0.00000  Uiso   1.00
C463   C     0.56979   0.04801   0.94000   0.00000  Uiso   1.00
C464   C     0.56007   0.09740   0.97990   0.00000  Uiso   1.00
C465   C     0.52698   0.18173   0.01894   0.00000  Uiso   1.00
C466   C     0.71078   0.96907   0.98017   0.00000  Uiso   1.00
C467   C     0.74768   0.96509   0.94216   0.00000  Uiso   1.00
C468   C     0.81932   0.97655   0.98304   0.00000  Uiso   1.00
C469   C     0.93625   0.99091   0.02390   0.00000  Uiso   1.00
C470   C     0.61388   0.91066   0.97609   0.00000  Uiso   1.00
C471   C     0.56932   0.85757   0.93465   0.00000  Uiso   1.00
C472   C     0.55938   0.81984   0.97211   0.00000  Uiso   1.00
C473   C     0.52586   0.74351   0.00664   0.00000  Uiso   1.00
C474   C     0.69379   0.98576   0.08659   0.00000  Uiso   1.00
C475   C     0.64760   0.02899   0.05514   0.00000  Uiso   1.00
C476   C     0.63794   0.07834   0.09511   0.00000  Uiso   1.00
C477   C     0.59359   0.11231   0.05618   0.00000  Uiso   1.00
C478   C     0.74424   0.98395   0.05631   0.00000  Uiso   1.00
C479   C     0.81583   0.99541   0.09727   0.00000  Uiso   1.00
C480   C     0.85283   0.99146   0.05933   0.00000  Uiso   1.00
C481   C     0.64733   0.92554   0.05224   0.00000  Uiso   1.00
C482   C     0.63747   0.88789   0.08977   0.00000  Uiso   1.00
C483   C     0.59290   0.83475   0.04839   0.00000  Uiso   1.00
H484   H     0.60615   0.94676   0.88711   0.00000  Uiso   1.00
H485   H     0.54392   0.03648   0.88107   0.00000  Uiso   1.00
H486   H     0.72178   0.95357   0.88323   0.00000  Uiso   1.00
H487   H     0.54344   0.84606   0.87573   0.00000  Uiso   1.00
H488   H     0.48969   0.14253   0.90796   0.00000  Uiso   1.00
H489   H     0.86472   0.96768   0.91251   0.00000  Uiso   1.00
H490   H     0.48866   0.74098   0.89669   0.00000  Uiso   1.00
H491   H     0.71984   0.99735   0.14588   0.00000  Uiso   1.00
H492   H     0.66384   0.08984   0.15404   0.00000  Uiso   1.00
H493   H     0.84170   0.00693   0.15620   0.00000  Uiso   1.00
H494   H     0.66336   0.89942   0.14869   0.00000  Uiso   1.00
H495   H     0.58703   0.18584   0.12951   0.00000  Uiso   1.00
H496   H     0.96206   0.01099   0.13406   0.00000  Uiso   1.00
H497   H     0.58600   0.78429   0.11824   0.00000  Uiso   1.00
O498   O     0.49949   0.22413   0.01944   0.00000  Uiso   1.00
O499   O     0.99151   0.99472   0.02540   0.00000  Uiso   1.00
O500   O     0.49813   0.69731   0.00465   0.00000  Uiso   1.00
N501   N     0.52027   0.14002   0.95898   0.00000  Uiso   1.00
N502   N     0.87091   0.97656   0.96323   0.00000  Uiso   1.00
N503   N     0.51934   0.76461   0.94844   0.00000  Uiso   1.00
N504   N     0.57265   0.16333   0.07820   0.00000  Uiso   1.00
N505   N     0.92328   0.99986   0.08245   0.00000  Uiso   1.00
N506   N     0.57171   0.78791   0.06766   0.00000  Uiso   1.00
C507   C     0.25420   0.12965   0.60234   0.00000  Uiso   1.00
C508   C     0.30109   0.18642   0.61776   0.00000  Uiso   1.00
C509   C     0.37211   0.19385   0.64438   0.00000  Uiso   1.00
C510   C     0.40566   0.24920   0.65481   0.00000  Uiso   1.00
C511   C     0.48398   0.33033   0.68117   0.00000  Uiso   1.00
C512   C     0.21692   0.14445   0.64677   0.00000  Uiso   1.00
C513   C     0.21717   0.11658   0.69776   0.00000  Uiso   1.00
C514   C     0.17986   0.13660   0.73261   0.00000  Uiso   1.00
C515   C     0.12746   0.15253   0.80396   0.00000  Uiso   1.00
C516   C     0.19889   0.11639   0.52277   0.00000  Uiso   1.00
C517   C     0.18396   0.06493   0.46951   0.00000  Uiso   1.00
C518   C     0.13145   0.06132   0.39996   0.00000  Uiso   1.00
C519   C     0.05106   0.03369   0.27879   0.00000  Uiso   1.00
C520   C     0.18751   0.21473   0.57355   0.00000  Uiso   1.00
C521   C     0.26486   0.23263   0.60212   0.00000  Uiso   1.00
C522   C     0.29832   0.28798   0.61252   0.00000  Uiso   1.00
C523   C     0.36937   0.29550   0.63914   0.00000  Uiso   1.00
C524   C     0.18070   0.19066   0.63113   0.00000  Uiso   1.00
C525   C     0.14337   0.21071   0.66590   0.00000  Uiso   1.00
C526   C     0.14356   0.18289   0.71694   0.00000  Uiso   1.00
C527   C     0.16266   0.16260   0.50713   0.00000  Uiso   1.00
C528   C     0.11017   0.15906   0.43765   0.00000  Uiso   1.00
C529   C     0.09516   0.10761   0.38429   0.00000  Uiso   1.00
H530   H     0.28241   0.09367   0.61452   0.00000  Uiso   1.00
H531   H     0.40013   0.15808   0.65648   0.00000  Uiso   1.00
H532   H     0.24520   0.08082   0.70985   0.00000  Uiso   1.00
H533   H     0.21200   0.02918   0.48163   0.00000  Uiso   1.00
H534   H     0.51467   0.24988   0.69613   0.00000  Uiso   1.00
H535   H     0.18798   0.08695   0.80864   0.00000  Uiso   1.00
H536   H     0.11797   0.97805   0.32740   0.00000  Uiso   1.00
H537   H     0.15930   0.25071   0.56137   0.00000  Uiso   1.00
H538   H     0.27027   0.32374   0.60041   0.00000  Uiso   1.00
H539   H     0.11534   0.24647   0.65379   0.00000  Uiso   1.00
H540   H     0.08214   0.19483   0.42557   0.00000  Uiso   1.00
H541   H     0.40927   0.38433   0.65062   0.00000  Uiso   1.00
H542   H     0.08258   0.22140   0.76314   0.00000  Uiso   1.00
H543   H     0.01257   0.11251   0.28190   0.00000  Uiso   1.00
O544   O     0.53719   0.36231   0.70004   0.00000  Uiso   1.00
O545   O     0.10858   0.14855   0.84764   0.00000  Uiso   1.00
O546   O     0.01673   0.00569   0.21627   0.00000  Uiso   1.00
N547   N     0.47463   0.27149   0.68004   0.00000  Uiso   1.00
N548   N     0.16921   0.11918   0.78525   0.00000  Uiso   1.00
N549   N     0.10374   0.01736   0.33533   0.00000  Uiso   1.00
N550   N     0.41792   0.34384   0.65556   0.00000  Uiso   1.00
N551   N     0.11249   0.19152   0.76076   0.00000  Uiso   1.00
N552   N     0.04703   0.08971   0.31085   0.00000  Uiso   1.00
