data_job_05677
_audit_creation_date              2018-12-19
_audit_creation_method            'Materials Studio'
_symmetry_space_group_name_H-M    'P1'
_symmetry_Int_Tables_number       1
_symmetry_cell_setting            triclinic
loop_
_symmetry_equiv_pos_as_xyz
  x,y,z
_cell_length_a                    12.4515
_cell_length_b                    12.4515
_cell_length_c                    14.5750
_cell_angle_alpha                 90.0000
_cell_angle_beta                  90.0000
_cell_angle_gamma                 120.0000
loop_
_atom_site_label
_atom_site_type_symbol
_atom_site_fract_x
_atom_site_fract_y
_atom_site_fract_z
_atom_site_U_iso_or_equiv
_atom_site_adp_type
_atom_site_occupancy
C1     C     0.29902   0.13238   0.91086   0.00000  Uiso   1.00
C2     C     0.33584   0.05760   0.97305   0.00000  Uiso   1.00
C3     C     0.34678   0.06745   0.06785   0.00000  Uiso   1.00
C4     C     0.38155   0.99089   0.11224   0.00000  Uiso   1.00
C5     C     0.43529   0.88751   0.21621   0.00000  Uiso   1.00
C6     C     0.40378   0.19667   0.84132   0.00000  Uiso   1.00
C7     C     0.47182   0.32344   0.82535   0.00000  Uiso   1.00
C8     C     0.56377   0.36393   0.75884   0.00000  Uiso   1.00
C9     C     0.72292   0.47644   0.65825   0.00000  Uiso   1.00
C10    C     0.18645   0.03769   0.85671   0.00000  Uiso   1.00
C11    C     0.07176   0.03080   0.85366   0.00000  Uiso   1.00
C12    C     0.98074   0.93745   0.80008   0.00000  Uiso   1.00
C13    C     0.80245   0.80313   0.72339   0.00000  Uiso   1.00
C14    C     0.34132   0.97889   0.82111   0.00000  Uiso   1.00
C15    C     0.35882   0.97424   0.92430   0.00000  Uiso   1.00
C16    C     0.39358   0.89764   0.96855   0.00000  Uiso   1.00
C17    C     0.40457   0.90737   0.06340   0.00000  Uiso   1.00
C18    C     0.42676   0.11331   0.79257   0.00000  Uiso   1.00
C19    C     0.51862   0.15362   0.72606   0.00000  Uiso   1.00
C20    C     0.58679   0.28041   0.71000   0.00000  Uiso   1.00
C21    C     0.20942   0.95432   0.80796   0.00000  Uiso   1.00
C22    C     0.11856   0.86098   0.75437   0.00000  Uiso   1.00
C23    C     0.00376   0.85394   0.75124   0.00000  Uiso   1.00
H24    H     0.28114   0.19729   0.94881   0.00000  Uiso   1.00
H25    H     0.32900   0.13199   0.10555   0.00000  Uiso   1.00
H26    H     0.45401   0.38792   0.86308   0.00000  Uiso   1.00
H27    H     0.05401   0.09533   0.89139   0.00000  Uiso   1.00
H28    H     0.39224   0.02286   0.25782   0.00000  Uiso   1.00
H29    H     0.65581   0.56251   0.74655   0.00000  Uiso   1.00
H30    H     0.81233   0.94552   0.80624   0.00000  Uiso   1.00
H31    H     0.35921   0.91399   0.78316   0.00000  Uiso   1.00
H32    H     0.41136   0.83313   0.93081   0.00000  Uiso   1.00
H33    H     0.53637   0.08908   0.68835   0.00000  Uiso   1.00
H34    H     0.13638   0.79648   0.71665   0.00000  Uiso   1.00
H35    H     0.45909   0.78030   0.11600   0.00000  Uiso   1.00
H36    H     0.72266   0.31996   0.60472   0.00000  Uiso   1.00
H37    H     0.87919   0.70296   0.66442   0.00000  Uiso   1.00
O38    O     0.45860   0.85354   0.28703   0.00000  Uiso   1.00
O39    O     0.80437   0.56154   0.61624   0.00000  Uiso   1.00
O40    O     0.69776   0.75205   0.69456   0.00000  Uiso   1.00
N41    N     0.40079   0.97685   0.20418   0.00000  Uiso   1.00
N42    N     0.64723   0.48140   0.72618   0.00000  Uiso   1.00
N43    N     0.85866   0.90458   0.78197   0.00000  Uiso   1.00
N44    N     0.43676   0.84633   0.12787   0.00000  Uiso   1.00
N45    N     0.68320   0.35088   0.64987   0.00000  Uiso   1.00
N46    N     0.89463   0.77406   0.70565   0.00000  Uiso   1.00
C47    C     0.86762   0.16664   0.57753   0.00000  Uiso   1.00
C48    C     0.94240   0.27823   0.63972   0.00000  Uiso   1.00
C49    C     0.93255   0.27933   0.73452   0.00000  Uiso   1.00
C50    C     0.00911   0.39066   0.77890   0.00000  Uiso   1.00
C51    C     0.11249   0.54778   0.88288   0.00000  Uiso   1.00
C52    C     0.80333   0.20711   0.50799   0.00000  Uiso   1.00
C53    C     0.67656   0.14838   0.49202   0.00000  Uiso   1.00
C54    C     0.63607   0.19984   0.42550   0.00000  Uiso   1.00
C55    C     0.52356   0.24648   0.32492   0.00000  Uiso   1.00
C56    C     0.96231   0.14876   0.52338   0.00000  Uiso   1.00
C57    C     0.96920   0.04096   0.52033   0.00000  Uiso   1.00
C58    C     0.06255   0.04329   0.46675   0.00000  Uiso   1.00
C59    C     0.19687   0.99932   0.39006   0.00000  Uiso   1.00
C60    C     0.02111   0.36243   0.48778   0.00000  Uiso   1.00
C61    C     0.02576   0.38458   0.59097   0.00000  Uiso   1.00
C62    C     0.10236   0.49594   0.63522   0.00000  Uiso   1.00
C63    C     0.09263   0.49720   0.73007   0.00000  Uiso   1.00
C64    C     0.88669   0.31345   0.45924   0.00000  Uiso   1.00
C65    C     0.84638   0.36500   0.39273   0.00000  Uiso   1.00
C66    C     0.71959   0.30638   0.37667   0.00000  Uiso   1.00
C67    C     0.04568   0.25510   0.47463   0.00000  Uiso   1.00
C68    C     0.13902   0.25759   0.42104   0.00000  Uiso   1.00
C69    C     0.14606   0.14982   0.41791   0.00000  Uiso   1.00
H70    H     0.80271   0.08385   0.61548   0.00000  Uiso   1.00
H71    H     0.86801   0.19701   0.77222   0.00000  Uiso   1.00
H72    H     0.61208   0.06608   0.52975   0.00000  Uiso   1.00
H73    H     0.90467   0.95869   0.55806   0.00000  Uiso   1.00
H74    H     0.97714   0.36938   0.92449   0.00000  Uiso   1.00
H75    H     0.43749   0.09329   0.41321   0.00000  Uiso   1.00
H76    H     0.05448   0.86682   0.47290   0.00000  Uiso   1.00
H77    H     0.08601   0.44523   0.44983   0.00000  Uiso   1.00
H78    H     0.16687   0.57822   0.59748   0.00000  Uiso   1.00
H79    H     0.91092   0.44730   0.35501   0.00000  Uiso   1.00
H80    H     0.20352   0.33990   0.38332   0.00000  Uiso   1.00
H81    H     0.21970   0.67879   0.78267   0.00000  Uiso   1.00
H82    H     0.68004   0.40270   0.27139   0.00000  Uiso   1.00
H83    H     0.29704   0.17623   0.33108   0.00000  Uiso   1.00
O84    O     0.14646   0.60506   0.95369   0.00000  Uiso   1.00
O85    O     0.43846   0.24283   0.28291   0.00000  Uiso   1.00
O86    O     0.24795   0.94571   0.36123   0.00000  Uiso   1.00
N87    N     0.02315   0.42394   0.87085   0.00000  Uiso   1.00
N88    N     0.51860   0.16583   0.39285   0.00000  Uiso   1.00
N89    N     0.09542   0.95408   0.44863   0.00000  Uiso   1.00
N90    N     0.15367   0.59043   0.79454   0.00000  Uiso   1.00
N91    N     0.64912   0.33232   0.31653   0.00000  Uiso   1.00
N92    N     0.22594   0.12057   0.37232   0.00000  Uiso   1.00
C93    C     0.83336   0.70098   0.24420   0.00000  Uiso   1.00
C94    C     0.72177   0.66416   0.30639   0.00000  Uiso   1.00
C95    C     0.72067   0.65322   0.40118   0.00000  Uiso   1.00
C96    C     0.60934   0.61845   0.44557   0.00000  Uiso   1.00
C97    C     0.45222   0.56471   0.54954   0.00000  Uiso   1.00
C98    C     0.79289   0.59622   0.17465   0.00000  Uiso   1.00
C99    C     0.85162   0.52818   0.15869   0.00000  Uiso   1.00
C100   C     0.80016   0.43623   0.09217   0.00000  Uiso   1.00
C101   C     0.75352   0.27708   0.99158   0.00000  Uiso   1.00
C102   C     0.85124   0.81355   0.19004   0.00000  Uiso   1.00
C103   C     0.95904   0.92824   0.18699   0.00000  Uiso   1.00
C104   C     0.95671   0.01926   0.13341   0.00000  Uiso   1.00
C105   C     0.00068   0.19755   0.05672   0.00000  Uiso   1.00
C106   C     0.63757   0.65868   0.15445   0.00000  Uiso   1.00
C107   C     0.61542   0.64118   0.25763   0.00000  Uiso   1.00
C108   C     0.50406   0.60642   0.30189   0.00000  Uiso   1.00
C109   C     0.50280   0.59543   0.39674   0.00000  Uiso   1.00
C110   C     0.68655   0.57324   0.12591   0.00000  Uiso   1.00
C111   C     0.63500   0.48138   0.05939   0.00000  Uiso   1.00
C112   C     0.69362   0.41321   0.04333   0.00000  Uiso   1.00
C113   C     0.74490   0.79058   0.14130   0.00000  Uiso   1.00
C114   C     0.74241   0.88144   0.08770   0.00000  Uiso   1.00
C115   C     0.85018   0.99624   0.08458   0.00000  Uiso   1.00
H116   H     0.91615   0.71886   0.28214   0.00000  Uiso   1.00
H117   H     0.80299   0.67100   0.43888   0.00000  Uiso   1.00
H118   H     0.93392   0.54599   0.19642   0.00000  Uiso   1.00
H119   H     0.04131   0.94599   0.22472   0.00000  Uiso   1.00
H120   H     0.63062   0.60776   0.59116   0.00000  Uiso   1.00
H121   H     0.90671   0.34419   0.07988   0.00000  Uiso   1.00
H122   H     0.13318   0.18767   0.13957   0.00000  Uiso   1.00
H123   H     0.55477   0.64079   0.11649   0.00000  Uiso   1.00
H124   H     0.42178   0.58864   0.26415   0.00000  Uiso   1.00
H125   H     0.55270   0.46363   0.02168   0.00000  Uiso   1.00
H126   H     0.66010   0.86362   0.04999   0.00000  Uiso   1.00
H127   H     0.32121   0.54091   0.44933   0.00000  Uiso   1.00
H128   H     0.59730   0.27734   0.93805   0.00000  Uiso   1.00
H129   H     0.82377   0.12081   0.99775   0.00000  Uiso   1.00
O130   O     0.39494   0.54140   0.62036   0.00000  Uiso   1.00
O131   O     0.75717   0.19563   0.94958   0.00000  Uiso   1.00
O132   O     0.05429   0.30224   0.02790   0.00000  Uiso   1.00
N133   N     0.57606   0.59921   0.53752   0.00000  Uiso   1.00
N134   N     0.83417   0.35277   0.05951   0.00000  Uiso   1.00
N135   N     0.04592   0.14134   0.11530   0.00000  Uiso   1.00
N136   N     0.40957   0.56324   0.46120   0.00000  Uiso   1.00
N137   N     0.66768   0.31680   0.98320   0.00000  Uiso   1.00
N138   N     0.87943   0.10537   0.03899   0.00000  Uiso   1.00
