data_job_06017
_audit_creation_date              2018-12-19
_audit_creation_method            'Materials Studio'
_symmetry_space_group_name_H-M    'P1'
_symmetry_Int_Tables_number       1
_symmetry_cell_setting            triclinic
loop_
_symmetry_equiv_pos_as_xyz
  x,y,z
_cell_length_a                    16.0856
_cell_length_b                    15.9227
_cell_length_c                    15.1433
_cell_angle_alpha                 81.1315
_cell_angle_beta                  81.0316
_cell_angle_gamma                 79.4084
loop_
_atom_site_label
_atom_site_type_symbol
_atom_site_fract_x
_atom_site_fract_y
_atom_site_fract_z
_atom_site_U_iso_or_equiv
_atom_site_adp_type
_atom_site_occupancy
C1     C     0.52741   0.11498   0.78198   0.00000  Uiso   1.00
C2     C     0.61528   0.11798   0.80615   0.00000  Uiso   1.00
C3     C     0.63265   0.17049   0.86378   0.00000  Uiso   1.00
C4     C     0.71722   0.16365   0.87712   0.00000  Uiso   1.00
C5     C     0.84381   0.17706   0.92113   0.00000  Uiso   1.00
C6     C     0.53471   0.13323   0.67945   0.00000  Uiso   1.00
C7     C     0.48434   0.19855   0.63056   0.00000  Uiso   1.00
C8     C     0.50109   0.20454   0.53724   0.00000  Uiso   1.00
C9     C     0.50255   0.24158   0.38455   0.00000  Uiso   1.00
C10    C     0.51399   0.02143   0.80632   0.00000  Uiso   1.00
C11    C     0.44618   0.99276   0.86410   0.00000  Uiso   1.00
C12    C     0.44547   0.90463   0.87759   0.00000  Uiso   1.00
C13    C     0.41475   0.76809   0.92189   0.00000  Uiso   1.00
C14    C     0.64670   0.00947   0.70317   0.00000  Uiso   1.00
C15    C     0.68007   0.06067   0.76334   0.00000  Uiso   1.00
C16    C     0.76463   0.05375   0.77660   0.00000  Uiso   1.00
C17    C     0.78213   0.10624   0.83425   0.00000  Uiso   1.00
C18    C     0.59951   0.07592   0.63664   0.00000  Uiso   1.00
C19    C     0.61632   0.08181   0.54338   0.00000  Uiso   1.00
C20    C     0.56600   0.14713   0.49436   0.00000  Uiso   1.00
C21    C     0.57878   0.96412   0.76352   0.00000  Uiso   1.00
C22    C     0.57817   0.87602   0.77692   0.00000  Uiso   1.00
C23    C     0.51037   0.84721   0.83471   0.00000  Uiso   1.00
H24    H     0.47697   0.15960   0.81529   0.00000  Uiso   1.00
H25    H     0.58249   0.21484   0.89689   0.00000  Uiso   1.00
H26    H     0.43420   0.24288   0.66370   0.00000  Uiso   1.00
H27    H     0.39605   0.03713   0.89721   0.00000  Uiso   1.00
H28    H     0.72807   0.25082   0.96845   0.00000  Uiso   1.00
H29    H     0.41537   0.30995   0.47677   0.00000  Uiso   1.00
H30    H     0.33492   0.87607   0.96916   0.00000  Uiso   1.00
H31    H     0.69715   0.96485   0.66985   0.00000  Uiso   1.00
H32    H     0.81476   0.00939   0.74347   0.00000  Uiso   1.00
H33    H     0.66647   0.03745   0.51028   0.00000  Uiso   1.00
H34    H     0.62832   0.83169   0.74379   0.00000  Uiso   1.00
H35    H     0.91659   0.08408   0.84392   0.00000  Uiso   1.00
H36    H     0.60388   0.14321   0.35224   0.00000  Uiso   1.00
H37    H     0.52343   0.70932   0.84463   0.00000  Uiso   1.00
O38    O     0.89573   0.20029   0.95722   0.00000  Uiso   1.00
O39    O     0.48547   0.27785   0.31215   0.00000  Uiso   1.00
O40    O     0.37992   0.70861   0.95816   0.00000  Uiso   1.00
N41    N     0.75630   0.20545   0.92905   0.00000  Uiso   1.00
N42    N     0.46395   0.26074   0.46936   0.00000  Uiso   1.00
N43    N     0.38872   0.85510   0.92968   0.00000  Uiso   1.00
N44    N     0.85773   0.11573   0.86205   0.00000  Uiso   1.00
N45    N     0.56539   0.17102   0.40235   0.00000  Uiso   1.00
N46    N     0.49016   0.76538   0.86268   0.00000  Uiso   1.00
C47    C     0.77400   0.52429   0.11256   0.00000  Uiso   1.00
C48    C     0.79399   0.61306   0.11859   0.00000  Uiso   1.00
C49    C     0.84648   0.63096   0.17544   0.00000  Uiso   1.00
C50    C     0.85661   0.71633   0.17082   0.00000  Uiso   1.00
C51    C     0.89385   0.84427   0.18925   0.00000  Uiso   1.00
C52    C     0.67708   0.53237   0.13006   0.00000  Uiso   1.00
C53    C     0.63128   0.48241   0.19653   0.00000  Uiso   1.00
C54    C     0.54299   0.49985   0.20156   0.00000  Uiso   1.00
C55    C     0.39871   0.50247   0.23774   0.00000  Uiso   1.00
C56    C     0.79928   0.50954   0.01416   0.00000  Uiso   1.00
C57    C     0.85621   0.44038   0.98317   0.00000  Uiso   1.00
C58    C     0.87079   0.43858   0.89061   0.00000  Uiso   1.00
C59    C     0.91626   0.40576   0.74684   0.00000  Uiso   1.00
C60    C     0.69864   0.64407   0.00328   0.00000  Uiso   1.00
C61    C     0.75306   0.67812   0.05924   0.00000  Uiso   1.00
C62    C     0.76311   0.76348   0.05453   0.00000  Uiso   1.00
C63    C     0.81561   0.78150   0.11136   0.00000  Uiso   1.00
C64    C     0.63615   0.59742   0.07070   0.00000  Uiso   1.00
C65    C     0.54790   0.61493   0.07563   0.00000  Uiso   1.00
C66    C     0.50198   0.56502   0.14209   0.00000  Uiso   1.00
C67    C     0.75835   0.57460   0.95479   0.00000  Uiso   1.00
C68    C     0.77284   0.57290   0.86227   0.00000  Uiso   1.00
C69    C     0.82979   0.50376   0.83115   0.00000  Uiso   1.00
H70    H     0.80586   0.47364   0.15878   0.00000  Uiso   1.00
H71    H     0.87814   0.58060   0.22137   0.00000  Uiso   1.00
H72    H     0.66297   0.43207   0.24245   0.00000  Uiso   1.00
H73    H     0.88787   0.39005   0.02913   0.00000  Uiso   1.00
H74    H     0.94020   0.72787   0.26461   0.00000  Uiso   1.00
H75    H     0.48650   0.41467   0.30905   0.00000  Uiso   1.00
H76    H     0.96075   0.32605   0.85921   0.00000  Uiso   1.00
H77    H     0.66677   0.69472   0.95707   0.00000  Uiso   1.00
H78    H     0.73143   0.81381   0.00859   0.00000  Uiso   1.00
H79    H     0.51625   0.66528   0.02968   0.00000  Uiso   1.00
H80    H     0.74116   0.62326   0.81635   0.00000  Uiso   1.00
H81    H     0.82112   0.91715   0.09192   0.00000  Uiso   1.00
H82    H     0.36742   0.60395   0.13635   0.00000  Uiso   1.00
H83    H     0.84167   0.51534   0.68651   0.00000  Uiso   1.00
O84    O     0.92568   0.89687   0.21582   0.00000  Uiso   1.00
O85    O     0.33044   0.48594   0.27410   0.00000  Uiso   1.00
O86    O     0.95265   0.36969   0.68393   0.00000  Uiso   1.00
N87    N     0.90332   0.75607   0.21688   0.00000  Uiso   1.00
N88    N     0.47913   0.46325   0.25844   0.00000  Uiso   1.00
N89    N     0.92250   0.38040   0.83788   0.00000  Uiso   1.00
N90    N     0.83924   0.85792   0.12396   0.00000  Uiso   1.00
N91    N     0.41506   0.56511   0.16551   0.00000  Uiso   1.00
N92    N     0.85843   0.48225   0.74495   0.00000  Uiso   1.00
C93    C     0.11283   0.77480   0.51861   0.00000  Uiso   1.00
C94    C     0.11599   0.79600   0.61274   0.00000  Uiso   1.00
C95    C     0.16742   0.84902   0.63409   0.00000  Uiso   1.00
C96    C     0.16095   0.86026   0.72417   0.00000  Uiso   1.00
C97    C     0.17439   0.89928   0.86025   0.00000  Uiso   1.00
C98    C     0.13201   0.67681   0.52477   0.00000  Uiso   1.00
C99    C     0.19691   0.62962   0.47215   0.00000  Uiso   1.00
C100   C     0.20391   0.54052   0.48817   0.00000  Uiso   1.00
C101   C     0.24220   0.39451   0.48762   0.00000  Uiso   1.00
C102   C     0.01994   0.80066   0.50193   0.00000  Uiso   1.00
C103   C     0.99060   0.85757   0.43010   0.00000  Uiso   1.00
C104   C     0.90325   0.87273   0.42688   0.00000  Uiso   1.00
C105   C     0.76753   0.91899   0.39088   0.00000  Uiso   1.00
C106   C     0.00988   0.70049   0.64060   0.00000  Uiso   1.00
C107   C     0.06007   0.75564   0.67899   0.00000  Uiso   1.00
C108   C     0.05352   0.76680   0.76906   0.00000  Uiso   1.00
C109   C     0.10493   0.81982   0.79055   0.00000  Uiso   1.00
C110   C     0.07610   0.63645   0.59102   0.00000  Uiso   1.00
C111   C     0.08301   0.54740   0.60712   0.00000  Uiso   1.00
C112   C     0.14790   0.50008   0.55455   0.00000  Uiso   1.00
C113   C     0.96402   0.76029   0.56819   0.00000  Uiso   1.00
C114   C     0.87670   0.77535   0.56508   0.00000  Uiso   1.00
C115   C     0.84724   0.83229   0.49326   0.00000  Uiso   1.00
H116   H     0.15636   0.80622   0.46702   0.00000  Uiso   1.00
H117   H     0.21069   0.88024   0.58280   0.00000  Uiso   1.00
H118   H     0.24016   0.66088   0.42087   0.00000  Uiso   1.00
H119   H     0.03389   0.88880   0.37884   0.00000  Uiso   1.00
H120   H     0.24628   0.94447   0.74038   0.00000  Uiso   1.00
H121   H     0.30841   0.48193   0.39893   0.00000  Uiso   1.00
H122   H     0.87345   0.96255   0.31029   0.00000  Uiso   1.00
H123   H     0.96634   0.66906   0.69219   0.00000  Uiso   1.00
H124   H     0.01024   0.73555   0.82032   0.00000  Uiso   1.00
H125   H     0.03972   0.51619   0.65840   0.00000  Uiso   1.00
H126   H     0.83345   0.74411   0.61636   0.00000  Uiso   1.00
H127   H     0.08359   0.82704   0.93316   0.00000  Uiso   1.00
H128   H     0.14573   0.36450   0.59171   0.00000  Uiso   1.00
H129   H     0.71076   0.84511   0.50308   0.00000  Uiso   1.00
O130   O     0.19726   0.93195   0.91700   0.00000  Uiso   1.00
O131   O     0.27877   0.32512   0.46903   0.00000  Uiso   1.00
O132   O     0.70811   0.95567   0.35273   0.00000  Uiso   1.00
N133   N     0.20195   0.90772   0.76816   0.00000  Uiso   1.00
N134   N     0.26006   0.47528   0.44894   0.00000  Uiso   1.00
N135   N     0.85341   0.92459   0.36606   0.00000  Uiso   1.00
N136   N     0.11441   0.84453   0.87190   0.00000  Uiso   1.00
N137   N     0.17251   0.41209   0.55268   0.00000  Uiso   1.00
N138   N     0.76586   0.86140   0.46979   0.00000  Uiso   1.00
C139   C     0.47259   0.88502   0.21802   0.00000  Uiso   1.00
C140   C     0.38472   0.88202   0.19385   0.00000  Uiso   1.00
C141   C     0.36735   0.82951   0.13622   0.00000  Uiso   1.00
C142   C     0.28278   0.83635   0.12288   0.00000  Uiso   1.00
C143   C     0.15619   0.82294   0.07887   0.00000  Uiso   1.00
C144   C     0.46528   0.86677   0.32055   0.00000  Uiso   1.00
C145   C     0.51566   0.80145   0.36944   0.00000  Uiso   1.00
C146   C     0.49891   0.79546   0.46275   0.00000  Uiso   1.00
C147   C     0.49745   0.75842   0.61545   0.00000  Uiso   1.00
C148   C     0.48601   0.97857   0.19368   0.00000  Uiso   1.00
C149   C     0.55382   0.00724   0.13590   0.00000  Uiso   1.00
C150   C     0.55453   0.09537   0.12241   0.00000  Uiso   1.00
C151   C     0.58525   0.23191   0.07811   0.00000  Uiso   1.00
C152   C     0.35330   0.99053   0.29683   0.00000  Uiso   1.00
C153   C     0.31993   0.93933   0.23666   0.00000  Uiso   1.00
C154   C     0.23537   0.94625   0.22340   0.00000  Uiso   1.00
C155   C     0.21787   0.89376   0.16575   0.00000  Uiso   1.00
C156   C     0.40049   0.92408   0.36336   0.00000  Uiso   1.00
C157   C     0.38368   0.91819   0.45662   0.00000  Uiso   1.00
C158   C     0.43400   0.85287   0.50564   0.00000  Uiso   1.00
C159   C     0.42122   0.03588   0.23648   0.00000  Uiso   1.00
C160   C     0.42183   0.12398   0.22308   0.00000  Uiso   1.00
C161   C     0.48963   0.15279   0.16529   0.00000  Uiso   1.00
H162   H     0.52303   0.84040   0.18471   0.00000  Uiso   1.00
H163   H     0.41751   0.78516   0.10311   0.00000  Uiso   1.00
H164   H     0.56580   0.75712   0.33630   0.00000  Uiso   1.00
H165   H     0.60395   0.96287   0.10279   0.00000  Uiso   1.00
H166   H     0.27193   0.74918   0.03155   0.00000  Uiso   1.00
H167   H     0.58463   0.69005   0.52323   0.00000  Uiso   1.00
H168   H     0.66508   0.12393   0.03084   0.00000  Uiso   1.00
H169   H     0.30285   0.03515   0.33015   0.00000  Uiso   1.00
H170   H     0.18524   0.99061   0.25653   0.00000  Uiso   1.00
H171   H     0.33353   0.96255   0.48972   0.00000  Uiso   1.00
H172   H     0.37168   0.16831   0.25621   0.00000  Uiso   1.00
H173   H     0.08341   0.91592   0.15608   0.00000  Uiso   1.00
H174   H     0.39612   0.85679   0.64776   0.00000  Uiso   1.00
H175   H     0.47656   0.29068   0.15537   0.00000  Uiso   1.00
O176   O     0.10427   0.79971   0.04278   0.00000  Uiso   1.00
O177   O     0.51453   0.72215   0.68785   0.00000  Uiso   1.00
O178   O     0.62008   0.29139   0.04184   0.00000  Uiso   1.00
N179   N     0.24370   0.79455   0.07095   0.00000  Uiso   1.00
N180   N     0.53605   0.73926   0.53064   0.00000  Uiso   1.00
N181   N     0.61128   0.14490   0.07032   0.00000  Uiso   1.00
N182   N     0.14227   0.88427   0.13795   0.00000  Uiso   1.00
N183   N     0.43461   0.82898   0.59765   0.00000  Uiso   1.00
N184   N     0.50984   0.23462   0.13732   0.00000  Uiso   1.00
C185   C     0.22600   0.47571   0.88744   0.00000  Uiso   1.00
C186   C     0.20601   0.38694   0.88141   0.00000  Uiso   1.00
C187   C     0.15351   0.36904   0.82456   0.00000  Uiso   1.00
C188   C     0.14339   0.28367   0.82918   0.00000  Uiso   1.00
C189   C     0.10615   0.15573   0.81075   0.00000  Uiso   1.00
C190   C     0.32292   0.46763   0.86994   0.00000  Uiso   1.00
C191   C     0.36872   0.51759   0.80347   0.00000  Uiso   1.00
C192   C     0.45701   0.50015   0.79844   0.00000  Uiso   1.00
C193   C     0.60129   0.49753   0.76226   0.00000  Uiso   1.00
C194   C     0.20072   0.49046   0.98584   0.00000  Uiso   1.00
C195   C     0.14379   0.55962   0.01683   0.00000  Uiso   1.00
C196   C     0.12921   0.56142   0.10939   0.00000  Uiso   1.00
C197   C     0.08374   0.59424   0.25316   0.00000  Uiso   1.00
C198   C     0.30136   0.35593   0.99672   0.00000  Uiso   1.00
C199   C     0.24694   0.32188   0.94076   0.00000  Uiso   1.00
C200   C     0.23689   0.23652   0.94547   0.00000  Uiso   1.00
C201   C     0.18439   0.21850   0.88864   0.00000  Uiso   1.00
C202   C     0.36385   0.40258   0.92930   0.00000  Uiso   1.00
C203   C     0.45210   0.38507   0.92437   0.00000  Uiso   1.00
C204   C     0.49802   0.43498   0.85791   0.00000  Uiso   1.00
C205   C     0.24165   0.42540   0.04521   0.00000  Uiso   1.00
C206   C     0.22716   0.42710   0.13773   0.00000  Uiso   1.00
C207   C     0.17021   0.49624   0.16885   0.00000  Uiso   1.00
H208   H     0.19414   0.52636   0.84122   0.00000  Uiso   1.00
H209   H     0.12186   0.41940   0.77863   0.00000  Uiso   1.00
H210   H     0.33703   0.56793   0.75755   0.00000  Uiso   1.00
H211   H     0.11213   0.60995   0.97087   0.00000  Uiso   1.00
H212   H     0.05979   0.27213   0.73539   0.00000  Uiso   1.00
H213   H     0.51350   0.58533   0.69095   0.00000  Uiso   1.00
H214   H     0.03925   0.67395   0.14079   0.00000  Uiso   1.00
H215   H     0.33323   0.30528   0.04293   0.00000  Uiso   1.00
H216   H     0.26857   0.18619   0.99141   0.00000  Uiso   1.00
H217   H     0.48375   0.33472   0.97032   0.00000  Uiso   1.00
H218   H     0.25884   0.37674   0.18365   0.00000  Uiso   1.00
H219   H     0.17888   0.08285   0.90808   0.00000  Uiso   1.00
H220   H     0.63258   0.39605   0.86365   0.00000  Uiso   1.00
H221   H     0.15833   0.48466   0.31349   0.00000  Uiso   1.00
O222   O     0.07432   0.10313   0.78418   0.00000  Uiso   1.00
O223   O     0.66956   0.51406   0.72590   0.00000  Uiso   1.00
O224   O     0.04735   0.63031   0.31607   0.00000  Uiso   1.00
N225   N     0.09668   0.24393   0.78312   0.00000  Uiso   1.00
N226   N     0.52087   0.53675   0.74156   0.00000  Uiso   1.00
N227   N     0.07750   0.61960   0.16212   0.00000  Uiso   1.00
N228   N     0.16076   0.14208   0.87604   0.00000  Uiso   1.00
N229   N     0.58494   0.43489   0.83449   0.00000  Uiso   1.00
N230   N     0.14157   0.51775   0.25505   0.00000  Uiso   1.00
C231   C     0.88717   0.22520   0.48139   0.00000  Uiso   1.00
C232   C     0.88401   0.20400   0.38726   0.00000  Uiso   1.00
C233   C     0.83258   0.15098   0.36591   0.00000  Uiso   1.00
C234   C     0.83905   0.13974   0.27583   0.00000  Uiso   1.00
C235   C     0.82561   0.10072   0.13975   0.00000  Uiso   1.00
C236   C     0.86799   0.32319   0.47523   0.00000  Uiso   1.00
C237   C     0.80309   0.37038   0.52785   0.00000  Uiso   1.00
C238   C     0.79609   0.45948   0.51183   0.00000  Uiso   1.00
C239   C     0.75780   0.60549   0.51238   0.00000  Uiso   1.00
C240   C     0.98006   0.19934   0.49807   0.00000  Uiso   1.00
C241   C     0.00940   0.14243   0.56990   0.00000  Uiso   1.00
C242   C     0.09675   0.12727   0.57312   0.00000  Uiso   1.00
C243   C     0.23247   0.08101   0.60911   0.00000  Uiso   1.00
C244   C     0.99012   0.29951   0.35940   0.00000  Uiso   1.00
C245   C     0.93993   0.24436   0.32101   0.00000  Uiso   1.00
C246   C     0.94648   0.23320   0.23094   0.00000  Uiso   1.00
C247   C     0.89507   0.18018   0.20945   0.00000  Uiso   1.00
C248   C     0.92390   0.36355   0.40898   0.00000  Uiso   1.00
C249   C     0.91699   0.45260   0.39288   0.00000  Uiso   1.00
C250   C     0.85210   0.49992   0.44545   0.00000  Uiso   1.00
C251   C     0.03598   0.23971   0.43181   0.00000  Uiso   1.00
C252   C     0.12330   0.22465   0.43492   0.00000  Uiso   1.00
C253   C     0.15276   0.16771   0.50674   0.00000  Uiso   1.00
H254   H     0.84364   0.19378   0.53298   0.00000  Uiso   1.00
H255   H     0.78931   0.11976   0.41720   0.00000  Uiso   1.00
H256   H     0.75984   0.33912   0.57913   0.00000  Uiso   1.00
H257   H     0.96611   0.11120   0.62116   0.00000  Uiso   1.00
H258   H     0.75372   0.05553   0.25962   0.00000  Uiso   1.00
H259   H     0.69159   0.51807   0.60107   0.00000  Uiso   1.00
H260   H     0.12655   0.03745   0.68971   0.00000  Uiso   1.00
H261   H     0.03366   0.33094   0.30781   0.00000  Uiso   1.00
H262   H     0.98976   0.26445   0.17968   0.00000  Uiso   1.00
H263   H     0.96028   0.48381   0.34160   0.00000  Uiso   1.00
H264   H     0.16655   0.25589   0.38364   0.00000  Uiso   1.00
H265   H     0.91641   0.17296   0.06684   0.00000  Uiso   1.00
H266   H     0.85427   0.63550   0.40829   0.00000  Uiso   1.00
H267   H     0.28924   0.15489   0.49692   0.00000  Uiso   1.00
O268   O     0.80274   0.06805   0.08300   0.00000  Uiso   1.00
O269   O     0.72123   0.67488   0.53097   0.00000  Uiso   1.00
O270   O     0.29189   0.04433   0.64727   0.00000  Uiso   1.00
N271   N     0.79805   0.09228   0.23184   0.00000  Uiso   1.00
N272   N     0.73994   0.52472   0.55106   0.00000  Uiso   1.00
N273   N     0.14659   0.07541   0.63394   0.00000  Uiso   1.00
N274   N     0.88559   0.15547   0.12810   0.00000  Uiso   1.00
N275   N     0.82749   0.58791   0.44732   0.00000  Uiso   1.00
N276   N     0.23414   0.13860   0.53021   0.00000  Uiso   1.00
