data_job_06062
_audit_creation_date              2018-12-19
_audit_creation_method            'Materials Studio'
_symmetry_space_group_name_H-M    'P1'
_symmetry_Int_Tables_number       1
_symmetry_cell_setting            triclinic
loop_
_symmetry_equiv_pos_as_xyz
  x,y,z
_cell_length_a                    17.4453
_cell_length_b                    17.0654
_cell_length_c                    16.0761
_cell_angle_alpha                 100.5110
_cell_angle_beta                  100.2430
_cell_angle_gamma                 98.0838
loop_
_atom_site_label
_atom_site_type_symbol
_atom_site_fract_x
_atom_site_fract_y
_atom_site_fract_z
_atom_site_U_iso_or_equiv
_atom_site_adp_type
_atom_site_occupancy
C1     C     0.12801   0.09478   0.63330   0.00000  Uiso   1.00
C2     C     0.20101   0.07585   0.59924   0.00000  Uiso   1.00
C3     C     0.20610   0.05882   0.51283   0.00000  Uiso   1.00
C4     C     0.27811   0.04307   0.49499   0.00000  Uiso   1.00
C5     C     0.38164   0.01344   0.43203   0.00000  Uiso   1.00
C6     C     0.11052   0.03321   0.68835   0.00000  Uiso   1.00
C7     C     0.03951   0.98034   0.67686   0.00000  Uiso   1.00
C8     C     0.03534   0.92871   0.73404   0.00000  Uiso   1.00
C9     C     0.99835   0.83292   0.80945   0.00000  Uiso   1.00
C10    C     0.15393   0.17686   0.69590   0.00000  Uiso   1.00
C11    C     0.11942   0.24478   0.69077   0.00000  Uiso   1.00
C12    C     0.15179   0.31410   0.75432   0.00000  Uiso   1.00
C13    C     0.18220   0.44136   0.84146   0.00000  Uiso   1.00
C14    C     0.24685   0.09711   0.75528   0.00000  Uiso   1.00
C15    C     0.26556   0.07711   0.66550   0.00000  Uiso   1.00
C16    C     0.33759   0.06139   0.64779   0.00000  Uiso   1.00
C17    C     0.34278   0.04434   0.56136   0.00000  Uiso   1.00
C18    C     0.17506   0.03447   0.75460   0.00000  Uiso   1.00
C19    C     0.17099   0.98291   0.81181   0.00000  Uiso   1.00
C20    C     0.10000   0.92997   0.80041   0.00000  Uiso   1.00
C21    C     0.21848   0.17813   0.76215   0.00000  Uiso   1.00
C22    C     0.25090   0.24735   0.82572   0.00000  Uiso   1.00
C23    C     0.21645   0.31536   0.82069   0.00000  Uiso   1.00
H24    H     0.07775   0.09379   0.58172   0.00000  Uiso   1.00
H25    H     0.15613   0.05784   0.46158   0.00000  Uiso   1.00
H26    H     0.98957   0.97938   0.62559   0.00000  Uiso   1.00
H27    H     0.06946   0.24378   0.63949   0.00000  Uiso   1.00
H28    H     0.27149   0.01850   0.35759   0.00000  Uiso   1.00
H29    H     0.92027   0.85309   0.70343   0.00000  Uiso   1.00
H30    H     0.08874   0.41063   0.73276   0.00000  Uiso   1.00
H31    H     0.29710   0.09809   0.80686   0.00000  Uiso   1.00
H32    H     0.38753   0.06237   0.69907   0.00000  Uiso   1.00
H33    H     0.22096   0.98391   0.86308   0.00000  Uiso   1.00
H34    H     0.30086   0.24831   0.87698   0.00000  Uiso   1.00
H35    H     0.45930   0.02218   0.55035   0.00000  Uiso   1.00
H36    H     0.10807   0.85677   0.89619   0.00000  Uiso   1.00
H37    H     0.27655   0.41431   0.92552   0.00000  Uiso   1.00
O38    O     0.42091   0.99674   0.37900   0.00000  Uiso   1.00
O39    O     0.96011   0.77974   0.83274   0.00000  Uiso   1.00
O40    O     0.18116   0.51121   0.87121   0.00000  Uiso   1.00
N41    N     0.30329   0.02428   0.41775   0.00000  Uiso   1.00
N42    N     0.97491   0.86962   0.74108   0.00000  Uiso   1.00
N43    N     0.13242   0.39087   0.76851   0.00000  Uiso   1.00
N44    N     0.40435   0.02626   0.52147   0.00000  Uiso   1.00
N45    N     0.07597   0.87160   0.84480   0.00000  Uiso   1.00
N46    N     0.23347   0.39285   0.87224   0.00000  Uiso   1.00
C47    C     0.63653   0.12766   0.08807   0.00000  Uiso   1.00
C48    C     0.60387   0.20243   0.06944   0.00000  Uiso   1.00
C49    C     0.52438   0.20846   0.05127   0.00000  Uiso   1.00
C50    C     0.50665   0.28205   0.03604   0.00000  Uiso   1.00
C51    C     0.44686   0.38821   0.00663   0.00000  Uiso   1.00
C52    C     0.68789   0.10795   0.02231   0.00000  Uiso   1.00
C53    C     0.67904   0.03454   0.96453   0.00000  Uiso   1.00
C54    C     0.73203   0.02860   0.90963   0.00000  Uiso   1.00
C55    C     0.80271   0.98806   0.80709   0.00000  Uiso   1.00
C56    C     0.69311   0.15483   0.17605   0.00000  Uiso   1.00
C57    C     0.68867   0.12082   0.24754   0.00000  Uiso   1.00
C58    C     0.74607   0.15433   0.32208   0.00000  Uiso   1.00
C59    C     0.82487   0.18658   0.45825   0.00000  Uiso   1.00
C60    C     0.74638   0.24764   0.09331   0.00000  Uiso   1.00
C61    C     0.66354   0.26759   0.07228   0.00000  Uiso   1.00
C62    C     0.64592   0.34120   0.05707   0.00000  Uiso   1.00
C63    C     0.56642   0.34733   0.03889   0.00000  Uiso   1.00
C64    C     0.74755   0.17311   0.02515   0.00000  Uiso   1.00
C65    C     0.80057   0.16728   0.97033   0.00000  Uiso   1.00
C66    C     0.79180   0.09388   0.91248   0.00000  Uiso   1.00
C67    C     0.75278   0.22000   0.17890   0.00000  Uiso   1.00
C68    C     0.81020   0.25356   0.25334   0.00000  Uiso   1.00
C69    C     0.80585   0.21962   0.32493   0.00000  Uiso   1.00
H70    H     0.59008   0.07693   0.08585   0.00000  Uiso   1.00
H71    H     0.47823   0.15801   0.04907   0.00000  Uiso   1.00
H72    H     0.63286   0.98412   0.96235   0.00000  Uiso   1.00
H73    H     0.64249   0.07039   0.24532   0.00000  Uiso   1.00
H74    H     0.38053   0.27663   0.00952   0.00000  Uiso   1.00
H75    H     0.70660   0.90996   0.82668   0.00000  Uiso   1.00
H76    H     0.72691   0.09188   0.42337   0.00000  Uiso   1.00
H77    H     0.79283   0.29838   0.09553   0.00000  Uiso   1.00
H78    H     0.69210   0.39162   0.05928   0.00000  Uiso   1.00
H79    H     0.84674   0.21772   0.97255   0.00000  Uiso   1.00
H80    H     0.85637   0.30399   0.25552   0.00000  Uiso   1.00
H81    H     0.55412   0.46623   0.01779   0.00000  Uiso   1.00
H82    H     0.88019   0.09956   0.83495   0.00000  Uiso   1.00
H83    H     0.90049   0.28148   0.43164   0.00000  Uiso   1.00
O84    O     0.39740   0.42876   0.98960   0.00000  Uiso   1.00
O85    O     0.82520   0.94770   0.74974   0.00000  Uiso   1.00
O86    O     0.85184   0.18638   0.53258   0.00000  Uiso   1.00
N87    N     0.43521   0.30847   0.01646   0.00000  Uiso   1.00
N88    N     0.74006   0.96565   0.84550   0.00000  Uiso   1.00
N89    N     0.75905   0.13572   0.40335   0.00000  Uiso   1.00
N90    N     0.52861   0.41049   0.02091   0.00000  Uiso   1.00
N91    N     0.83346   0.06768   0.84996   0.00000  Uiso   1.00
N92    N     0.85246   0.23774   0.40781   0.00000  Uiso   1.00
C93    C     0.09730   0.63574   0.12448   0.00000  Uiso   1.00
C94    C     0.08036   0.60393   0.20327   0.00000  Uiso   1.00
C95    C     0.06518   0.52299   0.20795   0.00000  Uiso   1.00
C96    C     0.05108   0.50636   0.28582   0.00000  Uiso   1.00
C97    C     0.02456   0.44752   0.39741   0.00000  Uiso   1.00
C98    C     0.03591   0.68876   0.10449   0.00000  Uiso   1.00
C99    C     0.98338   0.67915   0.02611   0.00000  Uiso   1.00
C100   C     0.93186   0.73395   0.02083   0.00000  Uiso   1.00
C101   C     0.83638   0.80684   0.97904   0.00000  Uiso   1.00
C102   C     0.17696   0.69293   0.15474   0.00000  Uiso   1.00
C103   C     0.24301   0.68685   0.11860   0.00000  Uiso   1.00
C104   C     0.31025   0.74518   0.15561   0.00000  Uiso   1.00
C105   C     0.43377   0.82455   0.19185   0.00000  Uiso   1.00
C106   C     0.09923   0.75016   0.25445   0.00000  Uiso   1.00
C107   C     0.08140   0.66608   0.27386   0.00000  Uiso   1.00
C108   C     0.06732   0.64958   0.35175   0.00000  Uiso   1.00
C109   C     0.05213   0.56862   0.35654   0.00000  Uiso   1.00
C110   C     0.03696   0.75091   0.17508   0.00000  Uiso   1.00
C111   C     0.98551   0.80574   0.16991   0.00000  Uiso   1.00
C112   C     0.93291   0.79621   0.09155   0.00000  Uiso   1.00
C113   C     0.17801   0.75508   0.22534   0.00000  Uiso   1.00
C114   C     0.24515   0.81344   0.26241   0.00000  Uiso   1.00
C115   C     0.31129   0.80744   0.22634   0.00000  Uiso   1.00
H116   H     0.09648   0.58736   0.06951   0.00000  Uiso   1.00
H117   H     0.06437   0.47491   0.15330   0.00000  Uiso   1.00
H118   H     0.98258   0.63105   0.97149   0.00000  Uiso   1.00
H119   H     0.24218   0.63875   0.06397   0.00000  Uiso   1.00
H120   H     0.02920   0.37764   0.27731   0.00000  Uiso   1.00
H121   H     0.85676   0.70690   0.89395   0.00000  Uiso   1.00
H122   H     0.40418   0.72313   0.08896   0.00000  Uiso   1.00
H123   H     0.10005   0.79854   0.30942   0.00000  Uiso   1.00
H124   H     0.06813   0.69768   0.40637   0.00000  Uiso   1.00
H125   H     0.98634   0.85383   0.22456   0.00000  Uiso   1.00
H126   H     0.24594   0.86152   0.31704   0.00000  Uiso   1.00
H127   H     0.03225   0.55845   0.48271   0.00000  Uiso   1.00
H128   H     0.85981   0.88772   0.09935   0.00000  Uiso   1.00
H129   H     0.40722   0.90394   0.29436   0.00000  Uiso   1.00
O130   O     0.00964   0.39789   0.43945   0.00000  Uiso   1.00
O131   O     0.78342   0.82987   0.93649   0.00000  Uiso   1.00
O132   O     0.50161   0.85116   0.19234   0.00000  Uiso   1.00
N133   N     0.03431   0.43404   0.31235   0.00000  Uiso   1.00
N134   N     0.87309   0.74187   0.95394   0.00000  Uiso   1.00
N135   N     0.38487   0.75705   0.13624   0.00000  Uiso   1.00
N136   N     0.03596   0.53133   0.42288   0.00000  Uiso   1.00
N137   N     0.87473   0.83916   0.06446   0.00000  Uiso   1.00
N138   N     0.38651   0.85435   0.24676   0.00000  Uiso   1.00
C139   C     0.87199   0.90522   0.36670   0.00000  Uiso   1.00
C140   C     0.79898   0.92415   0.40076   0.00000  Uiso   1.00
C141   C     0.79390   0.94118   0.48717   0.00000  Uiso   1.00
C142   C     0.72188   0.95693   0.50501   0.00000  Uiso   1.00
C143   C     0.61835   0.98656   0.56797   0.00000  Uiso   1.00
C144   C     0.88948   0.96679   0.31165   0.00000  Uiso   1.00
C145   C     0.96049   0.01966   0.32314   0.00000  Uiso   1.00
C146   C     0.96466   0.07129   0.26596   0.00000  Uiso   1.00
C147   C     0.00165   0.16708   0.19055   0.00000  Uiso   1.00
C148   C     0.84607   0.82313   0.30410   0.00000  Uiso   1.00
C149   C     0.88058   0.75522   0.30923   0.00000  Uiso   1.00
C150   C     0.84821   0.68590   0.24568   0.00000  Uiso   1.00
C151   C     0.81780   0.55864   0.15854   0.00000  Uiso   1.00
C152   C     0.75315   0.90289   0.24472   0.00000  Uiso   1.00
C153   C     0.73444   0.92289   0.33450   0.00000  Uiso   1.00
C154   C     0.66241   0.93861   0.35221   0.00000  Uiso   1.00
C155   C     0.65722   0.95566   0.43864   0.00000  Uiso   1.00
C156   C     0.82494   0.96553   0.24540   0.00000  Uiso   1.00
C157   C     0.82901   0.01709   0.18819   0.00000  Uiso   1.00
C158   C     0.90000   0.07003   0.19959   0.00000  Uiso   1.00
C159   C     0.78152   0.82187   0.23785   0.00000  Uiso   1.00
C160   C     0.74910   0.75265   0.17428   0.00000  Uiso   1.00
C161   C     0.78355   0.68464   0.17931   0.00000  Uiso   1.00
H162   H     0.92225   0.90621   0.41828   0.00000  Uiso   1.00
H163   H     0.84387   0.94216   0.53842   0.00000  Uiso   1.00
H164   H     0.01043   0.02062   0.37441   0.00000  Uiso   1.00
H165   H     0.93054   0.75622   0.36051   0.00000  Uiso   1.00
H166   H     0.72851   0.98150   0.64241   0.00000  Uiso   1.00
H167   H     0.07973   0.14691   0.29657   0.00000  Uiso   1.00
H168   H     0.91125   0.58937   0.26724   0.00000  Uiso   1.00
H169   H     0.70290   0.90191   0.19314   0.00000  Uiso   1.00
H170   H     0.61247   0.93763   0.30093   0.00000  Uiso   1.00
H171   H     0.77904   0.01609   0.13692   0.00000  Uiso   1.00
H172   H     0.69914   0.75169   0.12302   0.00000  Uiso   1.00
H173   H     0.54070   0.97782   0.44965   0.00000  Uiso   1.00
H174   H     0.89193   0.14323   0.10381   0.00000  Uiso   1.00
H175   H     0.72345   0.58569   0.07448   0.00000  Uiso   1.00
O176   O     0.57909   0.00326   0.62100   0.00000  Uiso   1.00
O177   O     0.03989   0.22026   0.16726   0.00000  Uiso   1.00
O178   O     0.81884   0.48879   0.12879   0.00000  Uiso   1.00
N179   N     0.69671   0.97572   0.58225   0.00000  Uiso   1.00
N180   N     0.02509   0.13038   0.25892   0.00000  Uiso   1.00
N181   N     0.86758   0.60913   0.23149   0.00000  Uiso   1.00
N182   N     0.59565   0.97374   0.47853   0.00000  Uiso   1.00
N183   N     0.92403   0.12840   0.15520   0.00000  Uiso   1.00
N184   N     0.76653   0.60715   0.12776   0.00000  Uiso   1.00
C185   C     0.36347   0.87234   0.91193   0.00000  Uiso   1.00
C186   C     0.39613   0.79757   0.93056   0.00000  Uiso   1.00
C187   C     0.47561   0.79154   0.94872   0.00000  Uiso   1.00
C188   C     0.49335   0.71795   0.96396   0.00000  Uiso   1.00
C189   C     0.55314   0.61179   0.99337   0.00000  Uiso   1.00
C190   C     0.31211   0.89205   0.97769   0.00000  Uiso   1.00
C191   C     0.32096   0.96546   0.03547   0.00000  Uiso   1.00
C192   C     0.26797   0.97140   0.09037   0.00000  Uiso   1.00
C193   C     0.19729   0.01194   0.19291   0.00000  Uiso   1.00
C194   C     0.30689   0.84517   0.82395   0.00000  Uiso   1.00
C195   C     0.31133   0.87918   0.75246   0.00000  Uiso   1.00
C196   C     0.25392   0.84566   0.67792   0.00000  Uiso   1.00
C197   C     0.17513   0.81341   0.54175   0.00000  Uiso   1.00
C198   C     0.25362   0.75236   0.90669   0.00000  Uiso   1.00
C199   C     0.33646   0.73241   0.92772   0.00000  Uiso   1.00
C200   C     0.35408   0.65880   0.94293   0.00000  Uiso   1.00
C201   C     0.43358   0.65267   0.96111   0.00000  Uiso   1.00
C202   C     0.25245   0.82689   0.97485   0.00000  Uiso   1.00
C203   C     0.19943   0.83272   0.02967   0.00000  Uiso   1.00
C204   C     0.20820   0.90612   0.08752   0.00000  Uiso   1.00
C205   C     0.24722   0.78000   0.82110   0.00000  Uiso   1.00
C206   C     0.18980   0.74644   0.74666   0.00000  Uiso   1.00
C207   C     0.19415   0.78038   0.67507   0.00000  Uiso   1.00
H208   H     0.40992   0.92307   0.91415   0.00000  Uiso   1.00
H209   H     0.52177   0.84199   0.95093   0.00000  Uiso   1.00
H210   H     0.36713   0.01588   0.03765   0.00000  Uiso   1.00
H211   H     0.35751   0.92961   0.75468   0.00000  Uiso   1.00
H212   H     0.61947   0.72337   0.99048   0.00000  Uiso   1.00
H213   H     0.29340   0.09004   0.17332   0.00000  Uiso   1.00
H214   H     0.27309   0.90812   0.57663   0.00000  Uiso   1.00
H215   H     0.20717   0.70162   0.90447   0.00000  Uiso   1.00
H216   H     0.30790   0.60838   0.94072   0.00000  Uiso   1.00
H217   H     0.15326   0.78228   0.02745   0.00000  Uiso   1.00
H218   H     0.14363   0.69601   0.74448   0.00000  Uiso   1.00
H219   H     0.44588   0.53377   0.98221   0.00000  Uiso   1.00
H220   H     0.11981   0.90044   0.16505   0.00000  Uiso   1.00
H221   H     0.09951   0.71852   0.56836   0.00000  Uiso   1.00
O222   O     0.60260   0.57123   0.01040   0.00000  Uiso   1.00
O223   O     0.17480   0.05230   0.25026   0.00000  Uiso   1.00
O224   O     0.14816   0.81362   0.46742   0.00000  Uiso   1.00
N225   N     0.56479   0.69153   0.98354   0.00000  Uiso   1.00
N226   N     0.25994   0.03435   0.15450   0.00000  Uiso   1.00
N227   N     0.24095   0.86428   0.59665   0.00000  Uiso   1.00
N228   N     0.47139   0.58951   0.97909   0.00000  Uiso   1.00
N229   N     0.16654   0.93232   0.15004   0.00000  Uiso   1.00
N230   N     0.14754   0.76226   0.59219   0.00000  Uiso   1.00
C231   C     0.90270   0.36426   0.87552   0.00000  Uiso   1.00
C232   C     0.91964   0.39607   0.79673   0.00000  Uiso   1.00
C233   C     0.93481   0.47701   0.79205   0.00000  Uiso   1.00
C234   C     0.94892   0.49364   0.71418   0.00000  Uiso   1.00
C235   C     0.97544   0.55248   0.60259   0.00000  Uiso   1.00
C236   C     0.96409   0.31124   0.89551   0.00000  Uiso   1.00
C237   C     0.01662   0.32085   0.97389   0.00000  Uiso   1.00
C238   C     0.06814   0.26605   0.97917   0.00000  Uiso   1.00
C239   C     0.16362   0.19316   0.02096   0.00000  Uiso   1.00
C240   C     0.82304   0.30707   0.84526   0.00000  Uiso   1.00
C241   C     0.75699   0.31315   0.88140   0.00000  Uiso   1.00
C242   C     0.68975   0.25482   0.84439   0.00000  Uiso   1.00
C243   C     0.56623   0.17545   0.80815   0.00000  Uiso   1.00
C244   C     0.90077   0.24984   0.74555   0.00000  Uiso   1.00
C245   C     0.91860   0.33392   0.72613   0.00000  Uiso   1.00
C246   C     0.93268   0.35042   0.64825   0.00000  Uiso   1.00
C247   C     0.94787   0.43138   0.64346   0.00000  Uiso   1.00
C248   C     0.96304   0.24909   0.82492   0.00000  Uiso   1.00
C249   C     0.01449   0.19426   0.83009   0.00000  Uiso   1.00
C250   C     0.06709   0.20379   0.90845   0.00000  Uiso   1.00
C251   C     0.82199   0.24492   0.77466   0.00000  Uiso   1.00
C252   C     0.75485   0.18656   0.73759   0.00000  Uiso   1.00
C253   C     0.68871   0.19256   0.77366   0.00000  Uiso   1.00
H254   H     0.90351   0.41264   0.93049   0.00000  Uiso   1.00
H255   H     0.93563   0.52509   0.84670   0.00000  Uiso   1.00
H256   H     0.01742   0.36895   0.02851   0.00000  Uiso   1.00
H257   H     0.75782   0.36125   0.93603   0.00000  Uiso   1.00
H258   H     0.97080   0.62236   0.72269   0.00000  Uiso   1.00
H259   H     0.14324   0.29310   0.10605   0.00000  Uiso   1.00
H260   H     0.59582   0.27687   0.91104   0.00000  Uiso   1.00
H261   H     0.89995   0.20146   0.69058   0.00000  Uiso   1.00
H262   H     0.93187   0.30232   0.59363   0.00000  Uiso   1.00
H263   H     0.01366   0.14617   0.77544   0.00000  Uiso   1.00
H264   H     0.75406   0.13848   0.68296   0.00000  Uiso   1.00
H265   H     0.96775   0.44155   0.51729   0.00000  Uiso   1.00
H266   H     0.14019   0.11228   0.90065   0.00000  Uiso   1.00
H267   H     0.59278   0.09606   0.70564   0.00000  Uiso   1.00
O268   O     0.99036   0.60211   0.56055   0.00000  Uiso   1.00
O269   O     0.21658   0.17013   0.06351   0.00000  Uiso   1.00
O270   O     0.49839   0.14884   0.80766   0.00000  Uiso   1.00
N271   N     0.96569   0.56596   0.68765   0.00000  Uiso   1.00
N272   N     0.12691   0.25813   0.04606   0.00000  Uiso   1.00
N273   N     0.61513   0.24295   0.86376   0.00000  Uiso   1.00
N274   N     0.96404   0.46867   0.57712   0.00000  Uiso   1.00
N275   N     0.12527   0.16084   0.93554   0.00000  Uiso   1.00
N276   N     0.61349   0.14565   0.75324   0.00000  Uiso   1.00
