data_job_06310
_audit_creation_date              2018-12-19
_audit_creation_method            'Materials Studio'
_symmetry_space_group_name_H-M    'P1'
_symmetry_Int_Tables_number       1
_symmetry_cell_setting            triclinic
loop_
_symmetry_equiv_pos_as_xyz
  x,y,z
_cell_length_a                    8.7719
_cell_length_b                    22.7910
_cell_length_c                    23.6059
_cell_angle_alpha                 118.1240
_cell_angle_beta                  80.0151
_cell_angle_gamma                 89.1496
loop_
_atom_site_label
_atom_site_type_symbol
_atom_site_fract_x
_atom_site_fract_y
_atom_site_fract_z
_atom_site_U_iso_or_equiv
_atom_site_adp_type
_atom_site_occupancy
C1     C     0.18363   0.67233   0.98568   0.00000  Uiso   1.00
C2     C     0.24658   0.69759   0.04852   0.00000  Uiso   1.00
C3     C     0.15911   0.73327   0.11193   0.00000  Uiso   1.00
C4     C     0.23842   0.75185   0.16285   0.00000  Uiso   1.00
C5     C     0.31169   0.79362   0.26228   0.00000  Uiso   1.00
C6     C     0.27608   0.70155   0.94588   0.00000  Uiso   1.00
C7     C     0.21339   0.74054   0.92297   0.00000  Uiso   1.00
C8     C     0.31755   0.76242   0.88748   0.00000  Uiso   1.00
C9     C     0.43660   0.81029   0.82749   0.00000  Uiso   1.00
C10    C     0.23138   0.59699   0.94736   0.00000  Uiso   1.00
C11    C     0.13112   0.54806   0.92567   0.00000  Uiso   1.00
C12    C     0.19765   0.48192   0.89141   0.00000  Uiso   1.00
C13    C     0.24729   0.36744   0.83373   0.00000  Uiso   1.00
C14    C     0.48005   0.64187   0.96338   0.00000  Uiso   1.00
C15    C     0.40759   0.68105   0.03641   0.00000  Uiso   1.00
C16    C     0.48706   0.69957   0.08725   0.00000  Uiso   1.00
C17    C     0.39972   0.73527   0.15072   0.00000  Uiso   1.00
C18    C     0.43708   0.68500   0.93376   0.00000  Uiso   1.00
C19    C     0.54135   0.70683   0.89829   0.00000  Uiso   1.00
C20    C     0.47884   0.74585   0.87534   0.00000  Uiso   1.00
C21    C     0.39238   0.58044   0.93524   0.00000  Uiso   1.00
C22    C     0.45907   0.51436   0.90100   0.00000  Uiso   1.00
C23    C     0.35894   0.46534   0.87928   0.00000  Uiso   1.00
H24    H     0.05829   0.68522   0.99511   0.00000  Uiso   1.00
H25    H     0.03451   0.74607   0.12128   0.00000  Uiso   1.00
H26    H     0.08880   0.75333   0.93234   0.00000  Uiso   1.00
H27    H     0.00654   0.56089   0.93506   0.00000  Uiso   1.00
H28    H     0.07916   0.80627   0.25582   0.00000  Uiso   1.00
H29    H     0.19362   0.82155   0.85742   0.00000  Uiso   1.00
H30    H     0.02015   0.41574   0.86314   0.00000  Uiso   1.00
H31    H     0.60541   0.62899   0.95394   0.00000  Uiso   1.00
H32    H     0.61165   0.68676   0.07786   0.00000  Uiso   1.00
H33    H     0.66593   0.69402   0.88892   0.00000  Uiso   1.00
H34    H     0.58367   0.50157   0.89164   0.00000  Uiso   1.00
H35    H     0.54759   0.75813   0.22058   0.00000  Uiso   1.00
H36    H     0.66205   0.77341   0.82218   0.00000  Uiso   1.00
H37    H     0.48858   0.36761   0.82790   0.00000  Uiso   1.00
O38    O     0.30762   0.82124   0.32046   0.00000  Uiso   1.00
O39    O     0.45778   0.84127   0.79776   0.00000  Uiso   1.00
O40    O     0.23020   0.30887   0.80527   0.00000  Uiso   1.00
N41    N     0.18855   0.78700   0.23052   0.00000  Uiso   1.00
N42    N     0.29556   0.80129   0.85805   0.00000  Uiso   1.00
N43    N     0.13338   0.42190   0.86338   0.00000  Uiso   1.00
N44    N     0.44060   0.76109   0.21156   0.00000  Uiso   1.00
N45    N     0.54761   0.77539   0.83909   0.00000  Uiso   1.00
N46    N     0.38544   0.39600   0.84442   0.00000  Uiso   1.00
C47    C     0.16803   0.01018   0.68905   0.00000  Uiso   1.00
C48    C     0.28947   0.94917   0.64992   0.00000  Uiso   1.00
C49    C     0.25919   0.88285   0.62401   0.00000  Uiso   1.00
C50    C     0.38624   0.83430   0.58976   0.00000  Uiso   1.00
C51    C     0.55172   0.73694   0.53025   0.00000  Uiso   1.00
C52    C     0.21749   0.05210   0.75421   0.00000  Uiso   1.00
C53    C     0.12668   0.07234   0.81599   0.00000  Uiso   1.00
C54    C     0.19314   0.11044   0.86954   0.00000  Uiso   1.00
C55    C     0.24682   0.17294   0.97195   0.00000  Uiso   1.00
C56    C     0.18866   0.05100   0.65292   0.00000  Uiso   1.00
C57    C     0.07361   0.07033   0.62955   0.00000  Uiso   1.00
C58    C     0.11579   0.10753   0.59783   0.00000  Uiso   1.00
C59    C     0.12471   0.16831   0.54296   0.00000  Uiso   1.00
C60    C     0.44750   0.04189   0.67430   0.00000  Uiso   1.00
C61    C     0.44126   0.96639   0.64191   0.00000  Uiso   1.00
C62    C     0.56839   0.91793   0.60769   0.00000  Uiso   1.00
C63    C     0.53831   0.85155   0.58174   0.00000  Uiso   1.00
C64    C     0.36928   0.06932   0.74620   0.00000  Uiso   1.00
C65    C     0.43588   0.10742   0.79968   0.00000  Uiso   1.00
C66    C     0.34521   0.12770   0.86152   0.00000  Uiso   1.00
C67    C     0.34046   0.06823   0.64491   0.00000  Uiso   1.00
C68    C     0.38282   0.10541   0.61323   0.00000  Uiso   1.00
C69    C     0.26786   0.12478   0.58981   0.00000  Uiso   1.00
H70    H     0.04985   0.99677   0.69529   0.00000  Uiso   1.00
H71    H     0.14171   0.86954   0.63022   0.00000  Uiso   1.00
H72    H     0.00921   0.05900   0.82217   0.00000  Uiso   1.00
H73    H     0.95616   0.05699   0.63575   0.00000  Uiso   1.00
H74    H     0.31049   0.73607   0.55457   0.00000  Uiso   1.00
H75    H     0.03110   0.13559   0.95931   0.00000  Uiso   1.00
H76    H     0.91921   0.13135   0.56621   0.00000  Uiso   1.00
H77    H     0.56568   0.05530   0.66807   0.00000  Uiso   1.00
H78    H     0.68585   0.93127   0.60151   0.00000  Uiso   1.00
H79    H     0.55335   0.12074   0.79346   0.00000  Uiso   1.00
H80    H     0.50029   0.11873   0.60704   0.00000  Uiso   1.00
H81    H     0.75214   0.78618   0.53127   0.00000  Uiso   1.00
H82    H     0.47274   0.18570   0.93601   0.00000  Uiso   1.00
H83    H     0.36086   0.18145   0.54291   0.00000  Uiso   1.00
O84    O     0.60106   0.67848   0.49964   0.00000  Uiso   1.00
O85    O     0.23450   0.20264   0.03064   0.00000  Uiso   1.00
O86    O     0.08771   0.19707   0.51491   0.00000  Uiso   1.00
N87    N     0.39794   0.76488   0.55821   0.00000  Uiso   1.00
N88    N     0.13673   0.13840   0.93662   0.00000  Uiso   1.00
N89    N     0.03212   0.13445   0.56912   0.00000  Uiso   1.00
N90    N     0.63558   0.79185   0.54567   0.00000  Uiso   1.00
N91    N     0.37438   0.16536   0.92408   0.00000  Uiso   1.00
N92    N     0.26976   0.16141   0.55658   0.00000  Uiso   1.00
C93    C     0.85593   0.30658   0.32475   0.00000  Uiso   1.00
C94    C     0.94765   0.35021   0.30143   0.00000  Uiso   1.00
C95    C     0.90102   0.37616   0.26370   0.00000  Uiso   1.00
C96    C     0.00145   0.41489   0.24746   0.00000  Uiso   1.00
C97    C     0.12232   0.48074   0.20806   0.00000  Uiso   1.00
C98    C     0.96380   0.24257   0.29974   0.00000  Uiso   1.00
C99    C     0.93074   0.17802   0.26061   0.00000  Uiso   1.00
C100   C     0.04477   0.12615   0.24296   0.00000  Uiso   1.00
C101   C     0.19066   0.02489   0.20099   0.00000  Uiso   1.00
C102   C     0.83539   0.34247   0.39927   0.00000  Uiso   1.00
C103   C     0.69436   0.36190   0.44381   0.00000  Uiso   1.00
C104   C     0.70027   0.39411   0.50995   0.00000  Uiso   1.00
C105   C     0.64678   0.44795   0.62251   0.00000  Uiso   1.00
C106   C     0.11720   0.32923   0.36299   0.00000  Uiso   1.00
C107   C     0.08956   0.36251   0.32220   0.00000  Uiso   1.00
C108   C     0.19009   0.40122   0.30601   0.00000  Uiso   1.00
C109   C     0.14362   0.42722   0.26827   0.00000  Uiso   1.00
C110   C     0.10571   0.25487   0.32051   0.00000  Uiso   1.00
C111   C     0.21981   0.20308   0.30292   0.00000  Uiso   1.00
C112   C     0.18693   0.13847   0.26376   0.00000  Uiso   1.00
C113   C     0.97730   0.35477   0.42004   0.00000  Uiso   1.00
C114   C     0.98343   0.38695   0.48612   0.00000  Uiso   1.00
C115   C     0.84244   0.40643   0.53076   0.00000  Uiso   1.00
H116   H     0.74545   0.29700   0.30857   0.00000  Uiso   1.00
H117   H     0.79120   0.36662   0.24763   0.00000  Uiso   1.00
H118   H     0.82091   0.16852   0.24455   0.00000  Uiso   1.00
H119   H     0.58457   0.35237   0.42772   0.00000  Uiso   1.00
H120   H     0.90453   0.44922   0.18920   0.00000  Uiso   1.00
H121   H     0.96715   0.03151   0.18272   0.00000  Uiso   1.00
H122   H     0.46877   0.41918   0.56898   0.00000  Uiso   1.00
H123   H     0.22769   0.33880   0.37916   0.00000  Uiso   1.00
H124   H     0.29990   0.41073   0.32209   0.00000  Uiso   1.00
H125   H     0.32961   0.21262   0.31901   0.00000  Uiso   1.00
H126   H     0.09326   0.39646   0.50218   0.00000  Uiso   1.00
H127   H     0.31741   0.48501   0.24964   0.00000  Uiso   1.00
H128   H     0.38003   0.06730   0.24316   0.00000  Uiso   1.00
H129   H     0.88165   0.45497   0.62941   0.00000  Uiso   1.00
O130   O     0.14980   0.51366   0.18059   0.00000  Uiso   1.00
O131   O     0.23194   0.96563   0.17209   0.00000  Uiso   1.00
O132   O     0.57808   0.47425   0.67885   0.00000  Uiso   1.00
N133   N     0.99178   0.44779   0.21127   0.00000  Uiso   1.00
N134   N     0.05033   0.05725   0.20520   0.00000  Uiso   1.00
N135   N     0.58439   0.41968   0.56632   0.00000  Uiso   1.00
N136   N     0.21394   0.46705   0.24379   0.00000  Uiso   1.00
N137   N     0.27250   0.07651   0.23772   0.00000  Uiso   1.00
N138   N     0.80656   0.43893   0.59884   0.00000  Uiso   1.00
C139   C     0.81637   0.32767   0.01432   0.00000  Uiso   1.00
C140   C     0.75342   0.30241   0.95148   0.00000  Uiso   1.00
C141   C     0.84089   0.26673   0.88807   0.00000  Uiso   1.00
C142   C     0.76158   0.24815   0.83715   0.00000  Uiso   1.00
C143   C     0.68831   0.20638   0.73772   0.00000  Uiso   1.00
C144   C     0.72392   0.29845   0.05412   0.00000  Uiso   1.00
C145   C     0.78661   0.25946   0.07703   0.00000  Uiso   1.00
C146   C     0.68245   0.23757   0.11252   0.00000  Uiso   1.00
C147   C     0.56340   0.18971   0.17251   0.00000  Uiso   1.00
C148   C     0.76862   0.40301   0.05264   0.00000  Uiso   1.00
C149   C     0.86888   0.45194   0.07433   0.00000  Uiso   1.00
C150   C     0.80235   0.51808   0.10859   0.00000  Uiso   1.00
C151   C     0.75271   0.63256   0.16627   0.00000  Uiso   1.00
C152   C     0.51995   0.35813   0.03662   0.00000  Uiso   1.00
C153   C     0.59241   0.31895   0.96359   0.00000  Uiso   1.00
C154   C     0.51294   0.30043   0.91275   0.00000  Uiso   1.00
C155   C     0.60028   0.26473   0.84928   0.00000  Uiso   1.00
C156   C     0.56292   0.31500   0.06624   0.00000  Uiso   1.00
C157   C     0.45865   0.29317   0.10171   0.00000  Uiso   1.00
C158   C     0.52116   0.25415   0.12466   0.00000  Uiso   1.00
C159   C     0.60762   0.41956   0.06476   0.00000  Uiso   1.00
C160   C     0.54093   0.48564   0.09900   0.00000  Uiso   1.00
C161   C     0.64106   0.53466   0.12072   0.00000  Uiso   1.00
H162   H     0.94171   0.31478   0.00489   0.00000  Uiso   1.00
H163   H     0.96549   0.25393   0.87872   0.00000  Uiso   1.00
H164   H     0.91120   0.24667   0.06766   0.00000  Uiso   1.00
H165   H     0.99346   0.43911   0.06494   0.00000  Uiso   1.00
H166   H     0.92084   0.19373   0.74418   0.00000  Uiso   1.00
H167   H     0.80638   0.17845   0.14258   0.00000  Uiso   1.00
H168   H     0.97985   0.58426   0.13686   0.00000  Uiso   1.00
H169   H     0.39459   0.37101   0.04606   0.00000  Uiso   1.00
H170   H     0.38835   0.31324   0.92214   0.00000  Uiso   1.00
H171   H     0.33407   0.30598   0.11108   0.00000  Uiso   1.00
H172   H     0.41633   0.49843   0.10836   0.00000  Uiso   1.00
H173   H     0.45241   0.24187   0.77942   0.00000  Uiso   1.00
H174   H     0.33795   0.22659   0.17782   0.00000  Uiso   1.00
H175   H     0.51142   0.63240   0.17210   0.00000  Uiso   1.00
O176   O     0.69238   0.17876   0.67954   0.00000  Uiso   1.00
O177   O     0.54222   0.15873   0.20224   0.00000  Uiso   1.00
O178   O     0.76980   0.69113   0.19473   0.00000  Uiso   1.00
N179   N     0.81145   0.21300   0.76948   0.00000  Uiso   1.00
N180   N     0.70445   0.19871   0.14195   0.00000  Uiso   1.00
N181   N     0.86662   0.57810   0.13662   0.00000  Uiso   1.00
N182   N     0.55940   0.23891   0.78844   0.00000  Uiso   1.00
N183   N     0.45239   0.22461   0.16091   0.00000  Uiso   1.00
N184   N     0.61456   0.60400   0.15558   0.00000  Uiso   1.00
C185   C     0.83197   0.98982   0.31095   0.00000  Uiso   1.00
C186   C     0.71054   0.05083   0.35008   0.00000  Uiso   1.00
C187   C     0.74081   0.11715   0.37599   0.00000  Uiso   1.00
C188   C     0.61376   0.16570   0.41024   0.00000  Uiso   1.00
C189   C     0.44828   0.26306   0.46975   0.00000  Uiso   1.00
C190   C     0.78251   0.94790   0.24579   0.00000  Uiso   1.00
C191   C     0.87332   0.92766   0.18401   0.00000  Uiso   1.00
C192   C     0.80686   0.88956   0.13046   0.00000  Uiso   1.00
C193   C     0.75318   0.82706   0.02805   0.00000  Uiso   1.00
C194   C     0.81134   0.94900   0.34708   0.00000  Uiso   1.00
C195   C     0.92639   0.92967   0.37045   0.00000  Uiso   1.00
C196   C     0.88421   0.89247   0.40217   0.00000  Uiso   1.00
C197   C     0.87529   0.83169   0.45704   0.00000  Uiso   1.00
C198   C     0.55250   0.95811   0.32570   0.00000  Uiso   1.00
C199   C     0.55874   0.03361   0.35809   0.00000  Uiso   1.00
C200   C     0.43161   0.08207   0.39231   0.00000  Uiso   1.00
C201   C     0.46169   0.14845   0.41826   0.00000  Uiso   1.00
C202   C     0.63072   0.93068   0.25379   0.00000  Uiso   1.00
C203   C     0.56412   0.89258   0.20032   0.00000  Uiso   1.00
C204   C     0.65479   0.87230   0.13848   0.00000  Uiso   1.00
C205   C     0.65954   0.93177   0.35509   0.00000  Uiso   1.00
C206   C     0.61718   0.89459   0.38677   0.00000  Uiso   1.00
C207   C     0.73214   0.87522   0.41019   0.00000  Uiso   1.00
H208   H     0.95015   0.00323   0.30471   0.00000  Uiso   1.00
H209   H     0.85830   0.13046   0.36978   0.00000  Uiso   1.00
H210   H     0.99079   0.94100   0.17783   0.00000  Uiso   1.00
H211   H     0.04384   0.94301   0.36425   0.00000  Uiso   1.00
H212   H     0.68951   0.26393   0.44543   0.00000  Uiso   1.00
H213   H     0.96890   0.86441   0.04069   0.00000  Uiso   1.00
H214   H     0.08079   0.86865   0.43379   0.00000  Uiso   1.00
H215   H     0.43432   0.94470   0.33193   0.00000  Uiso   1.00
H216   H     0.31415   0.06873   0.39849   0.00000  Uiso   1.00
H217   H     0.44665   0.87926   0.20654   0.00000  Uiso   1.00
H218   H     0.49971   0.88127   0.39296   0.00000  Uiso   1.00
H219   H     0.24786   0.21382   0.46873   0.00000  Uiso   1.00
H220   H     0.52726   0.81430   0.06399   0.00000  Uiso   1.00
H221   H     0.63914   0.81855   0.45709   0.00000  Uiso   1.00
O222   O     0.39894   0.32152   0.50036   0.00000  Uiso   1.00
O223   O     0.76550   0.79736   0.96936   0.00000  Uiso   1.00
O224   O     0.91229   0.80293   0.48509   0.00000  Uiso   1.00
N225   N     0.60206   0.23512   0.44179   0.00000  Uiso   1.00
N226   N     0.86327   0.86160   0.06338   0.00000  Uiso   1.00
N227   N     0.96788   0.86555   0.43088   0.00000  Uiso   1.00
N228   N     0.36442   0.20815   0.45433   0.00000  Uiso   1.00
N229   N     0.62562   0.83464   0.07592   0.00000  Uiso   1.00
N230   N     0.73024   0.83859   0.44342   0.00000  Uiso   1.00
C231   C     0.14407   0.69342   0.67525   0.00000  Uiso   1.00
C232   C     0.05235   0.64979   0.69857   0.00000  Uiso   1.00
C233   C     0.09898   0.62384   0.73630   0.00000  Uiso   1.00
C234   C     0.99855   0.58511   0.75254   0.00000  Uiso   1.00
C235   C     0.87768   0.51926   0.79194   0.00000  Uiso   1.00
C236   C     0.03620   0.75743   0.70026   0.00000  Uiso   1.00
C237   C     0.06926   0.82198   0.73939   0.00000  Uiso   1.00
C238   C     0.95523   0.87385   0.75704   0.00000  Uiso   1.00
C239   C     0.80934   0.97511   0.79901   0.00000  Uiso   1.00
C240   C     0.16461   0.65753   0.60073   0.00000  Uiso   1.00
C241   C     0.30564   0.63810   0.55619   0.00000  Uiso   1.00
C242   C     0.29973   0.60589   0.49005   0.00000  Uiso   1.00
C243   C     0.35322   0.55205   0.37749   0.00000  Uiso   1.00
C244   C     0.88280   0.67077   0.63701   0.00000  Uiso   1.00
C245   C     0.91044   0.63749   0.67780   0.00000  Uiso   1.00
C246   C     0.80991   0.59878   0.69399   0.00000  Uiso   1.00
C247   C     0.85638   0.57278   0.73173   0.00000  Uiso   1.00
C248   C     0.89429   0.74513   0.67949   0.00000  Uiso   1.00
C249   C     0.78019   0.79692   0.69708   0.00000  Uiso   1.00
C250   C     0.81307   0.86153   0.73624   0.00000  Uiso   1.00
C251   C     0.02270   0.64523   0.57996   0.00000  Uiso   1.00
C252   C     0.01657   0.61305   0.51388   0.00000  Uiso   1.00
C253   C     0.15757   0.59357   0.46924   0.00000  Uiso   1.00
H254   H     0.25455   0.70300   0.69143   0.00000  Uiso   1.00
H255   H     0.20880   0.63338   0.75237   0.00000  Uiso   1.00
H256   H     0.17909   0.83148   0.75545   0.00000  Uiso   1.00
H257   H     0.41543   0.64763   0.57228   0.00000  Uiso   1.00
H258   H     0.09547   0.55078   0.81080   0.00000  Uiso   1.00
H259   H     0.03285   0.96849   0.81728   0.00000  Uiso   1.00
H260   H     0.53123   0.58082   0.43102   0.00000  Uiso   1.00
H261   H     0.77231   0.66120   0.62084   0.00000  Uiso   1.00
H262   H     0.70010   0.58927   0.67791   0.00000  Uiso   1.00
H263   H     0.67039   0.78738   0.68099   0.00000  Uiso   1.00
H264   H     0.90674   0.60354   0.49782   0.00000  Uiso   1.00
H265   H     0.68259   0.51499   0.75036   0.00000  Uiso   1.00
H266   H     0.61997   0.93270   0.75684   0.00000  Uiso   1.00
H267   H     0.11835   0.54503   0.37059   0.00000  Uiso   1.00
O268   O     0.85020   0.48634   0.81941   0.00000  Uiso   1.00
O269   O     0.76806   0.03437   0.82791   0.00000  Uiso   1.00
O270   O     0.42192   0.52575   0.32115   0.00000  Uiso   1.00
N271   N     0.00822   0.55221   0.78873   0.00000  Uiso   1.00
N272   N     0.94967   0.94275   0.79480   0.00000  Uiso   1.00
N273   N     0.41561   0.58032   0.43368   0.00000  Uiso   1.00
N274   N     0.78606   0.53295   0.75621   0.00000  Uiso   1.00
N275   N     0.72750   0.92349   0.76228   0.00000  Uiso   1.00
N276   N     0.19344   0.56107   0.40116   0.00000  Uiso   1.00
