data_job_07061
_audit_creation_date              2018-12-19
_audit_creation_method            'Materials Studio'
_symmetry_space_group_name_H-M    'P1'
_symmetry_Int_Tables_number       1
_symmetry_cell_setting            triclinic
loop_
_symmetry_equiv_pos_as_xyz
  x,y,z
_cell_length_a                    22.6163
_cell_length_b                    25.5958
_cell_length_c                    17.8918
_cell_angle_alpha                 83.8060
_cell_angle_beta                  84.8385
_cell_angle_gamma                 86.2837
loop_
_atom_site_label
_atom_site_type_symbol
_atom_site_fract_x
_atom_site_fract_y
_atom_site_fract_z
_atom_site_U_iso_or_equiv
_atom_site_adp_type
_atom_site_occupancy
C1     C     0.80831   0.74714   0.44260   0.00000  Uiso   1.00
C2     C     0.86290   0.71148   0.46077   0.00000  Uiso   1.00
C3     C     0.91135   0.70070   0.41039   0.00000  Uiso   1.00
C4     C     0.95683   0.66707   0.43798   0.00000  Uiso   1.00
C5     C     0.04203   0.61502   0.45472   0.00000  Uiso   1.00
C6     C     0.75488   0.71354   0.46373   0.00000  Uiso   1.00
C7     C     0.71249   0.70450   0.41585   0.00000  Uiso   1.00
C8     C     0.66702   0.67260   0.44595   0.00000  Uiso   1.00
C9     C     0.58448   0.62379   0.46731   0.00000  Uiso   1.00
C10    C     0.80346   0.78862   0.49829   0.00000  Uiso   1.00
C11    C     0.80191   0.84270   0.47946   0.00000  Uiso   1.00
C12    C     0.79734   0.87402   0.53866   0.00000  Uiso   1.00
C13    C     0.79025   0.94178   0.61367   0.00000  Uiso   1.00
C14    C     0.80294   0.70660   0.58120   0.00000  Uiso   1.00
C15    C     0.85998   0.68946   0.53605   0.00000  Uiso   1.00
C16    C     0.90540   0.65584   0.56373   0.00000  Uiso   1.00
C17    C     0.95391   0.64501   0.51340   0.00000  Uiso   1.00
C18    C     0.75196   0.69152   0.53901   0.00000  Uiso   1.00
C19    C     0.70654   0.65964   0.56919   0.00000  Uiso   1.00
C20    C     0.66410   0.65054   0.52136   0.00000  Uiso   1.00
C21    C     0.80055   0.76660   0.57357   0.00000  Uiso   1.00
C22    C     0.79597   0.79785   0.63281   0.00000  Uiso   1.00
C23    C     0.79442   0.85196   0.61407   0.00000  Uiso   1.00
H24    H     0.81058   0.76429   0.38400   0.00000  Uiso   1.00
H25    H     0.91359   0.71774   0.35213   0.00000  Uiso   1.00
H26    H     0.71475   0.72155   0.35760   0.00000  Uiso   1.00
H27    H     0.80417   0.85973   0.42120   0.00000  Uiso   1.00
H28    H     0.02649   0.65641   0.34999   0.00000  Uiso   1.00
H29    H     0.60723   0.66445   0.36152   0.00000  Uiso   1.00
H30    H     0.79578   0.95583   0.49565   0.00000  Uiso   1.00
H31    H     0.80066   0.68946   0.63981   0.00000  Uiso   1.00
H32    H     0.90313   0.63881   0.62199   0.00000  Uiso   1.00
H33    H     0.70430   0.64261   0.62745   0.00000  Uiso   1.00
H34    H     0.79372   0.78079   0.69106   0.00000  Uiso   1.00
H35    H     0.01801   0.59234   0.56902   0.00000  Uiso   1.00
H36    H     0.59874   0.60038   0.58055   0.00000  Uiso   1.00
H37    H     0.78730   0.89176   0.71467   0.00000  Uiso   1.00
O38    O     0.08983   0.59239   0.44315   0.00000  Uiso   1.00
O39    O     0.53977   0.60294   0.45829   0.00000  Uiso   1.00
O40    O     0.78715   0.98523   0.63425   0.00000  Uiso   1.00
N41    N     0.01044   0.64829   0.40399   0.00000  Uiso   1.00
N42    N     0.61846   0.65580   0.41477   0.00000  Uiso   1.00
N43    N     0.79472   0.92822   0.54016   0.00000  Uiso   1.00
N44    N     0.00587   0.61382   0.52185   0.00000  Uiso   1.00
N45    N     0.61389   0.62132   0.53262   0.00000  Uiso   1.00
N46    N     0.79016   0.89375   0.65802   0.00000  Uiso   1.00
C47    C     0.51701   0.87395   0.71983   0.00000  Uiso   1.00
C48    C     0.53969   0.92927   0.70571   0.00000  Uiso   1.00
C49    C     0.50649   0.97555   0.71791   0.00000  Uiso   1.00
C50    C     0.53537   0.02217   0.70149   0.00000  Uiso   1.00
C51    C     0.56146   0.10803   0.68372   0.00000  Uiso   1.00
C52    C     0.52892   0.85002   0.64511   0.00000  Uiso   1.00
C53    C     0.48668   0.82966   0.60638   0.00000  Uiso   1.00
C54    C     0.50650   0.80956   0.53896   0.00000  Uiso   1.00
C55    C     0.51588   0.77234   0.42715   0.00000  Uiso   1.00
C56    C     0.55803   0.84289   0.77381   0.00000  Uiso   1.00
C57    C     0.54026   0.81653   0.84328   0.00000  Uiso   1.00
C58    C     0.58459   0.79041   0.88420   0.00000  Uiso   1.00
C59    C     0.63917   0.74213   0.97222   0.00000  Uiso   1.00
C60    C     0.62734   0.87443   0.66897   0.00000  Uiso   1.00
C61    C     0.59961   0.92953   0.67808   0.00000  Uiso   1.00
C62    C     0.62856   0.97609   0.66164   0.00000  Uiso   1.00
C63    C     0.59541   0.02243   0.67382   0.00000  Uiso   1.00
C64    C     0.58885   0.85028   0.61749   0.00000  Uiso   1.00
C65    C     0.60874   0.83019   0.55011   0.00000  Uiso   1.00
C66    C     0.56654   0.80982   0.51128   0.00000  Uiso   1.00
C67    C     0.61796   0.84315   0.74618   0.00000  Uiso   1.00
C68    C     0.66233   0.81707   0.78700   0.00000  Uiso   1.00
C69    C     0.64463   0.79067   0.85653   0.00000  Uiso   1.00
H70    H     0.47035   0.87374   0.74134   0.00000  Uiso   1.00
H71    H     0.46011   0.97533   0.73929   0.00000  Uiso   1.00
H72    H     0.44031   0.82946   0.62778   0.00000  Uiso   1.00
H73    H     0.49388   0.81633   0.86464   0.00000  Uiso   1.00
H74    H     0.47518   0.08808   0.72480   0.00000  Uiso   1.00
H75    H     0.43342   0.78048   0.48970   0.00000  Uiso   1.00
H76    H     0.54639   0.75280   0.98917   0.00000  Uiso   1.00
H77    H     0.67400   0.87463   0.64746   0.00000  Uiso   1.00
H78    H     0.67493   0.97628   0.64026   0.00000  Uiso   1.00
H79    H     0.65512   0.83040   0.52875   0.00000  Uiso   1.00
H80    H     0.70870   0.81728   0.76561   0.00000  Uiso   1.00
H81    H     0.64953   0.08885   0.64442   0.00000  Uiso   1.00
H82    H     0.60777   0.78125   0.40932   0.00000  Uiso   1.00
H83    H     0.72074   0.75357   0.90879   0.00000  Uiso   1.00
O84    O     0.55929   0.15532   0.68155   0.00000  Uiso   1.00
O85    O     0.50450   0.75175   0.37311   0.00000  Uiso   1.00
O86    O     0.65272   0.71544   0.02840   0.00000  Uiso   1.00
N87    N     0.51609   0.07431   0.70689   0.00000  Uiso   1.00
N88    N     0.47704   0.78673   0.48707   0.00000  Uiso   1.00
N89    N     0.58266   0.76084   0.95403   0.00000  Uiso   1.00
N90    N     0.60990   0.07473   0.66364   0.00000  Uiso   1.00
N91    N     0.57086   0.78715   0.44382   0.00000  Uiso   1.00
N92    N     0.67648   0.76126   0.91077   0.00000  Uiso   1.00
C93    C     0.64913   0.53170   0.81294   0.00000  Uiso   1.00
C94    C     0.63737   0.53115   0.89828   0.00000  Uiso   1.00
C95    C     0.61783   0.48892   0.94753   0.00000  Uiso   1.00
C96    C     0.60972   0.49629   0.02360   0.00000  Uiso   1.00
C97    C     0.58975   0.48816   0.15218   0.00000  Uiso   1.00
C98    C     0.61060   0.57775   0.77897   0.00000  Uiso   1.00
C99    C     0.56858   0.57471   0.72789   0.00000  Uiso   1.00
C100   C     0.53795   0.62131   0.70352   0.00000  Uiso   1.00
C101   C     0.47646   0.68553   0.64684   0.00000  Uiso   1.00
C102   C     0.71335   0.54662   0.79413   0.00000  Uiso   1.00
C103   C     0.75772   0.51742   0.75577   0.00000  Uiso   1.00
C104   C     0.81359   0.53782   0.74414   0.00000  Uiso   1.00
C105   C     0.91164   0.55372   0.71099   0.00000  Uiso   1.00
C106   C     0.66947   0.61987   0.86047   0.00000  Uiso   1.00
C107   C     0.64842   0.57904   0.92410   0.00000  Uiso   1.00
C108   C     0.64034   0.58648   0.00012   0.00000  Uiso   1.00
C109   C     0.62080   0.54427   0.04946   0.00000  Uiso   1.00
C110   C     0.62165   0.62564   0.80479   0.00000  Uiso   1.00
C111   C     0.59108   0.67226   0.78048   0.00000  Uiso   1.00
C112   C     0.54902   0.66929   0.72938   0.00000  Uiso   1.00
C113   C     0.72441   0.59452   0.81995   0.00000  Uiso   1.00
C114   C     0.78022   0.61497   0.80837   0.00000  Uiso   1.00
C115   C     0.82466   0.58580   0.77001   0.00000  Uiso   1.00
H116   H     0.64052   0.49442   0.79283   0.00000  Uiso   1.00
H117   H     0.60928   0.45187   0.92752   0.00000  Uiso   1.00
H118   H     0.56004   0.53764   0.70792   0.00000  Uiso   1.00
H119   H     0.74915   0.48036   0.73580   0.00000  Uiso   1.00
H120   H     0.57949   0.42582   0.08823   0.00000  Uiso   1.00
H121   H     0.47568   0.60668   0.62517   0.00000  Uiso   1.00
H122   H     0.87445   0.48589   0.68396   0.00000  Uiso   1.00
H123   H     0.67808   0.65716   0.88057   0.00000  Uiso   1.00
H124   H     0.64889   0.62354   0.02008   0.00000  Uiso   1.00
H125   H     0.59965   0.70932   0.80047   0.00000  Uiso   1.00
H126   H     0.78876   0.65203   0.82835   0.00000  Uiso   1.00
H127   H     0.61164   0.56516   0.16335   0.00000  Uiso   1.00
H128   H     0.50783   0.74602   0.70028   0.00000  Uiso   1.00
H129   H     0.90660   0.62523   0.75908   0.00000  Uiso   1.00
O130   O     0.57567   0.47045   0.21598   0.00000  Uiso   1.00
O131   O     0.43948   0.70773   0.60844   0.00000  Uiso   1.00
O132   O     0.96266   0.54925   0.68558   0.00000  Uiso   1.00
N133   N     0.59107   0.46323   0.08677   0.00000  Uiso   1.00
N134   N     0.49401   0.63232   0.65384   0.00000  Uiso   1.00
N135   N     0.86683   0.51940   0.70878   0.00000  Uiso   1.00
N136   N     0.60837   0.53820   0.12719   0.00000  Uiso   1.00
N137   N     0.51131   0.70729   0.69426   0.00000  Uiso   1.00
N138   N     0.88413   0.59437   0.74921   0.00000  Uiso   1.00
C139   C     0.06273   0.20191   0.19468   0.00000  Uiso   1.00
C140   C     0.12847   0.18408   0.18800   0.00000  Uiso   1.00
C141   C     0.15139   0.13244   0.19853   0.00000  Uiso   1.00
C142   C     0.21281   0.12430   0.18986   0.00000  Uiso   1.00
C143   C     0.30925   0.09022   0.18225   0.00000  Uiso   1.00
C144   C     0.05076   0.23313   0.11953   0.00000  Uiso   1.00
C145   C     0.00833   0.22274   0.07251   0.00000  Uiso   1.00
C146   C     0.00432   0.25590   0.00621   0.00000  Uiso   1.00
C147   C     0.98008   0.29800   0.89234   0.00000  Uiso   1.00
C148   C     0.05577   0.24153   0.25313   0.00000  Uiso   1.00
C149   C     0.01754   0.23821   0.31842   0.00000  Uiso   1.00
C150   C     0.01774   0.27845   0.36459   0.00000  Uiso   1.00
C151   C     0.00127   0.33359   0.45815   0.00000  Uiso   1.00
C152   C     0.13105   0.27927   0.16056   0.00000  Uiso   1.00
C153   C     0.16558   0.22610   0.16946   0.00000  Uiso   1.00
C154   C     0.22698   0.21803   0.16077   0.00000  Uiso   1.00
C155   C     0.24999   0.16639   0.17129   0.00000  Uiso   1.00
C156   C     0.08787   0.27515   0.10099   0.00000  Uiso   1.00
C157   C     0.08392   0.30833   0.03475   0.00000  Uiso   1.00
C158   C     0.04150   0.29800   0.98764   0.00000  Uiso   1.00
C159   C     0.09288   0.28355   0.23459   0.00000  Uiso   1.00
C160   C     0.09314   0.32380   0.28067   0.00000  Uiso   1.00
C161   C     0.05491   0.32054   0.34602   0.00000  Uiso   1.00
H162   H     0.03383   0.16920   0.20911   0.00000  Uiso   1.00
H163   H     0.12265   0.09993   0.21287   0.00000  Uiso   1.00
H164   H     0.97961   0.19023   0.08687   0.00000  Uiso   1.00
H165   H     0.98882   0.20569   0.33275   0.00000  Uiso   1.00
H166   H     0.23749   0.04167   0.20883   0.00000  Uiso   1.00
H167   H     0.93587   0.23207   0.94317   0.00000  Uiso   1.00
H168   H     0.95529   0.26468   0.46165   0.00000  Uiso   1.00
H169   H     0.15995   0.31199   0.14612   0.00000  Uiso   1.00
H170   H     0.25569   0.25056   0.14643   0.00000  Uiso   1.00
H171   H     0.11265   0.34085   0.02043   0.00000  Uiso   1.00
H172   H     0.12186   0.35631   0.26630   0.00000  Uiso   1.00
H173   H     0.34547   0.16393   0.15490   0.00000  Uiso   1.00
H174   H     0.04385   0.35432   0.88924   0.00000  Uiso   1.00
H175   H     0.06327   0.38693   0.40772   0.00000  Uiso   1.00
O176   O     0.35219   0.05981   0.18317   0.00000  Uiso   1.00
O177   O     0.95647   0.30961   0.83465   0.00000  Uiso   1.00
O178   O     0.98195   0.35239   0.51488   0.00000  Uiso   1.00
N179   N     0.24977   0.07888   0.19611   0.00000  Uiso   1.00
N180   N     0.96777   0.25688   0.94773   0.00000  Uiso   1.00
N181   N     0.98592   0.28738   0.43246   0.00000  Uiso   1.00
N182   N     0.30787   0.14466   0.16709   0.00000  Uiso   1.00
N183   N     0.02588   0.32266   0.91871   0.00000  Uiso   1.00
N184   N     0.04402   0.35316   0.40344   0.00000  Uiso   1.00
C185   C     0.73099   0.42923   0.37960   0.00000  Uiso   1.00
C186   C     0.74509   0.41786   0.46172   0.00000  Uiso   1.00
C187   C     0.70395   0.40728   0.52300   0.00000  Uiso   1.00
C188   C     0.72576   0.39789   0.59359   0.00000  Uiso   1.00
C189   C     0.73842   0.38004   0.71975   0.00000  Uiso   1.00
C190   C     0.76868   0.38881   0.33668   0.00000  Uiso   1.00
C191   C     0.74736   0.35383   0.29280   0.00000  Uiso   1.00
C192   C     0.78902   0.31999   0.25813   0.00000  Uiso   1.00
C193   C     0.83830   0.25708   0.19010   0.00000  Uiso   1.00
C194   C     0.75588   0.48246   0.35164   0.00000  Uiso   1.00
C195   C     0.72381   0.52621   0.32033   0.00000  Uiso   1.00
C196   C     0.75471   0.57121   0.29824   0.00000  Uiso   1.00
C197   C     0.78412   0.65369   0.25345   0.00000  Uiso   1.00
C198   C     0.84288   0.43135   0.39601   0.00000  Uiso   1.00
C199   C     0.80587   0.41901   0.47063   0.00000  Uiso   1.00
C200   C     0.82775   0.40964   0.54115   0.00000  Uiso   1.00
C201   C     0.78665   0.39905   0.60252   0.00000  Uiso   1.00
C202   C     0.82945   0.38997   0.34559   0.00000  Uiso   1.00
C203   C     0.87115   0.35618   0.31096   0.00000  Uiso   1.00
C204   C     0.84991   0.32115   0.26706   0.00000  Uiso   1.00
C205   C     0.81665   0.48362   0.36055   0.00000  Uiso   1.00
C206   C     0.84761   0.52856   0.33849   0.00000  Uiso   1.00
C207   C     0.81559   0.57237   0.30716   0.00000  Uiso   1.00
H208   H     0.68368   0.42832   0.37265   0.00000  Uiso   1.00
H209   H     0.65693   0.40639   0.51607   0.00000  Uiso   1.00
H210   H     0.70033   0.35295   0.28591   0.00000  Uiso   1.00
H211   H     0.67679   0.52530   0.31344   0.00000  Uiso   1.00
H212   H     0.65407   0.38256   0.67901   0.00000  Uiso   1.00
H213   H     0.74559   0.26988   0.19368   0.00000  Uiso   1.00
H214   H     0.69594   0.63332   0.25173   0.00000  Uiso   1.00
H215   H     0.89020   0.43225   0.40295   0.00000  Uiso   1.00
H216   H     0.87478   0.41054   0.54803   0.00000  Uiso   1.00
H217   H     0.91818   0.35709   0.31787   0.00000  Uiso   1.00
H218   H     0.89464   0.52944   0.34540   0.00000  Uiso   1.00
H219   H     0.83089   0.38592   0.70495   0.00000  Uiso   1.00
H220   H     0.92241   0.27325   0.21961   0.00000  Uiso   1.00
H221   H     0.87276   0.63668   0.27767   0.00000  Uiso   1.00
O222   O     0.72861   0.36987   0.78687   0.00000  Uiso   1.00
O223   O     0.84868   0.22205   0.15013   0.00000  Uiso   1.00
O224   O     0.78355   0.69887   0.22629   0.00000  Uiso   1.00
N225   N     0.69780   0.38634   0.66520   0.00000  Uiso   1.00
N226   N     0.78336   0.28099   0.21146   0.00000  Uiso   1.00
N227   N     0.73695   0.62077   0.26571   0.00000  Uiso   1.00
N228   N     0.79294   0.38815   0.67916   0.00000  Uiso   1.00
N229   N     0.87851   0.28280   0.22542   0.00000  Uiso   1.00
N230   N     0.83210   0.62258   0.27967   0.00000  Uiso   1.00
C231   C     0.94292   0.52592   0.96365   0.00000  Uiso   1.00
C232   C     0.92756   0.58355   0.97517   0.00000  Uiso   1.00
C233   C     0.93629   0.62607   0.92109   0.00000  Uiso   1.00
C234   C     0.91929   0.67570   0.94274   0.00000  Uiso   1.00
C235   C     0.89919   0.76415   0.94949   0.00000  Uiso   1.00
C236   C     0.88544   0.49765   0.98399   0.00000  Uiso   1.00
C237   C     0.85877   0.46795   0.93733   0.00000  Uiso   1.00
C238   C     0.80632   0.44527   0.96641   0.00000  Uiso   1.00
C239   C     0.72086   0.40033   0.98687   0.00000  Uiso   1.00
C240   C     0.98443   0.50514   0.02404   0.00000  Uiso   1.00
C241   C     0.04097   0.48171   0.01105   0.00000  Uiso   1.00
C242   C     0.07185   0.46531   0.07385   0.00000  Uiso   1.00
C243   C     0.14008   0.43199   0.15650   0.00000  Uiso   1.00
C244   C     0.89722   0.53845   0.09826   0.00000  Uiso   1.00
C245   C     0.90273   0.59035   0.04829   0.00000  Uiso   1.00
C246   C     0.88572   0.63993   0.07002   0.00000  Uiso   1.00
C247   C     0.89442   0.68252   0.01599   0.00000  Uiso   1.00
C248   C     0.86062   0.50446   0.05710   0.00000  Uiso   1.00
C249   C     0.80820   0.48181   0.08626   0.00000  Uiso   1.00
C250   C     0.78145   0.45208   0.03966   0.00000  Uiso   1.00
C251   C     0.95960   0.51194   0.09715   0.00000  Uiso   1.00
C252   C     0.99040   0.49557   0.15999   0.00000  Uiso   1.00
C253   C     0.04698   0.47213   0.14710   0.00000  Uiso   1.00
H254   H     0.96224   0.52062   0.90673   0.00000  Uiso   1.00
H255   H     0.95549   0.62079   0.86451   0.00000  Uiso   1.00
H256   H     0.87799   0.46269   0.88075   0.00000  Uiso   1.00
H257   H     0.06016   0.47645   0.95447   0.00000  Uiso   1.00
H258   H     0.93704   0.73484   0.84994   0.00000  Uiso   1.00
H259   H     0.77364   0.40146   0.88420   0.00000  Uiso   1.00
H260   H     0.15778   0.43048   0.03963   0.00000  Uiso   1.00
H261   H     0.87789   0.54374   0.15519   0.00000  Uiso   1.00
H262   H     0.86651   0.64519   0.12661   0.00000  Uiso   1.00
H263   H     0.78901   0.48708   0.14285   0.00000  Uiso   1.00
H264   H     0.97118   0.50085   0.21656   0.00000  Uiso   1.00
H265   H     0.86482   0.75464   0.06267   0.00000  Uiso   1.00
H266   H     0.70141   0.42126   0.09692   0.00000  Uiso   1.00
H267   H     0.08556   0.45028   0.25236   0.00000  Uiso   1.00
O268   O     0.89495   0.81106   0.93302   0.00000  Uiso   1.00
O269   O     0.68058   0.37367   0.97796   0.00000  Uiso   1.00
O270   O     0.18457   0.41174   0.18189   0.00000  Uiso   1.00
N271   N     0.92162   0.72558   0.90394   0.00000  Uiso   1.00
N272   N     0.76884   0.41390   0.93596   0.00000  Uiso   1.00
N273   N     0.12798   0.44102   0.08128   0.00000  Uiso   1.00
N274   N     0.88276   0.73624   0.01840   0.00000  Uiso   1.00
N275   N     0.72997   0.42455   0.05042   0.00000  Uiso   1.00
N276   N     0.08911   0.45167   0.19574   0.00000  Uiso   1.00
C277   C     0.21775   0.32874   0.65230   0.00000  Uiso   1.00
C278   C     0.15625   0.35641   0.64718   0.00000  Uiso   1.00
C279   C     0.10527   0.34285   0.69232   0.00000  Uiso   1.00
C280   C     0.05336   0.37305   0.67874   0.00000  Uiso   1.00
C281   C     0.95801   0.40959   0.67944   0.00000  Uiso   1.00
C282   C     0.25933   0.37116   0.66414   0.00000  Uiso   1.00
C283   C     0.29502   0.37000   0.72354   0.00000  Uiso   1.00
C284   C     0.32989   0.41261   0.72423   0.00000  Uiso   1.00
C285   C     0.39460   0.47204   0.75122   0.00000  Uiso   1.00
C286   C     0.23662   0.31194   0.57407   0.00000  Uiso   1.00
C287   C     0.25324   0.26099   0.55773   0.00000  Uiso   1.00
C288   C     0.26901   0.25375   0.48259   0.00000  Uiso   1.00
C289   C     0.29846   0.22123   0.36974   0.00000  Uiso   1.00
C290   C     0.21623   0.40647   0.54792   0.00000  Uiso   1.00
C291   C     0.15543   0.39862   0.59048   0.00000  Uiso   1.00
C292   C     0.10358   0.42884   0.57683   0.00000  Uiso   1.00
C293   C     0.05253   0.41534   0.62195   0.00000  Uiso   1.00
C294   C     0.25850   0.41337   0.60745   0.00000  Uiso   1.00
C295   C     0.29333   0.45599   0.60805   0.00000  Uiso   1.00
C296   C     0.32906   0.45490   0.66743   0.00000  Uiso   1.00
C297   C     0.23580   0.35416   0.51737   0.00000  Uiso   1.00
C298   C     0.25155   0.34699   0.44225   0.00000  Uiso   1.00
C299   C     0.26818   0.29604   0.42579   0.00000  Uiso   1.00
H300   H     0.21840   0.29588   0.69644   0.00000  Uiso   1.00
H301   H     0.10593   0.31018   0.73619   0.00000  Uiso   1.00
H302   H     0.29566   0.33732   0.76740   0.00000  Uiso   1.00
H303   H     0.25388   0.22833   0.60162   0.00000  Uiso   1.00
H304   H     0.98088   0.34467   0.75528   0.00000  Uiso   1.00
H305   H     0.38094   0.40189   0.82106   0.00000  Uiso   1.00
H306   H     0.29284   0.17206   0.47148   0.00000  Uiso   1.00
H307   H     0.21558   0.43934   0.50378   0.00000  Uiso   1.00
H308   H     0.10295   0.46151   0.53296   0.00000  Uiso   1.00
H309   H     0.29268   0.48865   0.56417   0.00000  Uiso   1.00
H310   H     0.25090   0.37967   0.39839   0.00000  Uiso   1.00
H311   H     0.97846   0.46750   0.59033   0.00000  Uiso   1.00
H312   H     0.37853   0.52472   0.65611   0.00000  Uiso   1.00
H313   H     0.29043   0.29489   0.30653   0.00000  Uiso   1.00
O314   O     0.90564   0.41809   0.69549   0.00000  Uiso   1.00
O315   O     0.43051   0.49316   0.78178   0.00000  Uiso   1.00
O316   O     0.31492   0.19163   0.32315   0.00000  Uiso   1.00
N317   N     0.99577   0.37053   0.71244   0.00000  Uiso   1.00
N318   N     0.36979   0.42403   0.77395   0.00000  Uiso   1.00
N319   N     0.28744   0.20916   0.44713   0.00000  Uiso   1.00
N320   N     0.99447   0.43662   0.62368   0.00000  Uiso   1.00
N321   N     0.36849   0.49012   0.68519   0.00000  Uiso   1.00
N322   N     0.28614   0.27525   0.35837   0.00000  Uiso   1.00
C323   C     0.58594   0.27345   0.48616   0.00000  Uiso   1.00
C324   C     0.60307   0.21521   0.48157   0.00000  Uiso   1.00
C325   C     0.66044   0.19234   0.48022   0.00000  Uiso   1.00
C326   C     0.66681   0.13840   0.47590   0.00000  Uiso   1.00
C327   C     0.70090   0.05251   0.46925   0.00000  Uiso   1.00
C328   C     0.54160   0.27612   0.55527   0.00000  Uiso   1.00
C329   C     0.54729   0.30448   0.61587   0.00000  Uiso   1.00
C330   C     0.50190   0.30183   0.67359   0.00000  Uiso   1.00
C331   C     0.44054   0.31055   0.78133   0.00000  Uiso   1.00
C332   C     0.55098   0.29126   0.41804   0.00000  Uiso   1.00
C333   C     0.56454   0.33235   0.36327   0.00000  Uiso   1.00
C334   C     0.52704   0.34246   0.30546   0.00000  Uiso   1.00
C335   C     0.48024   0.37467   0.20013   0.00000  Uiso   1.00
C336   C     0.49522   0.21834   0.48090   0.00000  Uiso   1.00
C337   C     0.55379   0.18527   0.47872   0.00000  Uiso   1.00
C338   C     0.56007   0.13136   0.47440   0.00000  Uiso   1.00
C339   C     0.61744   0.10841   0.47304   0.00000  Uiso   1.00
C340   C     0.49232   0.24619   0.55241   0.00000  Uiso   1.00
C341   C     0.44691   0.24350   0.61005   0.00000  Uiso   1.00
C342   C     0.45253   0.27184   0.67073   0.00000  Uiso   1.00
C343   C     0.50170   0.26132   0.41518   0.00000  Uiso   1.00
C344   C     0.46417   0.27137   0.35744   0.00000  Uiso   1.00
C345   C     0.47767   0.31247   0.30259   0.00000  Uiso   1.00
H346   H     0.62430   0.29676   0.48839   0.00000  Uiso   1.00
H347   H     0.69857   0.21552   0.48244   0.00000  Uiso   1.00
H348   H     0.58542   0.32765   0.61807   0.00000  Uiso   1.00
H349   H     0.60267   0.35551   0.36550   0.00000  Uiso   1.00
H350   H     0.75917   0.11224   0.47461   0.00000  Uiso   1.00
H351   H     0.52059   0.34868   0.76057   0.00000  Uiso   1.00
H352   H     0.55697   0.40744   0.22799   0.00000  Uiso   1.00
H353   H     0.45685   0.19503   0.47867   0.00000  Uiso   1.00
H354   H     0.52193   0.10820   0.47218   0.00000  Uiso   1.00
H355   H     0.40879   0.22033   0.60781   0.00000  Uiso   1.00
H356   H     0.42604   0.24819   0.35525   0.00000  Uiso   1.00
H357   H     0.61581   0.02514   0.46629   0.00000  Uiso   1.00
H358   H     0.37723   0.26159   0.75225   0.00000  Uiso   1.00
H359   H     0.41360   0.32034   0.21967   0.00000  Uiso   1.00
O360   O     0.73332   0.01340   0.46639   0.00000  Uiso   1.00
O361   O     0.42031   0.32362   0.84155   0.00000  Uiso   1.00
O362   O     0.46804   0.40070   0.14281   0.00000  Uiso   1.00
N363   N     0.71650   0.10366   0.47353   0.00000  Uiso   1.00
N364   N     0.49345   0.32471   0.74089   0.00000  Uiso   1.00
N365   N     0.52745   0.37966   0.24298   0.00000  Uiso   1.00
N366   N     0.63936   0.05679   0.46905   0.00000  Uiso   1.00
N367   N     0.41631   0.27784   0.73641   0.00000  Uiso   1.00
N368   N     0.45030   0.33279   0.23850   0.00000  Uiso   1.00
C369   C     0.37240   0.57794   0.40218   0.00000  Uiso   1.00
C370   C     0.40513   0.60059   0.32876   0.00000  Uiso   1.00
C371   C     0.41394   0.65347   0.30768   0.00000  Uiso   1.00
C372   C     0.44501   0.66619   0.23826   0.00000  Uiso   1.00
C373   C     0.49258   0.70725   0.13136   0.00000  Uiso   1.00
C374   C     0.41610   0.53768   0.43962   0.00000  Uiso   1.00
C375   C     0.43413   0.53768   0.51174   0.00000  Uiso   1.00
C376   C     0.47442   0.49743   0.53564   0.00000  Uiso   1.00
C377   C     0.53900   0.44081   0.60087   0.00000  Uiso   1.00
C378   C     0.32305   0.54659   0.37937   0.00000  Uiso   1.00
C379   C     0.26285   0.55406   0.40085   0.00000  Uiso   1.00
C380   C     0.22481   0.52130   0.37404   0.00000  Uiso   1.00
C381   C     0.14492   0.47851   0.34572   0.00000  Uiso   1.00
C382   C     0.41189   0.50647   0.31639   0.00000  Uiso   1.00
C383   C     0.42658   0.56176   0.28216   0.00000  Uiso   1.00
C384   C     0.45764   0.57440   0.21276   0.00000  Uiso   1.00
C385   C     0.46650   0.62730   0.19157   0.00000  Uiso   1.00
C386   C     0.43755   0.49886   0.39302   0.00000  Uiso   1.00
C387   C     0.47782   0.45861   0.41682   0.00000  Uiso   1.00
C388   C     0.49591   0.45854   0.48896   0.00000  Uiso   1.00
C389   C     0.34450   0.50777   0.33277   0.00000  Uiso   1.00
C390   C     0.30655   0.47499   0.30592   0.00000  Uiso   1.00
C391   C     0.24630   0.48242   0.32735   0.00000  Uiso   1.00
H392   H     0.35571   0.60816   0.43846   0.00000  Uiso   1.00
H393   H     0.39734   0.68350   0.34376   0.00000  Uiso   1.00
H394   H     0.41752   0.56772   0.54779   0.00000  Uiso   1.00
H395   H     0.24627   0.58410   0.43691   0.00000  Uiso   1.00
H396   H     0.45298   0.74991   0.21822   0.00000  Uiso   1.00
H397   H     0.49551   0.50577   0.64845   0.00000  Uiso   1.00
H398   H     0.13439   0.54031   0.41464   0.00000  Uiso   1.00
H399   H     0.42860   0.47625   0.28011   0.00000  Uiso   1.00
H400   H     0.47423   0.54435   0.17671   0.00000  Uiso   1.00
H401   H     0.49441   0.42857   0.38074   0.00000  Uiso   1.00
H402   H     0.32316   0.44495   0.26986   0.00000  Uiso   1.00
H403   H     0.51539   0.63697   0.08264   0.00000  Uiso   1.00
H404   H     0.55792   0.39283   0.51287   0.00000  Uiso   1.00
H405   H     0.19680   0.42737   0.27906   0.00000  Uiso   1.00
O406   O     0.51291   0.74062   0.08528   0.00000  Uiso   1.00
O407   O     0.56869   0.42031   0.64972   0.00000  Uiso   1.00
O408   O     0.09492   0.46563   0.34297   0.00000  Uiso   1.00
N409   N     0.46140   0.71398   0.20050   0.00000  Uiso   1.00
N410   N     0.50117   0.48573   0.60273   0.00000  Uiso   1.00
N411   N     0.16355   0.51802   0.38415   0.00000  Uiso   1.00
N412   N     0.49498   0.65321   0.12754   0.00000  Uiso   1.00
N413   N     0.53475   0.42496   0.52977   0.00000  Uiso   1.00
N414   N     0.19714   0.45725   0.31120   0.00000  Uiso   1.00
C415   C     0.49128   0.28243   0.03291   0.00000  Uiso   1.00
C416   C     0.42705   0.29524   0.01465   0.00000  Uiso   1.00
C417   C     0.39449   0.34213   0.02501   0.00000  Uiso   1.00
C418   C     0.33638   0.34614   0.00482   0.00000  Uiso   1.00
C419   C     0.24037   0.37233   0.98098   0.00000  Uiso   1.00
C420   C     0.49062   0.23213   0.08701   0.00000  Uiso   1.00
C421   C     0.51152   0.22596   0.15821   0.00000  Uiso   1.00
C422   C     0.50694   0.17684   0.19893   0.00000  Uiso   1.00
C423   C     0.50967   0.10504   0.28741   0.00000  Uiso   1.00
C424   C     0.52515   0.26766   0.95990   0.00000  Uiso   1.00
C425   C     0.57509   0.29134   0.92423   0.00000  Uiso   1.00
C426   C     0.59959   0.27212   0.85794   0.00000  Uiso   1.00
C427   C     0.65593   0.25548   0.74906   0.00000  Uiso   1.00
C428   C     0.44601   0.20618   0.97864   0.00000  Uiso   1.00
C429   C     0.40246   0.25383   0.98517   0.00000  Uiso   1.00
C430   C     0.34439   0.25777   0.96496   0.00000  Uiso   1.00
C431   C     0.31175   0.30466   0.97528   0.00000  Uiso   1.00
C432   C     0.46603   0.19072   0.05754   0.00000  Uiso   1.00
C433   C     0.46142   0.14160   0.09816   0.00000  Uiso   1.00
C434   C     0.48230   0.13535   0.16940   0.00000  Uiso   1.00
C435   C     0.50056   0.22624   0.93042   0.00000  Uiso   1.00
C436   C     0.52499   0.20698   0.86418   0.00000  Uiso   1.00
C437   C     0.57495   0.23063   0.82841   0.00000  Uiso   1.00
H438   H     0.51043   0.31467   0.05587   0.00000  Uiso   1.00
H439   H     0.41353   0.37417   0.04783   0.00000  Uiso   1.00
H440   H     0.53055   0.25801   0.18100   0.00000  Uiso   1.00
H441   H     0.59411   0.32339   0.94706   0.00000  Uiso   1.00
H442   H     0.29525   0.42187   0.02594   0.00000  Uiso   1.00
H443   H     0.54201   0.17694   0.30673   0.00000  Uiso   1.00
H444   H     0.67604   0.31479   0.81342   0.00000  Uiso   1.00
H445   H     0.42686   0.17393   0.95569   0.00000  Uiso   1.00
H446   H     0.32537   0.22571   0.94215   0.00000  Uiso   1.00
H447   H     0.44239   0.10956   0.07533   0.00000  Uiso   1.00
H448   H     0.50595   0.17493   0.84138   0.00000  Uiso   1.00
H449   H     0.22369   0.30137   0.94017   0.00000  Uiso   1.00
H450   H     0.47045   0.05644   0.22097   0.00000  Uiso   1.00
H451   H     0.60448   0.19430   0.72765   0.00000  Uiso   1.00
O452   O     0.19421   0.39821   0.97598   0.00000  Uiso   1.00
O453   O     0.51796   0.07688   0.34436   0.00000  Uiso   1.00
O454   O     0.69380   0.25774   0.69714   0.00000  Uiso   1.00
N455   N     0.29234   0.38641   0.00760   0.00000  Uiso   1.00
N456   N     0.52304   0.15742   0.27013   0.00000  Uiso   1.00
N457   N     0.64835   0.28629   0.80893   0.00000  Uiso   1.00
N458   N     0.25383   0.32157   0.96144   0.00000  Uiso   1.00
N459   N     0.48453   0.09258   0.22398   0.00000  Uiso   1.00
N460   N     0.60985   0.22145   0.76278   0.00000  Uiso   1.00
C461   C     0.83731   0.09338   0.86706   0.00000  Uiso   1.00
C462   C     0.83491   0.12217   0.78811   0.00000  Uiso   1.00
C463   C     0.88299   0.14228   0.74290   0.00000  Uiso   1.00
C464   C     0.87158   0.16730   0.67247   0.00000  Uiso   1.00
C465   C     0.87659   0.21131   0.55359   0.00000  Uiso   1.00
C466   C     0.79323   0.12371   0.91829   0.00000  Uiso   1.00
C467   C     0.80627   0.14509   0.98255   0.00000  Uiso   1.00
C468   C     0.75976   0.17140   0.02171   0.00000  Uiso   1.00
C469   C     0.70006   0.21776   0.10498   0.00000  Uiso   1.00
C470   C     0.81130   0.04021   0.86415   0.00000  Uiso   1.00
C471   C     0.83953   0.99139   0.88290   0.00000  Uiso   1.00
C472   C     0.80824   0.94740   0.87650   0.00000  Uiso   1.00
C473   C     0.77659   0.86412   0.87570   0.00000  Uiso   1.00
C474   C     0.73154   0.10205   0.82236   0.00000  Uiso   1.00
C475   C     0.77746   0.12688   0.76383   0.00000  Uiso   1.00
C476   C     0.76597   0.15187   0.69345   0.00000  Uiso   1.00
C477   C     0.81403   0.17201   0.64815   0.00000  Uiso   1.00
C478   C     0.73578   0.12842   0.89402   0.00000  Uiso   1.00
C479   C     0.68925   0.15469   0.93310   0.00000  Uiso   1.00
C480   C     0.70221   0.17612   0.99739   0.00000  Uiso   1.00
C481   C     0.75386   0.04492   0.83987   0.00000  Uiso   1.00
C482   C     0.72251   0.00099   0.83345   0.00000  Uiso   1.00
C483   C     0.75069   0.95212   0.85218   0.00000  Uiso   1.00
H484   H     0.88203   0.08971   0.88596   0.00000  Uiso   1.00
H485   H     0.92744   0.13863   0.76171   0.00000  Uiso   1.00
H486   H     0.85073   0.14144   0.00133   0.00000  Uiso   1.00
H487   H     0.88399   0.98776   0.90169   0.00000  Uiso   1.00
H488   H     0.95245   0.19495   0.61326   0.00000  Uiso   1.00
H489   H     0.79069   0.20086   0.11852   0.00000  Uiso   1.00
H490   H     0.86082   0.87681   0.90841   0.00000  Uiso   1.00
H491   H     0.68682   0.10572   0.80346   0.00000  Uiso   1.00
H492   H     0.72151   0.15552   0.67468   0.00000  Uiso   1.00
H493   H     0.64480   0.15833   0.91430   0.00000  Uiso   1.00
H494   H     0.67806   0.00465   0.81466   0.00000  Uiso   1.00
H495   H     0.78531   0.20866   0.54262   0.00000  Uiso   1.00
H496   H     0.62355   0.21457   0.04788   0.00000  Uiso   1.00
H497   H     0.69368   0.89052   0.83777   0.00000  Uiso   1.00
O498   O     0.89522   0.23429   0.49472   0.00000  Uiso   1.00
O499   O     0.68300   0.24203   0.15761   0.00000  Uiso   1.00
O500   O     0.77501   0.81688   0.88195   0.00000  Uiso   1.00
N501   N     0.90835   0.19134   0.61430   0.00000  Uiso   1.00
N502   N     0.75712   0.19687   0.08668   0.00000  Uiso   1.00
N503   N     0.82268   0.89390   0.89027   0.00000  Uiso   1.00
N504   N     0.81841   0.19871   0.57629   0.00000  Uiso   1.00
N505   N     0.66718   0.20425   0.04867   0.00000  Uiso   1.00
N506   N     0.73274   0.90128   0.85226   0.00000  Uiso   1.00
C507   C     0.57071   0.95785   0.17987   0.00000  Uiso   1.00
C508   C     0.59235   0.90015   0.18038   0.00000  Uiso   1.00
C509   C     0.57142   0.85907   0.23079   0.00000  Uiso   1.00
C510   C     0.59699   0.80910   0.22187   0.00000  Uiso   1.00
C511   C     0.62380   0.72080   0.23141   0.00000  Uiso   1.00
C512   C     0.62567   0.98820   0.18572   0.00000  Uiso   1.00
C513   C     0.63274   0.02116   0.24060   0.00000  Uiso   1.00
C514   C     0.68635   0.04531   0.23616   0.00000  Uiso   1.00
C515   C     0.76486   0.09374   0.25395   0.00000  Uiso   1.00
C516   C     0.55073   0.97445   0.10122   0.00000  Uiso   1.00
C517   C     0.49480   0.99586   0.08505   0.00000  Uiso   1.00
C518   C     0.48532   0.00845   0.00946   0.00000  Uiso   1.00
C519   C     0.44748   0.03553   0.89605   0.00000  Uiso   1.00
C520   C     0.65334   0.94214   0.07439   0.00000  Uiso   1.00
C521   C     0.63724   0.89162   0.12309   0.00000  Uiso   1.00
C522   C     0.66284   0.84169   0.11409   0.00000  Uiso   1.00
C523   C     0.64195   0.80055   0.16447   0.00000  Uiso   1.00
C524   C     0.67055   0.97967   0.12843   0.00000  Uiso   1.00
C525   C     0.72416   0.00378   0.12390   0.00000  Uiso   1.00
C526   C     0.73131   0.03676   0.17877   0.00000  Uiso   1.00
C527   C     0.59561   0.96591   0.04392   0.00000  Uiso   1.00
C528   C     0.58622   0.97848   0.96835   0.00000  Uiso   1.00
C529   C     0.53028   0.99990   0.95207   0.00000  Uiso   1.00
H530   H     0.53577   0.96450   0.22447   0.00000  Uiso   1.00
H531   H     0.53669   0.86569   0.27512   0.00000  Uiso   1.00
H532   H     0.59799   0.02776   0.28493   0.00000  Uiso   1.00
H533   H     0.46008   0.00246   0.12940   0.00000  Uiso   1.00
H534   H     0.55752   0.75239   0.30603   0.00000  Uiso   1.00
H535   H     0.68678   0.09412   0.32669   0.00000  Uiso   1.00
H536   H     0.39595   0.04078   0.99873   0.00000  Uiso   1.00
H537   H     0.68828   0.93550   0.02978   0.00000  Uiso   1.00
H538   H     0.69758   0.83510   0.06975   0.00000  Uiso   1.00
H539   H     0.75888   0.99717   0.07955   0.00000  Uiso   1.00
H540   H     0.62096   0.97187   0.92402   0.00000  Uiso   1.00
H541   H     0.68810   0.72756   0.13934   0.00000  Uiso   1.00
H542   H     0.81736   0.06930   0.16000   0.00000  Uiso   1.00
H543   H     0.52653   0.01595   0.83204   0.00000  Uiso   1.00
O544   O     0.62619   0.67445   0.25251   0.00000  Uiso   1.00
O545   O     0.79576   0.12281   0.27960   0.00000  Uiso   1.00
O546   O     0.41420   0.05282   0.84932   0.00000  Uiso   1.00
N547   N     0.58697   0.76032   0.26131   0.00000  Uiso   1.00
N548   N     0.70782   0.07982   0.28063   0.00000  Uiso   1.00
N549   N     0.43593   0.02996   0.97401   0.00000  Uiso   1.00
N550   N     0.65724   0.74696   0.17161   0.00000  Uiso   1.00
N551   N     0.77809   0.06646   0.19093   0.00000  Uiso   1.00
N552   N     0.50619   0.01660   0.88432   0.00000  Uiso   1.00
