data_job_02533
_audit_creation_date              2018-12-19
_audit_creation_method            'Materials Studio'
_symmetry_space_group_name_H-M    'P1'
_symmetry_Int_Tables_number       1
_symmetry_cell_setting            triclinic
loop_
_symmetry_equiv_pos_as_xyz
  x,y,z
_cell_length_a                    13.5022
_cell_length_b                    13.5022
_cell_length_c                    25.8672
_cell_angle_alpha                 90.0000
_cell_angle_beta                  90.0000
_cell_angle_gamma                 90.0000
loop_
_atom_site_label
_atom_site_type_symbol
_atom_site_fract_x
_atom_site_fract_y
_atom_site_fract_z
_atom_site_U_iso_or_equiv
_atom_site_adp_type
_atom_site_occupancy
C1     C     0.69877   0.87723   0.92323   0.00000  Uiso   1.00
C2     C     0.66741   0.98183   0.93828   0.00000  Uiso   1.00
C3     C     0.62007   0.00840   0.98384   0.00000  Uiso   1.00
C4     C     0.59759   0.10796   0.99033   0.00000  Uiso   1.00
C5     C     0.54520   0.25966   0.01943   0.00000  Uiso   1.00
C6     C     0.64953   0.85620   0.87133   0.00000  Uiso   1.00
C7     C     0.58717   0.77713   0.86059   0.00000  Uiso   1.00
C8     C     0.54965   0.77093   0.81072   0.00000  Uiso   1.00
C9     C     0.46956   0.72755   0.73585   0.00000  Uiso   1.00
C10    C     0.80968   0.88246   0.91248   0.00000  Uiso   1.00
C11    C     0.88198   0.82545   0.93633   0.00000  Uiso   1.00
C12    C     0.97930   0.84135   0.92110   0.00000  Uiso   1.00
C13    C     0.14787   0.83874   0.91014   0.00000  Uiso   1.00
C14    C     0.74304   0.00681   0.85376   0.00000  Uiso   1.00
C15    C     0.69146   0.05221   0.90055   0.00000  Uiso   1.00
C16    C     0.66905   0.15176   0.90698   0.00000  Uiso   1.00
C17    C     0.62168   0.17847   0.95253   0.00000  Uiso   1.00
C18    C     0.67357   0.92658   0.83359   0.00000  Uiso   1.00
C19    C     0.63614   0.92049   0.78373   0.00000  Uiso   1.00
C20    C     0.57373   0.84144   0.77291   0.00000  Uiso   1.00
C21    C     0.83373   0.95285   0.87475   0.00000  Uiso   1.00
C22    C     0.93096   0.96883   0.85947   0.00000  Uiso   1.00
C23    C     0.00338   0.91186   0.88330   0.00000  Uiso   1.00
H24    H     0.68005   0.82243   0.95261   0.00000  Uiso   1.00
H25    H     0.60146   0.95390   0.01303   0.00000  Uiso   1.00
H26    H     0.56858   0.72267   0.88979   0.00000  Uiso   1.00
H27    H     0.86335   0.77099   0.96553   0.00000  Uiso   1.00
H28    H     0.52492   0.13070   0.06336   0.00000  Uiso   1.00
H29    H     0.45560   0.64311   0.80351   0.00000  Uiso   1.00
H30    H     0.07717   0.74500   0.96322   0.00000  Uiso   1.00
H31    H     0.76176   0.06161   0.82438   0.00000  Uiso   1.00
H32    H     0.68766   0.20621   0.87777   0.00000  Uiso   1.00
H33    H     0.65477   0.97497   0.75453   0.00000  Uiso   1.00
H34    H     0.94954   0.02330   0.83027   0.00000  Uiso   1.00
H35    H     0.59487   0.33548   0.95358   0.00000  Uiso   1.00
H36    H     0.52556   0.84788   0.69373   0.00000  Uiso   1.00
H37    H     0.14713   0.94979   0.85344   0.00000  Uiso   1.00
O38    O     0.50965   0.32389   0.04590   0.00000  Uiso   1.00
O39    O     0.41872   0.68418   0.70498   0.00000  Uiso   1.00
O40    O     0.23421   0.81787   0.91452   0.00000  Uiso   1.00
N41    N     0.55157   0.15905   0.03021   0.00000  Uiso   1.00
N42    N     0.48675   0.70319   0.78726   0.00000  Uiso   1.00
N43    N     0.06786   0.79844   0.93657   0.00000  Uiso   1.00
N44    N     0.58921   0.26924   0.97113   0.00000  Uiso   1.00
N45    N     0.52439   0.81338   0.72819   0.00000  Uiso   1.00
N46    N     0.10551   0.90863   0.87750   0.00000  Uiso   1.00
C47    C     0.30123   0.12277   0.42323   0.00000  Uiso   1.00
C48    C     0.33259   0.01817   0.43828   0.00000  Uiso   1.00
C49    C     0.37993   0.99160   0.48384   0.00000  Uiso   1.00
C50    C     0.40241   0.89204   0.49033   0.00000  Uiso   1.00
C51    C     0.45480   0.74034   0.51943   0.00000  Uiso   1.00
C52    C     0.35047   0.14380   0.37133   0.00000  Uiso   1.00
C53    C     0.41283   0.22287   0.36059   0.00000  Uiso   1.00
C54    C     0.45035   0.22907   0.31072   0.00000  Uiso   1.00
C55    C     0.53044   0.27245   0.23585   0.00000  Uiso   1.00
C56    C     0.19032   0.11754   0.41248   0.00000  Uiso   1.00
C57    C     0.11802   0.17455   0.43633   0.00000  Uiso   1.00
C58    C     0.02070   0.15865   0.42110   0.00000  Uiso   1.00
C59    C     0.85213   0.16126   0.41014   0.00000  Uiso   1.00
C60    C     0.25696   0.99319   0.35376   0.00000  Uiso   1.00
C61    C     0.30854   0.94779   0.40055   0.00000  Uiso   1.00
C62    C     0.33095   0.84824   0.40698   0.00000  Uiso   1.00
C63    C     0.37832   0.82153   0.45253   0.00000  Uiso   1.00
C64    C     0.32643   0.07342   0.33359   0.00000  Uiso   1.00
C65    C     0.36386   0.07951   0.28373   0.00000  Uiso   1.00
C66    C     0.42627   0.15856   0.27291   0.00000  Uiso   1.00
C67    C     0.16627   0.04715   0.37475   0.00000  Uiso   1.00
C68    C     0.06904   0.03117   0.35947   0.00000  Uiso   1.00
C69    C     0.99662   0.08814   0.38330   0.00000  Uiso   1.00
H70    H     0.31995   0.17757   0.45261   0.00000  Uiso   1.00
H71    H     0.39854   0.04610   0.51303   0.00000  Uiso   1.00
H72    H     0.43142   0.27733   0.38979   0.00000  Uiso   1.00
H73    H     0.13665   0.22901   0.46553   0.00000  Uiso   1.00
H74    H     0.47508   0.86930   0.56336   0.00000  Uiso   1.00
H75    H     0.54440   0.35689   0.30351   0.00000  Uiso   1.00
H76    H     0.92283   0.25500   0.46322   0.00000  Uiso   1.00
H77    H     0.23824   0.93839   0.32438   0.00000  Uiso   1.00
H78    H     0.31234   0.79379   0.37777   0.00000  Uiso   1.00
H79    H     0.34523   0.02503   0.25453   0.00000  Uiso   1.00
H80    H     0.05046   0.97670   0.33027   0.00000  Uiso   1.00
H81    H     0.40513   0.66452   0.45358   0.00000  Uiso   1.00
H82    H     0.47444   0.15212   0.19373   0.00000  Uiso   1.00
H83    H     0.85287   0.05021   0.35344   0.00000  Uiso   1.00
O84    O     0.49035   0.67611   0.54590   0.00000  Uiso   1.00
O85    O     0.58128   0.31582   0.20498   0.00000  Uiso   1.00
O86    O     0.76579   0.18213   0.41452   0.00000  Uiso   1.00
N87    N     0.44843   0.84095   0.53021   0.00000  Uiso   1.00
N88    N     0.51325   0.29681   0.28726   0.00000  Uiso   1.00
N89    N     0.93214   0.20156   0.43657   0.00000  Uiso   1.00
N90    N     0.41079   0.73076   0.47113   0.00000  Uiso   1.00
N91    N     0.47561   0.18662   0.22819   0.00000  Uiso   1.00
N92    N     0.89449   0.09137   0.37750   0.00000  Uiso   1.00
C93    C     0.62277   0.19877   0.67323   0.00000  Uiso   1.00
C94    C     0.51817   0.16741   0.68828   0.00000  Uiso   1.00
C95    C     0.49160   0.12007   0.73384   0.00000  Uiso   1.00
C96    C     0.39204   0.09759   0.74033   0.00000  Uiso   1.00
C97    C     0.24034   0.04520   0.76943   0.00000  Uiso   1.00
C98    C     0.64380   0.14953   0.62133   0.00000  Uiso   1.00
C99    C     0.72287   0.08717   0.61059   0.00000  Uiso   1.00
C100   C     0.72907   0.04965   0.56072   0.00000  Uiso   1.00
C101   C     0.77245   0.96956   0.48585   0.00000  Uiso   1.00
C102   C     0.61754   0.30968   0.66248   0.00000  Uiso   1.00
C103   C     0.67455   0.38198   0.68633   0.00000  Uiso   1.00
C104   C     0.65865   0.47930   0.67110   0.00000  Uiso   1.00
C105   C     0.66126   0.64787   0.66014   0.00000  Uiso   1.00
C106   C     0.49319   0.24304   0.60376   0.00000  Uiso   1.00
C107   C     0.44779   0.19146   0.65055   0.00000  Uiso   1.00
C108   C     0.34824   0.16905   0.65698   0.00000  Uiso   1.00
C109   C     0.32153   0.12168   0.70253   0.00000  Uiso   1.00
C110   C     0.57342   0.17357   0.58359   0.00000  Uiso   1.00
C111   C     0.57951   0.13614   0.53373   0.00000  Uiso   1.00
C112   C     0.65856   0.07373   0.52291   0.00000  Uiso   1.00
C113   C     0.54715   0.33373   0.62475   0.00000  Uiso   1.00
C114   C     0.53117   0.43096   0.60947   0.00000  Uiso   1.00
C115   C     0.58814   0.50338   0.63330   0.00000  Uiso   1.00
H116   H     0.67757   0.18005   0.70261   0.00000  Uiso   1.00
H117   H     0.54610   0.10146   0.76303   0.00000  Uiso   1.00
H118   H     0.77733   0.06858   0.63979   0.00000  Uiso   1.00
H119   H     0.72901   0.36335   0.71553   0.00000  Uiso   1.00
H120   H     0.36930   0.02492   0.81336   0.00000  Uiso   1.00
H121   H     0.85689   0.95560   0.55351   0.00000  Uiso   1.00
H122   H     0.75500   0.57717   0.71322   0.00000  Uiso   1.00
H123   H     0.43839   0.26176   0.57438   0.00000  Uiso   1.00
H124   H     0.29379   0.18766   0.62777   0.00000  Uiso   1.00
H125   H     0.52503   0.15477   0.50453   0.00000  Uiso   1.00
H126   H     0.47670   0.44954   0.58027   0.00000  Uiso   1.00
H127   H     0.16452   0.09487   0.70358   0.00000  Uiso   1.00
H128   H     0.65212   0.02556   0.44373   0.00000  Uiso   1.00
H129   H     0.55021   0.64713   0.60344   0.00000  Uiso   1.00
O130   O     0.17611   0.00965   0.79590   0.00000  Uiso   1.00
O131   O     0.81582   0.91872   0.45498   0.00000  Uiso   1.00
O132   O     0.68213   0.73421   0.66452   0.00000  Uiso   1.00
N133   N     0.34095   0.05157   0.78021   0.00000  Uiso   1.00
N134   N     0.79681   0.98675   0.53726   0.00000  Uiso   1.00
N135   N     0.70156   0.56786   0.68657   0.00000  Uiso   1.00
N136   N     0.23076   0.08921   0.72113   0.00000  Uiso   1.00
N137   N     0.68662   0.02439   0.47819   0.00000  Uiso   1.00
N138   N     0.59137   0.60551   0.62750   0.00000  Uiso   1.00
C139   C     0.37723   0.80123   0.17323   0.00000  Uiso   1.00
C140   C     0.48183   0.83259   0.18828   0.00000  Uiso   1.00
C141   C     0.50840   0.87993   0.23384   0.00000  Uiso   1.00
C142   C     0.60796   0.90241   0.24033   0.00000  Uiso   1.00
C143   C     0.75966   0.95480   0.26943   0.00000  Uiso   1.00
C144   C     0.35620   0.85047   0.12133   0.00000  Uiso   1.00
C145   C     0.27713   0.91283   0.11059   0.00000  Uiso   1.00
C146   C     0.27093   0.95035   0.06072   0.00000  Uiso   1.00
C147   C     0.22755   0.03044   0.98585   0.00000  Uiso   1.00
C148   C     0.38246   0.69032   0.16248   0.00000  Uiso   1.00
C149   C     0.32545   0.61802   0.18633   0.00000  Uiso   1.00
C150   C     0.34135   0.52070   0.17110   0.00000  Uiso   1.00
C151   C     0.33874   0.35213   0.16014   0.00000  Uiso   1.00
C152   C     0.50681   0.75696   0.10376   0.00000  Uiso   1.00
C153   C     0.55221   0.80854   0.15055   0.00000  Uiso   1.00
C154   C     0.65176   0.83095   0.15698   0.00000  Uiso   1.00
C155   C     0.67847   0.87832   0.20253   0.00000  Uiso   1.00
C156   C     0.42658   0.82643   0.08359   0.00000  Uiso   1.00
C157   C     0.42049   0.86386   0.03373   0.00000  Uiso   1.00
C158   C     0.34144   0.92627   0.02291   0.00000  Uiso   1.00
C159   C     0.45285   0.66627   0.12475   0.00000  Uiso   1.00
C160   C     0.46883   0.56904   0.10947   0.00000  Uiso   1.00
C161   C     0.41186   0.49662   0.13330   0.00000  Uiso   1.00
H162   H     0.32243   0.81995   0.20261   0.00000  Uiso   1.00
H163   H     0.45390   0.89854   0.26303   0.00000  Uiso   1.00
H164   H     0.22267   0.93142   0.13979   0.00000  Uiso   1.00
H165   H     0.27099   0.63665   0.21553   0.00000  Uiso   1.00
H166   H     0.63070   0.97508   0.31336   0.00000  Uiso   1.00
H167   H     0.14311   0.04440   0.05351   0.00000  Uiso   1.00
H168   H     0.24500   0.42283   0.21322   0.00000  Uiso   1.00
H169   H     0.56161   0.73824   0.07438   0.00000  Uiso   1.00
H170   H     0.70621   0.81234   0.12777   0.00000  Uiso   1.00
H171   H     0.47497   0.84523   0.00453   0.00000  Uiso   1.00
H172   H     0.52330   0.55046   0.08027   0.00000  Uiso   1.00
H173   H     0.83548   0.90513   0.20358   0.00000  Uiso   1.00
H174   H     0.34788   0.97444   0.94373   0.00000  Uiso   1.00
H175   H     0.44979   0.35287   0.10344   0.00000  Uiso   1.00
O176   O     0.82389   0.99035   0.29590   0.00000  Uiso   1.00
O177   O     0.18418   0.08128   0.95498   0.00000  Uiso   1.00
O178   O     0.31787   0.26579   0.16452   0.00000  Uiso   1.00
N179   N     0.65905   0.94843   0.28021   0.00000  Uiso   1.00
N180   N     0.20319   0.01325   0.03726   0.00000  Uiso   1.00
N181   N     0.29844   0.43214   0.18657   0.00000  Uiso   1.00
N182   N     0.76924   0.91079   0.22113   0.00000  Uiso   1.00
N183   N     0.31338   0.97561   0.97819   0.00000  Uiso   1.00
N184   N     0.40863   0.39449   0.12750   0.00000  Uiso   1.00
C185   C     0.80123   0.37723   0.82677   0.00000  Uiso   1.00
C186   C     0.83259   0.48183   0.81172   0.00000  Uiso   1.00
C187   C     0.87993   0.50840   0.76616   0.00000  Uiso   1.00
C188   C     0.90241   0.60796   0.75967   0.00000  Uiso   1.00
C189   C     0.95480   0.75966   0.73057   0.00000  Uiso   1.00
C190   C     0.85047   0.35620   0.87867   0.00000  Uiso   1.00
C191   C     0.91283   0.27713   0.88941   0.00000  Uiso   1.00
C192   C     0.95035   0.27093   0.93928   0.00000  Uiso   1.00
C193   C     0.03044   0.22755   0.01415   0.00000  Uiso   1.00
C194   C     0.69032   0.38246   0.83752   0.00000  Uiso   1.00
C195   C     0.61802   0.32545   0.81367   0.00000  Uiso   1.00
C196   C     0.52070   0.34135   0.82890   0.00000  Uiso   1.00
C197   C     0.35213   0.33874   0.83986   0.00000  Uiso   1.00
C198   C     0.75696   0.50681   0.89624   0.00000  Uiso   1.00
C199   C     0.80854   0.55221   0.84945   0.00000  Uiso   1.00
C200   C     0.83095   0.65176   0.84302   0.00000  Uiso   1.00
C201   C     0.87832   0.67847   0.79747   0.00000  Uiso   1.00
C202   C     0.82643   0.42658   0.91641   0.00000  Uiso   1.00
C203   C     0.86386   0.42049   0.96627   0.00000  Uiso   1.00
C204   C     0.92627   0.34144   0.97709   0.00000  Uiso   1.00
C205   C     0.66627   0.45285   0.87525   0.00000  Uiso   1.00
C206   C     0.56904   0.46883   0.89053   0.00000  Uiso   1.00
C207   C     0.49662   0.41186   0.86670   0.00000  Uiso   1.00
H208   H     0.81995   0.32243   0.79739   0.00000  Uiso   1.00
H209   H     0.89854   0.45390   0.73697   0.00000  Uiso   1.00
H210   H     0.93142   0.22267   0.86021   0.00000  Uiso   1.00
H211   H     0.63665   0.27099   0.78447   0.00000  Uiso   1.00
H212   H     0.97508   0.63070   0.68664   0.00000  Uiso   1.00
H213   H     0.04440   0.14311   0.94649   0.00000  Uiso   1.00
H214   H     0.42283   0.24500   0.78678   0.00000  Uiso   1.00
H215   H     0.73824   0.56161   0.92562   0.00000  Uiso   1.00
H216   H     0.81234   0.70621   0.87223   0.00000  Uiso   1.00
H217   H     0.84523   0.47497   0.99547   0.00000  Uiso   1.00
H218   H     0.55046   0.52330   0.91973   0.00000  Uiso   1.00
H219   H     0.90513   0.83548   0.79642   0.00000  Uiso   1.00
H220   H     0.97444   0.34788   0.05627   0.00000  Uiso   1.00
H221   H     0.35287   0.44979   0.89656   0.00000  Uiso   1.00
O222   O     0.99035   0.82389   0.70410   0.00000  Uiso   1.00
O223   O     0.08128   0.18418   0.04502   0.00000  Uiso   1.00
O224   O     0.26579   0.31787   0.83548   0.00000  Uiso   1.00
N225   N     0.94843   0.65905   0.71979   0.00000  Uiso   1.00
N226   N     0.01325   0.20319   0.96274   0.00000  Uiso   1.00
N227   N     0.43214   0.29844   0.81343   0.00000  Uiso   1.00
N228   N     0.91079   0.76924   0.77887   0.00000  Uiso   1.00
N229   N     0.97561   0.31338   0.02181   0.00000  Uiso   1.00
N230   N     0.39449   0.40863   0.87250   0.00000  Uiso   1.00
C231   C     0.19877   0.62277   0.32677   0.00000  Uiso   1.00
C232   C     0.16741   0.51817   0.31172   0.00000  Uiso   1.00
C233   C     0.12007   0.49160   0.26616   0.00000  Uiso   1.00
C234   C     0.09759   0.39204   0.25967   0.00000  Uiso   1.00
C235   C     0.04520   0.24034   0.23057   0.00000  Uiso   1.00
C236   C     0.14953   0.64380   0.37867   0.00000  Uiso   1.00
C237   C     0.08717   0.72287   0.38941   0.00000  Uiso   1.00
C238   C     0.04965   0.72907   0.43928   0.00000  Uiso   1.00
C239   C     0.96956   0.77245   0.51415   0.00000  Uiso   1.00
C240   C     0.30968   0.61754   0.33752   0.00000  Uiso   1.00
C241   C     0.38198   0.67455   0.31367   0.00000  Uiso   1.00
C242   C     0.47930   0.65865   0.32890   0.00000  Uiso   1.00
C243   C     0.64787   0.66126   0.33986   0.00000  Uiso   1.00
C244   C     0.24304   0.49319   0.39624   0.00000  Uiso   1.00
C245   C     0.19146   0.44779   0.34945   0.00000  Uiso   1.00
C246   C     0.16905   0.34824   0.34302   0.00000  Uiso   1.00
C247   C     0.12168   0.32153   0.29747   0.00000  Uiso   1.00
C248   C     0.17357   0.57342   0.41641   0.00000  Uiso   1.00
C249   C     0.13614   0.57951   0.46627   0.00000  Uiso   1.00
C250   C     0.07373   0.65856   0.47709   0.00000  Uiso   1.00
C251   C     0.33373   0.54715   0.37525   0.00000  Uiso   1.00
C252   C     0.43096   0.53117   0.39053   0.00000  Uiso   1.00
C253   C     0.50338   0.58814   0.36670   0.00000  Uiso   1.00
H254   H     0.18005   0.67757   0.29739   0.00000  Uiso   1.00
H255   H     0.10146   0.54610   0.23697   0.00000  Uiso   1.00
H256   H     0.06858   0.77733   0.36021   0.00000  Uiso   1.00
H257   H     0.36335   0.72901   0.28447   0.00000  Uiso   1.00
H258   H     0.02492   0.36930   0.18664   0.00000  Uiso   1.00
H259   H     0.95560   0.85689   0.44649   0.00000  Uiso   1.00
H260   H     0.57717   0.75500   0.28678   0.00000  Uiso   1.00
H261   H     0.26176   0.43839   0.42562   0.00000  Uiso   1.00
H262   H     0.18766   0.29379   0.37223   0.00000  Uiso   1.00
H263   H     0.15477   0.52503   0.49547   0.00000  Uiso   1.00
H264   H     0.44954   0.47670   0.41973   0.00000  Uiso   1.00
H265   H     0.09487   0.16452   0.29642   0.00000  Uiso   1.00
H266   H     0.02556   0.65212   0.55627   0.00000  Uiso   1.00
H267   H     0.64713   0.55021   0.39656   0.00000  Uiso   1.00
O268   O     0.00965   0.17611   0.20410   0.00000  Uiso   1.00
O269   O     0.91872   0.81582   0.54502   0.00000  Uiso   1.00
O270   O     0.73421   0.68213   0.33548   0.00000  Uiso   1.00
N271   N     0.05157   0.34095   0.21979   0.00000  Uiso   1.00
N272   N     0.98675   0.79681   0.46274   0.00000  Uiso   1.00
N273   N     0.56786   0.70156   0.31343   0.00000  Uiso   1.00
N274   N     0.08921   0.23076   0.27887   0.00000  Uiso   1.00
N275   N     0.02439   0.68662   0.52181   0.00000  Uiso   1.00
N276   N     0.60551   0.59137   0.37250   0.00000  Uiso   1.00
C277   C     0.87723   0.69877   0.07677   0.00000  Uiso   1.00
C278   C     0.98183   0.66741   0.06172   0.00000  Uiso   1.00
C279   C     0.00840   0.62007   0.01616   0.00000  Uiso   1.00
C280   C     0.10796   0.59759   0.00967   0.00000  Uiso   1.00
C281   C     0.25966   0.54520   0.98057   0.00000  Uiso   1.00
C282   C     0.85620   0.64953   0.12867   0.00000  Uiso   1.00
C283   C     0.77713   0.58717   0.13941   0.00000  Uiso   1.00
C284   C     0.77093   0.54965   0.18928   0.00000  Uiso   1.00
C285   C     0.72755   0.46956   0.26415   0.00000  Uiso   1.00
C286   C     0.88246   0.80968   0.08752   0.00000  Uiso   1.00
C287   C     0.82545   0.88198   0.06367   0.00000  Uiso   1.00
C288   C     0.84135   0.97930   0.07890   0.00000  Uiso   1.00
C289   C     0.83874   0.14787   0.08986   0.00000  Uiso   1.00
C290   C     0.00681   0.74304   0.14624   0.00000  Uiso   1.00
C291   C     0.05221   0.69146   0.09945   0.00000  Uiso   1.00
C292   C     0.15176   0.66905   0.09302   0.00000  Uiso   1.00
C293   C     0.17847   0.62168   0.04747   0.00000  Uiso   1.00
C294   C     0.92658   0.67357   0.16641   0.00000  Uiso   1.00
C295   C     0.92049   0.63614   0.21627   0.00000  Uiso   1.00
C296   C     0.84144   0.57373   0.22709   0.00000  Uiso   1.00
C297   C     0.95285   0.83373   0.12525   0.00000  Uiso   1.00
C298   C     0.96883   0.93096   0.14053   0.00000  Uiso   1.00
C299   C     0.91186   0.00338   0.11670   0.00000  Uiso   1.00
H300   H     0.82243   0.68005   0.04739   0.00000  Uiso   1.00
H301   H     0.95390   0.60146   0.98697   0.00000  Uiso   1.00
H302   H     0.72267   0.56858   0.11021   0.00000  Uiso   1.00
H303   H     0.77099   0.86335   0.03447   0.00000  Uiso   1.00
H304   H     0.13070   0.52492   0.93664   0.00000  Uiso   1.00
H305   H     0.64311   0.45560   0.19649   0.00000  Uiso   1.00
H306   H     0.74500   0.07717   0.03678   0.00000  Uiso   1.00
H307   H     0.06161   0.76176   0.17562   0.00000  Uiso   1.00
H308   H     0.20621   0.68766   0.12223   0.00000  Uiso   1.00
H309   H     0.97497   0.65477   0.24547   0.00000  Uiso   1.00
H310   H     0.02330   0.94954   0.16973   0.00000  Uiso   1.00
H311   H     0.33548   0.59487   0.04642   0.00000  Uiso   1.00
H312   H     0.84788   0.52556   0.30627   0.00000  Uiso   1.00
H313   H     0.94979   0.14713   0.14656   0.00000  Uiso   1.00
O314   O     0.32389   0.50965   0.95410   0.00000  Uiso   1.00
O315   O     0.68418   0.41872   0.29502   0.00000  Uiso   1.00
O316   O     0.81787   0.23421   0.08548   0.00000  Uiso   1.00
N317   N     0.15905   0.55157   0.96979   0.00000  Uiso   1.00
N318   N     0.70319   0.48675   0.21274   0.00000  Uiso   1.00
N319   N     0.79844   0.06786   0.06343   0.00000  Uiso   1.00
N320   N     0.26924   0.58921   0.02887   0.00000  Uiso   1.00
N321   N     0.81338   0.52439   0.27181   0.00000  Uiso   1.00
N322   N     0.90863   0.10551   0.12250   0.00000  Uiso   1.00
C323   C     0.12277   0.30123   0.57677   0.00000  Uiso   1.00
C324   C     0.01817   0.33259   0.56172   0.00000  Uiso   1.00
C325   C     0.99160   0.37993   0.51616   0.00000  Uiso   1.00
C326   C     0.89204   0.40241   0.50967   0.00000  Uiso   1.00
C327   C     0.74034   0.45480   0.48057   0.00000  Uiso   1.00
C328   C     0.14380   0.35047   0.62867   0.00000  Uiso   1.00
C329   C     0.22287   0.41283   0.63941   0.00000  Uiso   1.00
C330   C     0.22907   0.45035   0.68928   0.00000  Uiso   1.00
C331   C     0.27245   0.53044   0.76415   0.00000  Uiso   1.00
C332   C     0.11754   0.19032   0.58752   0.00000  Uiso   1.00
C333   C     0.17455   0.11802   0.56367   0.00000  Uiso   1.00
C334   C     0.15865   0.02070   0.57890   0.00000  Uiso   1.00
C335   C     0.16126   0.85213   0.58986   0.00000  Uiso   1.00
C336   C     0.99319   0.25696   0.64624   0.00000  Uiso   1.00
C337   C     0.94779   0.30854   0.59945   0.00000  Uiso   1.00
C338   C     0.84824   0.33095   0.59302   0.00000  Uiso   1.00
C339   C     0.82153   0.37832   0.54747   0.00000  Uiso   1.00
C340   C     0.07342   0.32643   0.66641   0.00000  Uiso   1.00
C341   C     0.07951   0.36386   0.71627   0.00000  Uiso   1.00
C342   C     0.15856   0.42627   0.72709   0.00000  Uiso   1.00
C343   C     0.04715   0.16627   0.62525   0.00000  Uiso   1.00
C344   C     0.03117   0.06904   0.64053   0.00000  Uiso   1.00
C345   C     0.08814   0.99662   0.61670   0.00000  Uiso   1.00
H346   H     0.17757   0.31995   0.54739   0.00000  Uiso   1.00
H347   H     0.04610   0.39854   0.48697   0.00000  Uiso   1.00
H348   H     0.27733   0.43142   0.61021   0.00000  Uiso   1.00
H349   H     0.22901   0.13665   0.53447   0.00000  Uiso   1.00
H350   H     0.86930   0.47508   0.43664   0.00000  Uiso   1.00
H351   H     0.35689   0.54440   0.69649   0.00000  Uiso   1.00
H352   H     0.25500   0.92283   0.53678   0.00000  Uiso   1.00
H353   H     0.93839   0.23824   0.67562   0.00000  Uiso   1.00
H354   H     0.79379   0.31234   0.62223   0.00000  Uiso   1.00
H355   H     0.02503   0.34523   0.74547   0.00000  Uiso   1.00
H356   H     0.97670   0.05046   0.66973   0.00000  Uiso   1.00
H357   H     0.66452   0.40513   0.54642   0.00000  Uiso   1.00
H358   H     0.15212   0.47444   0.80627   0.00000  Uiso   1.00
H359   H     0.05021   0.85287   0.64656   0.00000  Uiso   1.00
O360   O     0.67611   0.49035   0.45410   0.00000  Uiso   1.00
O361   O     0.31582   0.58128   0.79502   0.00000  Uiso   1.00
O362   O     0.18213   0.76579   0.58548   0.00000  Uiso   1.00
N363   N     0.84095   0.44843   0.46979   0.00000  Uiso   1.00
N364   N     0.29681   0.51325   0.71274   0.00000  Uiso   1.00
N365   N     0.20156   0.93214   0.56343   0.00000  Uiso   1.00
N366   N     0.73076   0.41079   0.52887   0.00000  Uiso   1.00
N367   N     0.18662   0.47561   0.77181   0.00000  Uiso   1.00
N368   N     0.09137   0.89449   0.62250   0.00000  Uiso   1.00
