data_job_06587
_audit_creation_date              2018-12-19
_audit_creation_method            'Materials Studio'
_symmetry_space_group_name_H-M    'P1'
_symmetry_Int_Tables_number       1
_symmetry_cell_setting            triclinic
loop_
_symmetry_equiv_pos_as_xyz
  x,y,z
_cell_length_a                    19.6007
_cell_length_b                    21.1121
_cell_length_c                    23.1305
_cell_angle_alpha                 64.5652
_cell_angle_beta                  88.8132
_cell_angle_gamma                 116.5581
loop_
_atom_site_label
_atom_site_type_symbol
_atom_site_fract_x
_atom_site_fract_y
_atom_site_fract_z
_atom_site_U_iso_or_equiv
_atom_site_adp_type
_atom_site_occupancy
C1     C     0.05004   0.02888   0.32751   0.00000  Uiso   1.00
C2     C     0.07146   0.11314   0.31570   0.00000  Uiso   1.00
C3     C     0.11562   0.15106   0.34909   0.00000  Uiso   1.00
C4     C     0.12874   0.22816   0.33104   0.00000  Uiso   1.00
C5     C     0.16652   0.35323   0.32028   0.00000  Uiso   1.00
C6     C     0.96010   0.98065   0.34363   0.00000  Uiso   1.00
C7     C     0.91063   0.90718   0.40050   0.00000  Uiso   1.00
C8     C     0.83000   0.87275   0.40595   0.00000  Uiso   1.00
C9     C     0.69489   0.79211   0.43853   0.00000  Uiso   1.00
C10    C     0.08071   0.04046   0.26054   0.00000  Uiso   1.00
C11    C     0.13264   0.01726   0.24755   0.00000  Uiso   1.00
C12    C     0.15355   0.03317   0.18304   0.00000  Uiso   1.00
C13    C     0.20572   0.04539   0.08661   0.00000  Uiso   1.00
C14    C     0.99481   0.09837   0.23607   0.00000  Uiso   1.00
C15    C     0.04146   0.15088   0.26604   0.00000  Uiso   1.00
C16    C     0.05451   0.22794   0.24793   0.00000  Uiso   1.00
C17    C     0.09869   0.26598   0.28128   0.00000  Uiso   1.00
C18    C     0.93010   0.01839   0.29397   0.00000  Uiso   1.00
C19    C     0.84952   0.98406   0.29933   0.00000  Uiso   1.00
C20    C     0.79994   0.91056   0.35619   0.00000  Uiso   1.00
C21    C     0.05071   0.07821   0.21087   0.00000  Uiso   1.00
C22    C     0.07154   0.09415   0.14638   0.00000  Uiso   1.00
C23    C     0.12349   0.07098   0.13329   0.00000  Uiso   1.00
H24    H     0.07340   0.99949   0.36618   0.00000  Uiso   1.00
H25    H     0.13882   0.12182   0.38753   0.00000  Uiso   1.00
H26    H     0.93386   0.87798   0.43892   0.00000  Uiso   1.00
H27    H     0.15585   0.98805   0.28599   0.00000  Uiso   1.00
H28    H     0.19810   0.27409   0.38932   0.00000  Uiso   1.00
H29    H     0.76594   0.75992   0.49766   0.00000  Uiso   1.00
H30    H     0.23403   0.99202   0.17519   0.00000  Uiso   1.00
H31    H     0.97145   0.12775   0.19740   0.00000  Uiso   1.00
H32    H     0.03129   0.25714   0.20949   0.00000  Uiso   1.00
H33    H     0.82633   0.01329   0.26088   0.00000  Uiso   1.00
H34    H     0.04831   0.12336   0.10796   0.00000  Uiso   1.00
H35    H     0.11082   0.38392   0.24482   0.00000  Uiso   1.00
H36    H     0.67865   0.86973   0.35316   0.00000  Uiso   1.00
H37    H     0.14675   0.10184   0.03069   0.00000  Uiso   1.00
O38    O     0.19564   0.41179   0.32808   0.00000  Uiso   1.00
O39    O     0.62866   0.73720   0.47022   0.00000  Uiso   1.00
O40    O     0.24279   0.04172   0.04714   0.00000  Uiso   1.00
N41    N     0.16937   0.28219   0.35364   0.00000  Uiso   1.00
N42    N     0.76531   0.80147   0.45494   0.00000  Uiso   1.00
N43    N     0.20293   0.01845   0.15346   0.00000  Uiso   1.00
N44    N     0.12240   0.34129   0.27588   0.00000  Uiso   1.00
N45    N     0.71835   0.86057   0.37719   0.00000  Uiso   1.00
N46    N     0.15596   0.07754   0.07571   0.00000  Uiso   1.00
C47    C     0.96516   0.65492   0.36326   0.00000  Uiso   1.00
C48    C     0.99911   0.60022   0.37081   0.00000  Uiso   1.00
C49    C     0.95623   0.51605   0.40106   0.00000  Uiso   1.00
C50    C     0.99820   0.47716   0.40294   0.00000  Uiso   1.00
C51    C     0.03846   0.38557   0.41886   0.00000  Uiso   1.00
C52    C     0.01039   0.70532   0.39525   0.00000  Uiso   1.00
C53    C     0.97698   0.70951   0.44604   0.00000  Uiso   1.00
C54    C     0.02845   0.75910   0.46849   0.00000  Uiso   1.00
C55    C     0.08621   0.83072   0.52232   0.00000  Uiso   1.00
C56    C     0.98933   0.71446   0.28917   0.00000  Uiso   1.00
C57    C     0.93822   0.72636   0.25076   0.00000  Uiso   1.00
C58    C     0.97196   0.78366   0.18390   0.00000  Uiso   1.00
C59    C     0.99703   0.86946   0.07301   0.00000  Uiso   1.00
C60    C     0.11596   0.73553   0.31282   0.00000  Uiso   1.00
C61    C     0.08102   0.64401   0.34341   0.00000  Uiso   1.00
C62    C     0.12307   0.60524   0.34525   0.00000  Uiso   1.00
C63    C     0.08026   0.52103   0.37549   0.00000  Uiso   1.00
C64    C     0.09229   0.74910   0.36786   0.00000  Uiso   1.00
C65    C     0.14382   0.79870   0.39023   0.00000  Uiso   1.00
C66    C     0.11050   0.80297   0.44105   0.00000  Uiso   1.00
C67    C     0.07124   0.75824   0.26177   0.00000  Uiso   1.00
C68    C     0.10506   0.81554   0.19495   0.00000  Uiso   1.00
C69    C     0.05402   0.82752   0.15645   0.00000  Uiso   1.00
H70    H     0.90139   0.62083   0.38460   0.00000  Uiso   1.00
H71    H     0.89284   0.48219   0.42226   0.00000  Uiso   1.00
H72    H     0.91359   0.67563   0.46723   0.00000  Uiso   1.00
H73    H     0.87484   0.69246   0.27198   0.00000  Uiso   1.00
H74    H     0.91949   0.34778   0.45196   0.00000  Uiso   1.00
H75    H     0.96324   0.75568   0.54676   0.00000  Uiso   1.00
H76    H     0.88152   0.79119   0.13504   0.00000  Uiso   1.00
H77    H     0.17973   0.76962   0.29149   0.00000  Uiso   1.00
H78    H     0.18646   0.63914   0.32404   0.00000  Uiso   1.00
H79    H     0.20720   0.83258   0.36902   0.00000  Uiso   1.00
H80    H     0.16845   0.84942   0.17377   0.00000  Uiso   1.00
H81    H     0.15779   0.47517   0.37224   0.00000  Uiso   1.00
H82    H     0.20154   0.88308   0.46705   0.00000  Uiso   1.00
H83    H     0.11982   0.91858   0.05533   0.00000  Uiso   1.00
O84    O     0.03804   0.32296   0.43521   0.00000  Uiso   1.00
O85    O     0.09544   0.85812   0.55959   0.00000  Uiso   1.00
O86    O     0.98822   0.90469   0.01942   0.00000  Uiso   1.00
N87    N     0.97465   0.39567   0.42872   0.00000  Uiso   1.00
N88    N     0.01555   0.77702   0.51736   0.00000  Uiso   1.00
N89    N     0.93915   0.81023   0.13244   0.00000  Uiso   1.00
N90    N     0.10288   0.46422   0.38582   0.00000  Uiso   1.00
N91    N     0.14378   0.84557   0.47447   0.00000  Uiso   1.00
N92    N     0.06738   0.87878   0.08955   0.00000  Uiso   1.00
C93    C     0.67939   0.65939   0.33521   0.00000  Uiso   1.00
C94    C     0.59321   0.62950   0.33342   0.00000  Uiso   1.00
C95    C     0.53419   0.61647   0.37863   0.00000  Uiso   1.00
C96    C     0.45912   0.58902   0.36837   0.00000  Uiso   1.00
C97    C     0.32764   0.54468   0.37375   0.00000  Uiso   1.00
C98    C     0.69714   0.59558   0.33637   0.00000  Uiso   1.00
C99    C     0.72550   0.55402   0.38407   0.00000  Uiso   1.00
C100   C     0.73792   0.49802   0.37628   0.00000  Uiso   1.00
C101   C     0.76784   0.40106   0.38622   0.00000  Uiso   1.00
C102   C     0.72838   0.73558   0.26826   0.00000  Uiso   1.00
C103   C     0.78304   0.81174   0.25868   0.00000  Uiso   1.00
C104   C     0.82178   0.87361   0.19355   0.00000  Uiso   1.00
C105   C     0.90021   0.99402   0.09774   0.00000  Uiso   1.00
C106   C     0.65102   0.63384   0.23657   0.00000  Uiso   1.00
C107   C     0.57781   0.61562   0.27984   0.00000  Uiso   1.00
C108   C     0.50281   0.58820   0.26950   0.00000  Uiso   1.00
C109   C     0.44368   0.57512   0.31469   0.00000  Uiso   1.00
C110   C     0.68173   0.58170   0.28280   0.00000  Uiso   1.00
C111   C     0.69412   0.52575   0.27493   0.00000  Uiso   1.00
C112   C     0.72249   0.48412   0.32261   0.00000  Uiso   1.00
C113   C     0.71297   0.72170   0.21468   0.00000  Uiso   1.00
C114   C     0.75164   0.78347   0.14955   0.00000  Uiso   1.00
C115   C     0.80634   0.85971   0.13988   0.00000  Uiso   1.00
H116   H     0.69139   0.67020   0.37693   0.00000  Uiso   1.00
H117   H     0.54614   0.62721   0.42009   0.00000  Uiso   1.00
H118   H     0.73743   0.56478   0.42552   0.00000  Uiso   1.00
H119   H     0.79494   0.82246   0.30016   0.00000  Uiso   1.00
H120   H     0.37830   0.57340   0.44434   0.00000  Uiso   1.00
H121   H     0.78167   0.44179   0.45577   0.00000  Uiso   1.00
H122   H     0.90296   0.98515   0.19142   0.00000  Uiso   1.00
H123   H     0.63903   0.62303   0.19486   0.00000  Uiso   1.00
H124   H     0.49090   0.57746   0.22803   0.00000  Uiso   1.00
H125   H     0.68219   0.51503   0.23346   0.00000  Uiso   1.00
H126   H     0.73971   0.77271   0.10810   0.00000  Uiso   1.00
H127   H     0.33346   0.53302   0.28846   0.00000  Uiso   1.00
H128   H     0.73684   0.40141   0.29989   0.00000  Uiso   1.00
H129   H     0.85812   0.94477   0.03554   0.00000  Uiso   1.00
O130   O     0.25938   0.52405   0.39152   0.00000  Uiso   1.00
O131   O     0.78860   0.35140   0.40651   0.00000  Uiso   1.00
O132   O     0.94772   0.06427   0.05969   0.00000  Uiso   1.00
N133   N     0.38808   0.57016   0.40309   0.00000  Uiso   1.00
N134   N     0.76519   0.44711   0.41379   0.00000  Uiso   1.00
N135   N     0.87860   0.95510   0.16664   0.00000  Uiso   1.00
N136   N     0.36395   0.54844   0.31921   0.00000  Uiso   1.00
N137   N     0.74107   0.42538   0.32991   0.00000  Uiso   1.00
N138   N     0.85448   0.93337   0.08276   0.00000  Uiso   1.00
C139   C     0.44329   0.64974   0.85034   0.00000  Uiso   1.00
C140   C     0.50073   0.61977   0.84868   0.00000  Uiso   1.00
C141   C     0.54540   0.60737   0.89365   0.00000  Uiso   1.00
C142   C     0.59443   0.57973   0.88357   0.00000  Uiso   1.00
C143   C     0.68296   0.53540   0.88910   0.00000  Uiso   1.00
C144   C     0.36383   0.58551   0.85218   0.00000  Uiso   1.00
C145   C     0.29338   0.54431   0.90010   0.00000  Uiso   1.00
C146   C     0.22717   0.48783   0.89296   0.00000  Uiso   1.00
C147   C     0.10314   0.39034   0.90390   0.00000  Uiso   1.00
C148   C     0.47055   0.72540   0.78308   0.00000  Uiso   1.00
C149   C     0.48981   0.80182   0.77289   0.00000  Uiso   1.00
C150   C     0.51342   0.86312   0.70757   0.00000  Uiso   1.00
C151   C     0.55509   0.98283   0.61122   0.00000  Uiso   1.00
C152   C     0.45095   0.62271   0.75245   0.00000  Uiso   1.00
C153   C     0.50489   0.60509   0.79551   0.00000  Uiso   1.00
C154   C     0.55387   0.57747   0.78535   0.00000  Uiso   1.00
C155   C     0.59860   0.56503   0.83030   0.00000  Uiso   1.00
C156   C     0.36798   0.57082   0.79901   0.00000  Uiso   1.00
C157   C     0.30186   0.51440   0.79179   0.00000  Uiso   1.00
C158   C     0.23133   0.47312   0.83969   0.00000  Uiso   1.00
C159   C     0.47471   0.71072   0.72991   0.00000  Uiso   1.00
C160   C     0.49829   0.77191   0.66459   0.00000  Uiso   1.00
C161   C     0.51759   0.84841   0.65430   0.00000  Uiso   1.00
H162   H     0.44004   0.66116   0.89173   0.00000  Uiso   1.00
H163   H     0.54215   0.61873   0.93480   0.00000  Uiso   1.00
H164   H     0.29018   0.55569   0.94124   0.00000  Uiso   1.00
H165   H     0.48658   0.81315   0.81405   0.00000  Uiso   1.00
H166   H     0.65717   0.56519   0.95911   0.00000  Uiso   1.00
H167   H     0.12587   0.43227   0.97267   0.00000  Uiso   1.00
H168   H     0.54002   0.97519   0.70447   0.00000  Uiso   1.00
H169   H     0.45418   0.61127   0.71105   0.00000  Uiso   1.00
H170   H     0.55707   0.56611   0.74420   0.00000  Uiso   1.00
H171   H     0.30510   0.50306   0.75064   0.00000  Uiso   1.00
H172   H     0.50150   0.76053   0.62345   0.00000  Uiso   1.00
H173   H     0.66928   0.52247   0.80441   0.00000  Uiso   1.00
H174   H     0.13797   0.38955   0.81798   0.00000  Uiso   1.00
H175   H     0.55212   0.93248   0.54977   0.00000  Uiso   1.00
O176   O     0.73064   0.51499   0.90684   0.00000  Uiso   1.00
O177   O     0.03358   0.34062   0.92463   0.00000  Uiso   1.00
O178   O     0.57694   0.05292   0.57276   0.00000  Uiso   1.00
N179   N     0.64592   0.56135   0.91814   0.00000  Uiso   1.00
N180   N     0.14918   0.43707   0.93083   0.00000  Uiso   1.00
N181   N     0.53635   0.94465   0.68009   0.00000  Uiso   1.00
N182   N     0.65243   0.53837   0.83490   0.00000  Uiso   1.00
N183   N     0.15569   0.41408   0.84759   0.00000  Uiso   1.00
N184   N     0.54287   0.92167   0.59685   0.00000  Uiso   1.00
C185   C     0.46679   0.07168   0.83536   0.00000  Uiso   1.00
C186   C     0.53249   0.15861   0.81208   0.00000  Uiso   1.00
C187   C     0.53052   0.21004   0.83352   0.00000  Uiso   1.00
C188   C     0.59656   0.28728   0.80625   0.00000  Uiso   1.00
C189   C     0.68862   0.41846   0.77728   0.00000  Uiso   1.00
C190   C     0.50432   0.01885   0.86175   0.00000  Uiso   1.00
C191   C     0.47866   0.95278   0.92495   0.00000  Uiso   1.00
C192   C     0.52099   0.91237   0.93948   0.00000  Uiso   1.00
C193   C     0.56928   0.82654   0.98762   0.00000  Uiso   1.00
C194   C     0.44634   0.06889   0.77293   0.00000  Uiso   1.00
C195   C     0.37191   0.04488   0.76145   0.00000  Uiso   1.00
C196   C     0.36542   0.04657   0.70120   0.00000  Uiso   1.00
C197   C     0.32367   0.03845   0.61142   0.00000  Uiso   1.00
C198   C     0.58759   0.11738   0.74880   0.00000  Uiso   1.00
C199   C     0.59811   0.18342   0.76507   0.00000  Uiso   1.00
C200   C     0.66417   0.26060   0.73775   0.00000  Uiso   1.00
C201   C     0.66230   0.31214   0.75914   0.00000  Uiso   1.00
C202   C     0.56994   0.04367   0.81474   0.00000  Uiso   1.00
C203   C     0.61231   0.00334   0.82918   0.00000  Uiso   1.00
C204   C     0.58672   0.93723   0.89238   0.00000  Uiso   1.00
C205   C     0.51195   0.09371   0.72591   0.00000  Uiso   1.00
C206   C     0.50557   0.09544   0.66568   0.00000  Uiso   1.00
C207   C     0.43115   0.07143   0.65410   0.00000  Uiso   1.00
H208   H     0.41571   0.05236   0.87196   0.00000  Uiso   1.00
H209   H     0.47973   0.19081   0.86991   0.00000  Uiso   1.00
H210   H     0.42788   0.93359   0.96132   0.00000  Uiso   1.00
H211   H     0.32115   0.02567   0.79784   0.00000  Uiso   1.00
H212   H     0.57966   0.35525   0.84691   0.00000  Uiso   1.00
H213   H     0.47031   0.81286   0.03965   0.00000  Uiso   1.00
H214   H     0.24525   0.00704   0.69492   0.00000  Uiso   1.00
H215   H     0.63868   0.13670   0.71220   0.00000  Uiso   1.00
H216   H     0.71494   0.27979   0.70137   0.00000  Uiso   1.00
H217   H     0.66308   0.02256   0.79279   0.00000  Uiso   1.00
H218   H     0.55636   0.11465   0.62931   0.00000  Uiso   1.00
H219   H     0.77057   0.42747   0.71013   0.00000  Uiso   1.00
H220   H     0.66121   0.88507   0.90287   0.00000  Uiso   1.00
H221   H     0.43616   0.07926   0.55814   0.00000  Uiso   1.00
O222   O     0.72127   0.48396   0.77430   0.00000  Uiso   1.00
O223   O     0.57779   0.77235   0.02716   0.00000  Uiso   1.00
O224   O     0.28252   0.02712   0.57488   0.00000  Uiso   1.00
N225   N     0.61412   0.35262   0.81620   0.00000  Uiso   1.00
N226   N     0.51189   0.84552   0.99640   0.00000  Uiso   1.00
N227   N     0.30147   0.02704   0.67412   0.00000  Uiso   1.00
N228   N     0.71685   0.39148   0.74259   0.00000  Uiso   1.00
N229   N     0.61461   0.88438   0.92279   0.00000  Uiso   1.00
N230   N     0.40420   0.06590   0.60051   0.00000  Uiso   1.00
C231   C     0.15349   0.64193   0.86787   0.00000  Uiso   1.00
C232   C     0.06596   0.59230   0.87346   0.00000  Uiso   1.00
C233   C     0.02209   0.50836   0.90175   0.00000  Uiso   1.00
C234   C     0.94282   0.47449   0.90205   0.00000  Uiso   1.00
C235   C     0.81207   0.39007   0.91487   0.00000  Uiso   1.00
C236   C     0.15874   0.69142   0.90173   0.00000  Uiso   1.00
C237   C     0.19290   0.69083   0.95378   0.00000  Uiso   1.00
C238   C     0.19174   0.74040   0.97786   0.00000  Uiso   1.00
C239   C     0.20510   0.80990   0.03454   0.00000  Uiso   1.00
C240   C     0.19276   0.70314   0.79431   0.00000  Uiso   1.00
C241   C     0.25554   0.71242   0.75605   0.00000  Uiso   1.00
C242   C     0.28303   0.77187   0.68969   0.00000  Uiso   1.00
C243   C     0.34921   0.85957   0.57958   0.00000  Uiso   1.00
C244   C     0.09072   0.73104   0.81807   0.00000  Uiso   1.00
C245   C     0.03186   0.64071   0.84641   0.00000  Uiso   1.00
C246   C     0.95263   0.60695   0.84665   0.00000  Uiso   1.00
C247   C     0.90865   0.52298   0.87494   0.00000  Uiso   1.00
C248   C     0.12465   0.73982   0.87468   0.00000  Uiso   1.00
C249   C     0.12344   0.78941   0.89868   0.00000  Uiso   1.00
C250   C     0.15758   0.78889   0.95077   0.00000  Uiso   1.00
C251   C     0.15866   0.75154   0.76726   0.00000  Uiso   1.00
C252   C     0.18607   0.81100   0.70095   0.00000  Uiso   1.00
C253   C     0.24887   0.82036   0.66259   0.00000  Uiso   1.00
H254   H     0.18004   0.60425   0.88894   0.00000  Uiso   1.00
H255   H     0.04850   0.47093   0.92269   0.00000  Uiso   1.00
H256   H     0.21929   0.65337   0.97470   0.00000  Uiso   1.00
H257   H     0.28191   0.67495   0.77700   0.00000  Uiso   1.00
H258   H     0.88761   0.34446   0.94820   0.00000  Uiso   1.00
H259   H     0.24775   0.72916   0.05787   0.00000  Uiso   1.00
H260   H     0.37981   0.77467   0.64096   0.00000  Uiso   1.00
H261   H     0.06417   0.76873   0.79701   0.00000  Uiso   1.00
H262   H     0.92626   0.64442   0.82572   0.00000  Uiso   1.00
H263   H     0.09705   0.82686   0.87774   0.00000  Uiso   1.00
H264   H     0.15967   0.84845   0.68003   0.00000  Uiso   1.00
H265   H     0.78840   0.48527   0.86950   0.00000  Uiso   1.00
H266   H     0.14855   0.86998   0.97916   0.00000  Uiso   1.00
H267   H     0.28059   0.91549   0.56226   0.00000  Uiso   1.00
O268   O     0.74937   0.33013   0.92942   0.00000  Uiso   1.00
O269   O     0.22188   0.83486   0.07328   0.00000  Uiso   1.00
O270   O     0.39512   0.89456   0.52632   0.00000  Uiso   1.00
N271   N     0.88319   0.39466   0.92573   0.00000  Uiso   1.00
N272   N     0.21989   0.75432   0.02826   0.00000  Uiso   1.00
N273   N     0.34336   0.79689   0.63850   0.00000  Uiso   1.00
N274   N     0.82981   0.47043   0.88338   0.00000  Uiso   1.00
N275   N     0.16651   0.83010   0.98591   0.00000  Uiso   1.00
N276   N     0.28998   0.87266   0.59615   0.00000  Uiso   1.00
C277   C     0.97620   0.06702   0.62161   0.00000  Uiso   1.00
C278   C     0.95052   0.98831   0.61990   0.00000  Uiso   1.00
C279   C     0.89161   0.95492   0.59233   0.00000  Uiso   1.00
C280   C     0.87700   0.88251   0.59578   0.00000  Uiso   1.00
C281   C     0.83064   0.76604   0.58855   0.00000  Uiso   1.00
C282   C     0.06472   0.12065   0.58825   0.00000  Uiso   1.00
C283   C     0.10183   0.19853   0.53406   0.00000  Uiso   1.00
C284   C     0.18336   0.23753   0.51088   0.00000  Uiso   1.00
C285   C     0.31431   0.32654   0.45453   0.00000  Uiso   1.00
C286   C     0.96736   0.04467   0.69447   0.00000  Uiso   1.00
C287   C     0.92262   0.05869   0.72961   0.00000  Uiso   1.00
C288   C     0.92219   0.03375   0.79585   0.00000  Uiso   1.00
C289   C     0.90198   0.00480   0.90444   0.00000  Uiso   1.00
C290   C     0.05500   0.99781   0.67678   0.00000  Uiso   1.00
C291   C     0.99332   0.95072   0.64987   0.00000  Uiso   1.00
C292   C     0.97880   0.87834   0.65337   0.00000  Uiso   1.00
C293   C     0.91987   0.84485   0.62581   0.00000  Uiso   1.00
C294   C     0.10752   0.08306   0.61822   0.00000  Uiso   1.00
C295   C     0.18902   0.12196   0.59511   0.00000  Uiso   1.00
C296   C     0.22624   0.19987   0.54090   0.00000  Uiso   1.00
C297   C     0.01016   0.00708   0.72445   0.00000  Uiso   1.00
C298   C     0.00981   0.98212   0.79065   0.00000  Uiso   1.00
C299   C     0.96508   0.99609   0.82588   0.00000  Uiso   1.00
H300   H     0.94288   0.09629   0.59827   0.00000  Uiso   1.00
H301   H     0.85850   0.98403   0.56913   0.00000  Uiso   1.00
H302   H     0.06869   0.22761   0.51089   0.00000  Uiso   1.00
H303   H     0.88951   0.08779   0.70640   0.00000  Uiso   1.00
H304   H     0.78385   0.84301   0.55002   0.00000  Uiso   1.00
H305   H     0.22705   0.35662   0.42722   0.00000  Uiso   1.00
H306   H     0.84921   0.06178   0.83949   0.00000  Uiso   1.00
H307   H     0.08833   0.96854   0.70012   0.00000  Uiso   1.00
H308   H     0.01193   0.84927   0.67657   0.00000  Uiso   1.00
H309   H     0.22212   0.09285   0.61832   0.00000  Uiso   1.00
H310   H     0.04294   0.95303   0.81383   0.00000  Uiso   1.00
H311   H     0.90838   0.73363   0.63721   0.00000  Uiso   1.00
H312   H     0.35158   0.24724   0.51441   0.00000  Uiso   1.00
H313   H     0.97374   0.95241   0.92668   0.00000  Uiso   1.00
O314   O     0.79326   0.71218   0.57627   0.00000  Uiso   1.00
O315   O     0.37471   0.38602   0.41516   0.00000  Uiso   1.00
O316   O     0.87899   0.99920   0.95605   0.00000  Uiso   1.00
N317   N     0.82364   0.83363   0.57378   0.00000  Uiso   1.00
N318   N     0.23800   0.31381   0.45897   0.00000  Uiso   1.00
N319   N     0.88477   0.03819   0.84440   0.00000  Uiso   1.00
N320   N     0.89064   0.77477   0.62070   0.00000  Uiso   1.00
N321   N     0.30501   0.25496   0.50588   0.00000  Uiso   1.00
N322   N     0.95177   0.97933   0.89132   0.00000  Uiso   1.00
C323   C     0.03173   0.36316   0.67182   0.00000  Uiso   1.00
C324   C     0.99792   0.41094   0.68259   0.00000  Uiso   1.00
C325   C     0.03210   0.49485   0.64879   0.00000  Uiso   1.00
C326   C     0.99190   0.52687   0.66589   0.00000  Uiso   1.00
C327   C     0.95030   0.60868   0.67513   0.00000  Uiso   1.00
C328   C     0.96760   0.30331   0.65556   0.00000  Uiso   1.00
C329   C     0.97629   0.29673   0.59903   0.00000  Uiso   1.00
C330   C     0.91056   0.23814   0.59338   0.00000  Uiso   1.00
C331   C     0.82191   0.15283   0.56066   0.00000  Uiso   1.00
C332   C     0.03908   0.31194   0.73930   0.00000  Uiso   1.00
C333   C     0.10787   0.31260   0.75317   0.00000  Uiso   1.00
C334   C     0.10231   0.26126   0.81802   0.00000  Uiso   1.00
C335   C     0.12464   0.18935   0.91533   0.00000  Uiso   1.00
C336   C     0.89955   0.27080   0.76230   0.00000  Uiso   1.00
C337   C     0.92613   0.36077   0.73174   0.00000  Uiso   1.00
C338   C     0.88586   0.39267   0.74890   0.00000  Uiso   1.00
C339   C     0.91997   0.47662   0.71513   0.00000  Uiso   1.00
C340   C     0.89581   0.25315   0.70470   0.00000  Uiso   1.00
C341   C     0.83005   0.19455   0.69914   0.00000  Uiso   1.00
C342   C     0.83864   0.18789   0.64261   0.00000  Uiso   1.00
C343   C     0.96728   0.26178   0.78845   0.00000  Uiso   1.00
C344   C     0.96162   0.21042   0.85329   0.00000  Uiso   1.00
C345   C     0.03039   0.21101   0.86726   0.00000  Uiso   1.00
H346   H     0.08762   0.40221   0.63355   0.00000  Uiso   1.00
H347   H     0.08766   0.53365   0.61075   0.00000  Uiso   1.00
H348   H     0.03186   0.33556   0.56100   0.00000  Uiso   1.00
H349   H     0.16341   0.35143   0.71513   0.00000  Uiso   1.00
H350   H     0.05603   0.65725   0.60714   0.00000  Uiso   1.00
H351   H     0.93838   0.23954   0.50225   0.00000  Uiso   1.00
H352   H     0.21578   0.27300   0.82725   0.00000  Uiso   1.00
H353   H     0.84365   0.23175   0.80057   0.00000  Uiso   1.00
H354   H     0.83030   0.35383   0.78694   0.00000  Uiso   1.00
H355   H     0.77450   0.15574   0.73718   0.00000  Uiso   1.00
H356   H     0.90605   0.17161   0.89131   0.00000  Uiso   1.00
H357   H     0.84714   0.51130   0.75013   0.00000  Uiso   1.00
H358   H     0.72949   0.09359   0.64524   0.00000  Uiso   1.00
H359   H     0.00690   0.12706   0.97024   0.00000  Uiso   1.00
O360   O     0.94719   0.66766   0.66664   0.00000  Uiso   1.00
O361   O     0.79285   0.11963   0.52903   0.00000  Uiso   1.00
O362   O     0.15679   0.16355   0.95542   0.00000  Uiso   1.00
N363   N     0.00871   0.60615   0.64267   0.00000  Uiso   1.00
N364   N     0.89871   0.21562   0.54460   0.00000  Uiso   1.00
N365   N     0.15805   0.24689   0.84844   0.00000  Uiso   1.00
N366   N     0.89631   0.52762   0.71962   0.00000  Uiso   1.00
N367   N     0.78631   0.13709   0.62154   0.00000  Uiso   1.00
N368   N     0.04565   0.16836   0.92539   0.00000  Uiso   1.00
C369   C     0.36107   0.30742   0.63613   0.00000  Uiso   1.00
C370   C     0.45063   0.34632   0.62359   0.00000  Uiso   1.00
C371   C     0.50013   0.34767   0.57876   0.00000  Uiso   1.00
C372   C     0.58037   0.38631   0.57462   0.00000  Uiso   1.00
C373   C     0.71494   0.44128   0.54914   0.00000  Uiso   1.00
C374   C     0.34298   0.37452   0.62417   0.00000  Uiso   1.00
C375   C     0.30197   0.39956   0.57983   0.00000  Uiso   1.00
C376   C     0.29158   0.46194   0.57619   0.00000  Uiso   1.00
C377   C     0.25898   0.56064   0.55165   0.00000  Uiso   1.00
C378   C     0.32693   0.24682   0.71022   0.00000  Uiso   1.00
C379   C     0.27239   0.16449   0.73824   0.00000  Uiso   1.00
C380   C     0.24846   0.11935   0.80705   0.00000  Uiso   1.00
C381   C     0.19093   0.01978   0.91612   0.00000  Uiso   1.00
C382   C     0.41555   0.37366   0.70850   0.00000  Uiso   1.00
C383   C     0.48022   0.38230   0.66290   0.00000  Uiso   1.00
C384   C     0.56041   0.42095   0.65883   0.00000  Uiso   1.00
C385   C     0.61002   0.42235   0.61400   0.00000  Uiso   1.00
C386   C     0.37257   0.41050   0.66348   0.00000  Uiso   1.00
C387   C     0.36224   0.47285   0.65990   0.00000  Uiso   1.00
C388   C     0.32122   0.49798   0.61557   0.00000  Uiso   1.00
C389   C     0.35652   0.28280   0.74953   0.00000  Uiso   1.00
C390   C     0.33267   0.23778   0.81831   0.00000  Uiso   1.00
C391   C     0.27811   0.15540   0.84643   0.00000  Uiso   1.00
H392   H     0.33803   0.27942   0.60552   0.00000  Uiso   1.00
H393   H     0.47721   0.31982   0.54834   0.00000  Uiso   1.00
H394   H     0.27907   0.37170   0.54942   0.00000  Uiso   1.00
H395   H     0.24950   0.13667   0.70780   0.00000  Uiso   1.00
H396   H     0.64457   0.38052   0.50226   0.00000  Uiso   1.00
H397   H     0.22675   0.48989   0.50456   0.00000  Uiso   1.00
H398   H     0.16440   0.99428   0.83854   0.00000  Uiso   1.00
H399   H     0.43858   0.40167   0.73911   0.00000  Uiso   1.00
H400   H     0.58329   0.44879   0.68925   0.00000  Uiso   1.00
H401   H     0.38514   0.50067   0.69033   0.00000  Uiso   1.00
H402   H     0.35558   0.26564   0.84871   0.00000  Uiso   1.00
H403   H     0.73067   0.48519   0.61663   0.00000  Uiso   1.00
H404   H     0.31285   0.59456   0.61893   0.00000  Uiso   1.00
H405   H     0.25050   0.09896   0.95290   0.00000  Uiso   1.00
O406   O     0.78100   0.46167   0.52422   0.00000  Uiso   1.00
O407   O     0.23282   0.60515   0.52725   0.00000  Uiso   1.00
O408   O     0.15102   0.95492   0.96542   0.00000  Uiso   1.00
N409   N     0.64497   0.39867   0.53603   0.00000  Uiso   1.00
N410   N     0.25435   0.50094   0.53817   0.00000  Uiso   1.00
N411   N     0.19604   0.03759   0.85041   0.00000  Uiso   1.00
N412   N     0.69130   0.45500   0.59757   0.00000  Uiso   1.00
N413   N     0.30068   0.55726   0.59971   0.00000  Uiso   1.00
N414   N     0.24237   0.09391   0.91195   0.00000  Uiso   1.00
C415   C     0.41760   0.30291   0.14329   0.00000  Uiso   1.00
C416   C     0.36524   0.34065   0.13350   0.00000  Uiso   1.00
C417   C     0.31686   0.34124   0.09054   0.00000  Uiso   1.00
C418   C     0.27361   0.37887   0.08880   0.00000  Uiso   1.00
C419   C     0.19158   0.43209   0.06751   0.00000  Uiso   1.00
C420   C     0.50119   0.37082   0.12940   0.00000  Uiso   1.00
C421   C     0.56711   0.39675   0.08301   0.00000  Uiso   1.00
C422   C     0.63831   0.45977   0.07783   0.00000  Uiso   1.00
C423   C     0.76735   0.55977   0.05022   0.00000  Uiso   1.00
C424   C     0.39269   0.24234   0.21719   0.00000  Uiso   1.00
C425   C     0.36741   0.16025   0.24462   0.00000  Uiso   1.00
C426   C     0.34727   0.11511   0.31335   0.00000  Uiso   1.00
C427   C     0.30786   0.01563   0.42205   0.00000  Uiso   1.00
C428   C     0.42683   0.36870   0.21659   0.00000  Uiso   1.00
C429   C     0.37026   0.37639   0.17331   0.00000  Uiso   1.00
C430   C     0.32707   0.41403   0.17164   0.00000  Uiso   1.00
C431   C     0.27863   0.41467   0.12868   0.00000  Uiso   1.00
C432   C     0.50621   0.40655   0.16922   0.00000  Uiso   1.00
C433   C     0.57732   0.46954   0.16411   0.00000  Uiso   1.00
C434   C     0.64333   0.49557   0.11771   0.00000  Uiso   1.00
C435   C     0.39771   0.27807   0.25701   0.00000  Uiso   1.00
C436   C     0.37762   0.23305   0.32571   0.00000  Uiso   1.00
C437   C     0.35230   0.15091   0.35323   0.00000  Uiso   1.00
H438   H     0.41370   0.27509   0.11229   0.00000  Uiso   1.00
H439   H     0.31300   0.31358   0.05973   0.00000  Uiso   1.00
H440   H     0.56321   0.36908   0.05221   0.00000  Uiso   1.00
H441   H     0.36354   0.13262   0.21379   0.00000  Uiso   1.00
H442   H     0.20359   0.37205   0.01900   0.00000  Uiso   1.00
H443   H     0.73118   0.48905   0.00315   0.00000  Uiso   1.00
H444   H     0.31013   0.99043   0.34388   0.00000  Uiso   1.00
H445   H     0.43073   0.39652   0.24759   0.00000  Uiso   1.00
H446   H     0.33096   0.44168   0.20245   0.00000  Uiso   1.00
H447   H     0.58118   0.49718   0.19493   0.00000  Uiso   1.00
H448   H     0.38150   0.26072   0.35651   0.00000  Uiso   1.00
H449   H     0.21817   0.47602   0.13483   0.00000  Uiso   1.00
H450   H     0.74577   0.59302   0.11899   0.00000  Uiso   1.00
H451   H     0.32471   0.09440   0.45971   0.00000  Uiso   1.00
O452   O     0.14496   0.45158   0.04476   0.00000  Uiso   1.00
O453   O     0.83715   0.60507   0.02399   0.00000  Uiso   1.00
O454   O     0.28473   0.95088   0.47101   0.00000  Uiso   1.00
N455   N     0.22070   0.39031   0.05246   0.00000  Uiso   1.00
N456   N     0.71397   0.49971   0.03764   0.00000  Uiso   1.00
N457   N     0.32034   0.03354   0.35619   0.00000  Uiso   1.00
N458   N     0.22855   0.44625   0.11479   0.00000  Uiso   1.00
N459   N     0.72181   0.55565   0.09997   0.00000  Uiso   1.00
N460   N     0.32818   0.08948   0.41852   0.00000  Uiso   1.00
C461   C     0.56012   0.98430   0.15904   0.00000  Uiso   1.00
C462   C     0.50009   0.90273   0.16575   0.00000  Uiso   1.00
C463   C     0.51731   0.85682   0.14606   0.00000  Uiso   1.00
C464   C     0.45408   0.78390   0.15644   0.00000  Uiso   1.00
C465   C     0.37268   0.66121   0.16240   0.00000  Uiso   1.00
C466   C     0.53302   0.04370   0.11929   0.00000  Uiso   1.00
C467   C     0.57794   0.11632   0.06054   0.00000  Uiso   1.00
C468   C     0.54243   0.16208   0.03182   0.00000  Uiso   1.00
C469   C     0.51218   0.25828   0.96568   0.00000  Uiso   1.00
C470   C     0.54931   0.97368   0.22871   0.00000  Uiso   1.00
C471   C     0.60791   0.98745   0.26197   0.00000  Uiso   1.00
C472   C     0.58612   0.97427   0.32537   0.00000  Uiso   1.00
C473   C     0.58115   0.96175   0.42914   0.00000  Uiso   1.00
C474   C     0.41721   0.93643   0.21249   0.00000  Uiso   1.00
C475   C     0.42247   0.87673   0.19478   0.00000  Uiso   1.00
C476   C     0.35920   0.80386   0.20519   0.00000  Uiso   1.00
C477   C     0.37632   0.75785   0.18552   0.00000  Uiso   1.00
C478   C     0.45541   0.01770   0.14831   0.00000  Uiso   1.00
C479   C     0.41983   0.06336   0.11967   0.00000  Uiso   1.00
C480   C     0.46467   0.13603   0.06090   0.00000  Uiso   1.00
C481   C     0.47168   0.94767   0.25775   0.00000  Uiso   1.00
C482   C     0.44980   0.93448   0.32111   0.00000  Uiso   1.00
C483   C     0.50836   0.94822   0.35446   0.00000  Uiso   1.00
H484   H     0.62055   0.00455   0.13644   0.00000  Uiso   1.00
H485   H     0.57739   0.87696   0.12359   0.00000  Uiso   1.00
H486   H     0.63800   0.13643   0.03809   0.00000  Uiso   1.00
H487   H     0.66797   0.00757   0.23949   0.00000  Uiso   1.00
H488   H     0.49530   0.72406   0.12212   0.00000  Uiso   1.00
H489   H     0.62313   0.27117   0.94185   0.00000  Uiso   1.00
H490   H     0.68633   0.99945   0.36655   0.00000  Uiso   1.00
H491   H     0.35678   0.91619   0.23509   0.00000  Uiso   1.00
H492   H     0.29914   0.78375   0.22766   0.00000  Uiso   1.00
H493   H     0.35976   0.04322   0.14216   0.00000  Uiso   1.00
H494   H     0.38973   0.91436   0.34356   0.00000  Uiso   1.00
H495   H     0.26946   0.64841   0.20658   0.00000  Uiso   1.00
H496   H     0.39730   0.19553   0.02632   0.00000  Uiso   1.00
H497   H     0.46049   0.92380   0.45101   0.00000  Uiso   1.00
O498   O     0.34922   0.60073   0.15766   0.00000  Uiso   1.00
O499   O     0.51694   0.31852   0.92117   0.00000  Uiso   1.00
O500   O     0.59985   0.96202   0.47835   0.00000  Uiso   1.00
N501   N     0.45006   0.72443   0.14303   0.00000  Uiso   1.00
N502   N     0.56957   0.23594   0.97449   0.00000  Uiso   1.00
N503   N     0.62866   0.98192   0.37153   0.00000  Uiso   1.00
N504   N     0.32854   0.68372   0.18848   0.00000  Uiso   1.00
N505   N     0.44805   0.19523   0.01994   0.00000  Uiso   1.00
N506   N     0.50714   0.94121   0.41698   0.00000  Uiso   1.00
C507   C     0.79272   0.35056   0.18534   0.00000  Uiso   1.00
C508   C     0.87273   0.39314   0.19762   0.00000  Uiso   1.00
C509   C     0.92342   0.47655   0.16736   0.00000  Uiso   1.00
C510   C     0.99389   0.50347   0.18529   0.00000  Uiso   1.00
C511   C     0.11526   0.57788   0.19726   0.00000  Uiso   1.00
C512   C     0.79672   0.29293   0.16409   0.00000  Uiso   1.00
C513   C     0.78349   0.29208   0.10565   0.00000  Uiso   1.00
C514   C     0.78997   0.23463   0.09537   0.00000  Uiso   1.00
C515   C     0.79327   0.15343   0.05531   0.00000  Uiso   1.00
C516   C     0.73271   0.29674   0.25300   0.00000  Uiso   1.00
C517   C     0.66564   0.29907   0.26931   0.00000  Uiso   1.00
C518   C     0.61821   0.24481   0.33388   0.00000  Uiso   1.00
C519   C     0.52212   0.16952   0.43187   0.00000  Uiso   1.00
C520   C     0.82774   0.25005   0.27100   0.00000  Uiso   1.00
C521   C     0.89175   0.33854   0.24414   0.00000  Uiso   1.00
C522   C     0.96217   0.36534   0.26214   0.00000  Uiso   1.00
C523   C     0.01295   0.44878   0.23191   0.00000  Uiso   1.00
C524   C     0.81574   0.23834   0.21062   0.00000  Uiso   1.00
C525   C     0.82223   0.18087   0.20043   0.00000  Uiso   1.00
C526   C     0.80902   0.17994   0.14198   0.00000  Uiso   1.00
C527   C     0.75173   0.24214   0.29953   0.00000  Uiso   1.00
C528   C     0.70439   0.18786   0.36409   0.00000  Uiso   1.00
C529   C     0.63727   0.19011   0.38050   0.00000  Uiso   1.00
H530   H     0.77791   0.39307   0.14911   0.00000  Uiso   1.00
H531   H     0.90868   0.51878   0.13135   0.00000  Uiso   1.00
H532   H     0.76876   0.33433   0.06965   0.00000  Uiso   1.00
H533   H     0.65094   0.34132   0.23329   0.00000  Uiso   1.00
H534   H     0.06207   0.63408   0.13216   0.00000  Uiso   1.00
H535   H     0.76702   0.24515   0.00208   0.00000  Uiso   1.00
H536   H     0.51856   0.25988   0.34714   0.00000  Uiso   1.00
H537   H     0.84255   0.20754   0.30723   0.00000  Uiso   1.00
H538   H     0.97687   0.32308   0.29814   0.00000  Uiso   1.00
H539   H     0.83695   0.13863   0.23645   0.00000  Uiso   1.00
H540   H     0.71913   0.14562   0.40008   0.00000  Uiso   1.00
H541   H     0.11742   0.47524   0.26753   0.00000  Uiso   1.00
H542   H     0.82236   0.08631   0.13746   0.00000  Uiso   1.00
H543   H     0.57390   0.10105   0.48252   0.00000  Uiso   1.00
O544   O     0.17695   0.63401   0.19100   0.00000  Uiso   1.00
O545   O     0.78984   0.12374   0.02035   0.00000  Uiso   1.00
O546   O     0.46387   0.14308   0.47306   0.00000  Uiso   1.00
N547   N     0.05665   0.58084   0.16527   0.00000  Uiso   1.00
N548   N     0.78081   0.21722   0.04366   0.00000  Uiso   1.00
N549   N     0.54851   0.23099   0.36625   0.00000  Uiso   1.00
N550   N     0.08643   0.49537   0.23812   0.00000  Uiso   1.00
N551   N     0.81059   0.13175   0.11650   0.00000  Uiso   1.00
N552   N     0.57829   0.14552   0.43910   0.00000  Uiso   1.00
