data_job_01119
_audit_creation_date              2018-12-19
_audit_creation_method            'Materials Studio'
_symmetry_space_group_name_H-M    'P1'
_symmetry_Int_Tables_number       1
_symmetry_cell_setting            triclinic
loop_
_symmetry_equiv_pos_as_xyz
  x,y,z
_cell_length_a                    34.9727
_cell_length_b                    34.9727
_cell_length_c                    7.2550
_cell_angle_alpha                 90.0000
_cell_angle_beta                  90.0000
_cell_angle_gamma                 120.0000
loop_
_atom_site_label
_atom_site_type_symbol
_atom_site_fract_x
_atom_site_fract_y
_atom_site_fract_z
_atom_site_U_iso_or_equiv
_atom_site_adp_type
_atom_site_occupancy
C1     C     0.40185   0.36214   0.57230   0.00000  Uiso   1.00
C2     C     0.36391   0.36636   0.65356   0.00000  Uiso   1.00
C3     C     0.33200   0.36992   0.55355   0.00000  Uiso   1.00
C4     C     0.30007   0.37347   0.65352   0.00000  Uiso   1.00
C5     C     0.24117   0.38004   0.75034   0.00000  Uiso   1.00
C6     C     0.44402   0.40008   0.65347   0.00000  Uiso   1.00
C7     C     0.47946   0.43199   0.55339   0.00000  Uiso   1.00
C8     C     0.51497   0.46393   0.65329   0.00000  Uiso   1.00
C9     C     0.58045   0.52284   0.74997   0.00000  Uiso   1.00
C10    C     0.39764   0.31998   0.65340   0.00000  Uiso   1.00
C11    C     0.39411   0.28454   0.55325   0.00000  Uiso   1.00
C12    C     0.39057   0.24904   0.65309   0.00000  Uiso   1.00
C13    C     0.38405   0.18357   0.74966   0.00000  Uiso   1.00
C14    C     0.40187   0.36212   0.92768   0.00000  Uiso   1.00
C15    C     0.36392   0.36634   0.84659   0.00000  Uiso   1.00
C16    C     0.33203   0.36989   0.94674   0.00000  Uiso   1.00
C17    C     0.30008   0.37346   0.84690   0.00000  Uiso   1.00
C18    C     0.44403   0.40007   0.84650   0.00000  Uiso   1.00
C19    C     0.47949   0.43197   0.94658   0.00000  Uiso   1.00
C20    C     0.51498   0.46392   0.84667   0.00000  Uiso   1.00
C21    C     0.39765   0.31996   0.84643   0.00000  Uiso   1.00
C22    C     0.39413   0.28451   0.94644   0.00000  Uiso   1.00
C23    C     0.39059   0.24903   0.84647   0.00000  Uiso   1.00
H24    H     0.40184   0.36215   0.42202   0.00000  Uiso   1.00
H25    H     0.33201   0.36993   0.40417   0.00000  Uiso   1.00
H26    H     0.47945   0.43199   0.40401   0.00000  Uiso   1.00
H27    H     0.39410   0.28456   0.40388   0.00000  Uiso   1.00
H28    H     0.25460   0.37856   0.46951   0.00000  Uiso   1.00
H29    H     0.56549   0.50941   0.46917   0.00000  Uiso   1.00
H30    H     0.38552   0.19853   0.46889   0.00000  Uiso   1.00
H31    H     0.40188   0.36211   0.07797   0.00000  Uiso   1.00
H32    H     0.33204   0.36988   0.09612   0.00000  Uiso   1.00
H33    H     0.47949   0.43195   0.09595   0.00000  Uiso   1.00
H34    H     0.39414   0.28452   0.09582   0.00000  Uiso   1.00
H35    H     0.25463   0.37852   0.03112   0.00000  Uiso   1.00
H36    H     0.56552   0.50938   0.03078   0.00000  Uiso   1.00
H37    H     0.38555   0.19849   0.03050   0.00000  Uiso   1.00
O38    O     0.20868   0.38367   0.75042   0.00000  Uiso   1.00
O39    O     0.61656   0.55534   0.74997   0.00000  Uiso   1.00
O40    O     0.38044   0.14746   0.74960   0.00000  Uiso   1.00
N41    N     0.26419   0.37747   0.59919   0.00000  Uiso   1.00
N42    N     0.55484   0.49982   0.59887   0.00000  Uiso   1.00
N43    N     0.38660   0.20917   0.59861   0.00000  Uiso   1.00
N44    N     0.26420   0.37746   0.90139   0.00000  Uiso   1.00
N45    N     0.55486   0.49980   0.90107   0.00000  Uiso   1.00
N46    N     0.38661   0.20915   0.90081   0.00000  Uiso   1.00
C47    C     0.63786   0.03971   0.57230   0.00000  Uiso   1.00
C48    C     0.63364   0.99755   0.65356   0.00000  Uiso   1.00
C49    C     0.63008   0.96209   0.55355   0.00000  Uiso   1.00
C50    C     0.62653   0.92660   0.65352   0.00000  Uiso   1.00
C51    C     0.61996   0.86113   0.75034   0.00000  Uiso   1.00
C52    C     0.59992   0.04393   0.65347   0.00000  Uiso   1.00
C53    C     0.56801   0.04747   0.55339   0.00000  Uiso   1.00
C54    C     0.53607   0.05103   0.65329   0.00000  Uiso   1.00
C55    C     0.47716   0.05761   0.74997   0.00000  Uiso   1.00
C56    C     0.68002   0.07766   0.65340   0.00000  Uiso   1.00
C57    C     0.71546   0.10957   0.55325   0.00000  Uiso   1.00
C58    C     0.75096   0.14153   0.65309   0.00000  Uiso   1.00
C59    C     0.81643   0.20047   0.74966   0.00000  Uiso   1.00
C60    C     0.63788   0.03975   0.92768   0.00000  Uiso   1.00
C61    C     0.63366   0.99758   0.84659   0.00000  Uiso   1.00
C62    C     0.63011   0.96214   0.94674   0.00000  Uiso   1.00
C63    C     0.62654   0.92662   0.84690   0.00000  Uiso   1.00
C64    C     0.59993   0.04396   0.84650   0.00000  Uiso   1.00
C65    C     0.56803   0.04752   0.94658   0.00000  Uiso   1.00
C66    C     0.53608   0.05106   0.84667   0.00000  Uiso   1.00
C67    C     0.68004   0.07769   0.84643   0.00000  Uiso   1.00
C68    C     0.71549   0.10961   0.94644   0.00000  Uiso   1.00
C69    C     0.75097   0.14156   0.84647   0.00000  Uiso   1.00
H70    H     0.63785   0.03969   0.42202   0.00000  Uiso   1.00
H71    H     0.63007   0.96208   0.40417   0.00000  Uiso   1.00
H72    H     0.56801   0.04746   0.40401   0.00000  Uiso   1.00
H73    H     0.71544   0.10954   0.40388   0.00000  Uiso   1.00
H74    H     0.62144   0.87604   0.46951   0.00000  Uiso   1.00
H75    H     0.49059   0.05607   0.46917   0.00000  Uiso   1.00
H76    H     0.80147   0.18699   0.46889   0.00000  Uiso   1.00
H77    H     0.63789   0.03977   0.07797   0.00000  Uiso   1.00
H78    H     0.63012   0.96216   0.09612   0.00000  Uiso   1.00
H79    H     0.56805   0.04754   0.09595   0.00000  Uiso   1.00
H80    H     0.71548   0.10962   0.09582   0.00000  Uiso   1.00
H81    H     0.62148   0.87611   0.03112   0.00000  Uiso   1.00
H82    H     0.49062   0.05614   0.03078   0.00000  Uiso   1.00
H83    H     0.80151   0.18705   0.03050   0.00000  Uiso   1.00
O84    O     0.61633   0.82501   0.75042   0.00000  Uiso   1.00
O85    O     0.44466   0.06122   0.74997   0.00000  Uiso   1.00
O86    O     0.85254   0.23297   0.74960   0.00000  Uiso   1.00
N87    N     0.62253   0.88671   0.59919   0.00000  Uiso   1.00
N88    N     0.50018   0.05502   0.59887   0.00000  Uiso   1.00
N89    N     0.79083   0.17743   0.59861   0.00000  Uiso   1.00
N90    N     0.62254   0.88675   0.90139   0.00000  Uiso   1.00
N91    N     0.50020   0.05506   0.90107   0.00000  Uiso   1.00
N92    N     0.79085   0.17746   0.90081   0.00000  Uiso   1.00
C93    C     0.96029   0.59815   0.57230   0.00000  Uiso   1.00
C94    C     0.00245   0.63609   0.65356   0.00000  Uiso   1.00
C95    C     0.03791   0.66800   0.55355   0.00000  Uiso   1.00
C96    C     0.07340   0.69993   0.65352   0.00000  Uiso   1.00
C97    C     0.13887   0.75883   0.75034   0.00000  Uiso   1.00
C98    C     0.95607   0.55598   0.65347   0.00000  Uiso   1.00
C99    C     0.95253   0.52054   0.55339   0.00000  Uiso   1.00
C100   C     0.94897   0.48503   0.65329   0.00000  Uiso   1.00
C101   C     0.94239   0.41955   0.74997   0.00000  Uiso   1.00
C102   C     0.92234   0.60236   0.65340   0.00000  Uiso   1.00
C103   C     0.89043   0.60589   0.55325   0.00000  Uiso   1.00
C104   C     0.85847   0.60943   0.65309   0.00000  Uiso   1.00
C105   C     0.79953   0.61595   0.74966   0.00000  Uiso   1.00
C106   C     0.96025   0.59813   0.92768   0.00000  Uiso   1.00
C107   C     0.00242   0.63608   0.84659   0.00000  Uiso   1.00
C108   C     0.03786   0.66797   0.94674   0.00000  Uiso   1.00
C109   C     0.07338   0.69992   0.84690   0.00000  Uiso   1.00
C110   C     0.95604   0.55597   0.84650   0.00000  Uiso   1.00
C111   C     0.95248   0.52051   0.94658   0.00000  Uiso   1.00
C112   C     0.94894   0.48502   0.84667   0.00000  Uiso   1.00
C113   C     0.92231   0.60235   0.84643   0.00000  Uiso   1.00
C114   C     0.89039   0.60587   0.94644   0.00000  Uiso   1.00
C115   C     0.85844   0.60941   0.84647   0.00000  Uiso   1.00
H116   H     0.96031   0.59816   0.42202   0.00000  Uiso   1.00
H117   H     0.03792   0.66799   0.40417   0.00000  Uiso   1.00
H118   H     0.95254   0.52055   0.40401   0.00000  Uiso   1.00
H119   H     0.89046   0.60590   0.40388   0.00000  Uiso   1.00
H120   H     0.12396   0.74540   0.46951   0.00000  Uiso   1.00
H121   H     0.94393   0.43451   0.46917   0.00000  Uiso   1.00
H122   H     0.81301   0.61448   0.46889   0.00000  Uiso   1.00
H123   H     0.96023   0.59812   0.07797   0.00000  Uiso   1.00
H124   H     0.03784   0.66796   0.09612   0.00000  Uiso   1.00
H125   H     0.95246   0.52051   0.09595   0.00000  Uiso   1.00
H126   H     0.89038   0.60586   0.09582   0.00000  Uiso   1.00
H127   H     0.12389   0.74537   0.03112   0.00000  Uiso   1.00
H128   H     0.94386   0.43448   0.03078   0.00000  Uiso   1.00
H129   H     0.81295   0.61445   0.03050   0.00000  Uiso   1.00
O130   O     0.17499   0.79132   0.75042   0.00000  Uiso   1.00
O131   O     0.93878   0.38344   0.74997   0.00000  Uiso   1.00
O132   O     0.76703   0.61956   0.74960   0.00000  Uiso   1.00
N133   N     0.11329   0.73581   0.59919   0.00000  Uiso   1.00
N134   N     0.94498   0.44516   0.59887   0.00000  Uiso   1.00
N135   N     0.82257   0.61340   0.59861   0.00000  Uiso   1.00
N136   N     0.11325   0.73580   0.90139   0.00000  Uiso   1.00
N137   N     0.94494   0.44514   0.90107   0.00000  Uiso   1.00
N138   N     0.82254   0.61339   0.90081   0.00000  Uiso   1.00
C139   C     0.59815   0.63786   0.42770   0.00000  Uiso   1.00
C140   C     0.63609   0.63364   0.34644   0.00000  Uiso   1.00
C141   C     0.66800   0.63008   0.44645   0.00000  Uiso   1.00
C142   C     0.69993   0.62653   0.34648   0.00000  Uiso   1.00
C143   C     0.75883   0.61996   0.24966   0.00000  Uiso   1.00
C144   C     0.55598   0.59992   0.34653   0.00000  Uiso   1.00
C145   C     0.52054   0.56801   0.44661   0.00000  Uiso   1.00
C146   C     0.48503   0.53607   0.34671   0.00000  Uiso   1.00
C147   C     0.41955   0.47716   0.25003   0.00000  Uiso   1.00
C148   C     0.60236   0.68002   0.34660   0.00000  Uiso   1.00
C149   C     0.60589   0.71546   0.44675   0.00000  Uiso   1.00
C150   C     0.60943   0.75096   0.34691   0.00000  Uiso   1.00
C151   C     0.61595   0.81643   0.25034   0.00000  Uiso   1.00
C152   C     0.59813   0.63788   0.07232   0.00000  Uiso   1.00
C153   C     0.63608   0.63366   0.15341   0.00000  Uiso   1.00
C154   C     0.66797   0.63011   0.05326   0.00000  Uiso   1.00
C155   C     0.69992   0.62654   0.15310   0.00000  Uiso   1.00
C156   C     0.55597   0.59993   0.15350   0.00000  Uiso   1.00
C157   C     0.52051   0.56803   0.05342   0.00000  Uiso   1.00
C158   C     0.48502   0.53608   0.15333   0.00000  Uiso   1.00
C159   C     0.60235   0.68004   0.15357   0.00000  Uiso   1.00
C160   C     0.60587   0.71549   0.05356   0.00000  Uiso   1.00
C161   C     0.60941   0.75097   0.15353   0.00000  Uiso   1.00
H162   H     0.59816   0.63785   0.57798   0.00000  Uiso   1.00
H163   H     0.66799   0.63007   0.59583   0.00000  Uiso   1.00
H164   H     0.52055   0.56801   0.59599   0.00000  Uiso   1.00
H165   H     0.60590   0.71544   0.59612   0.00000  Uiso   1.00
H166   H     0.74540   0.62144   0.53049   0.00000  Uiso   1.00
H167   H     0.43451   0.49059   0.53083   0.00000  Uiso   1.00
H168   H     0.61448   0.80147   0.53111   0.00000  Uiso   1.00
H169   H     0.59812   0.63789   0.92203   0.00000  Uiso   1.00
H170   H     0.66796   0.63012   0.90388   0.00000  Uiso   1.00
H171   H     0.52051   0.56805   0.90405   0.00000  Uiso   1.00
H172   H     0.60586   0.71548   0.90418   0.00000  Uiso   1.00
H173   H     0.74537   0.62148   0.96888   0.00000  Uiso   1.00
H174   H     0.43448   0.49062   0.96922   0.00000  Uiso   1.00
H175   H     0.61445   0.80151   0.96950   0.00000  Uiso   1.00
O176   O     0.79132   0.61633   0.24958   0.00000  Uiso   1.00
O177   O     0.38344   0.44466   0.25003   0.00000  Uiso   1.00
O178   O     0.61956   0.85254   0.25040   0.00000  Uiso   1.00
N179   N     0.73581   0.62253   0.40081   0.00000  Uiso   1.00
N180   N     0.44516   0.50018   0.40113   0.00000  Uiso   1.00
N181   N     0.61340   0.79083   0.40139   0.00000  Uiso   1.00
N182   N     0.73580   0.62254   0.09861   0.00000  Uiso   1.00
N183   N     0.44514   0.50020   0.09893   0.00000  Uiso   1.00
N184   N     0.61339   0.79085   0.09919   0.00000  Uiso   1.00
C185   C     0.36214   0.96029   0.42770   0.00000  Uiso   1.00
C186   C     0.36636   0.00245   0.34644   0.00000  Uiso   1.00
C187   C     0.36992   0.03791   0.44645   0.00000  Uiso   1.00
C188   C     0.37347   0.07340   0.34648   0.00000  Uiso   1.00
C189   C     0.38004   0.13887   0.24966   0.00000  Uiso   1.00
C190   C     0.40008   0.95607   0.34653   0.00000  Uiso   1.00
C191   C     0.43199   0.95253   0.44661   0.00000  Uiso   1.00
C192   C     0.46393   0.94897   0.34671   0.00000  Uiso   1.00
C193   C     0.52284   0.94239   0.25003   0.00000  Uiso   1.00
C194   C     0.31998   0.92234   0.34660   0.00000  Uiso   1.00
C195   C     0.28454   0.89043   0.44675   0.00000  Uiso   1.00
C196   C     0.24904   0.85847   0.34691   0.00000  Uiso   1.00
C197   C     0.18357   0.79953   0.25034   0.00000  Uiso   1.00
C198   C     0.36212   0.96025   0.07232   0.00000  Uiso   1.00
C199   C     0.36634   0.00242   0.15341   0.00000  Uiso   1.00
C200   C     0.36989   0.03786   0.05326   0.00000  Uiso   1.00
C201   C     0.37346   0.07338   0.15310   0.00000  Uiso   1.00
C202   C     0.40007   0.95604   0.15350   0.00000  Uiso   1.00
C203   C     0.43197   0.95248   0.05342   0.00000  Uiso   1.00
C204   C     0.46392   0.94894   0.15333   0.00000  Uiso   1.00
C205   C     0.31996   0.92231   0.15357   0.00000  Uiso   1.00
C206   C     0.28451   0.89039   0.05356   0.00000  Uiso   1.00
C207   C     0.24903   0.85844   0.15353   0.00000  Uiso   1.00
H208   H     0.36215   0.96031   0.57798   0.00000  Uiso   1.00
H209   H     0.36993   0.03792   0.59583   0.00000  Uiso   1.00
H210   H     0.43199   0.95254   0.59599   0.00000  Uiso   1.00
H211   H     0.28456   0.89046   0.59612   0.00000  Uiso   1.00
H212   H     0.37856   0.12396   0.53049   0.00000  Uiso   1.00
H213   H     0.50941   0.94393   0.53083   0.00000  Uiso   1.00
H214   H     0.19853   0.81301   0.53111   0.00000  Uiso   1.00
H215   H     0.36211   0.96023   0.92203   0.00000  Uiso   1.00
H216   H     0.36988   0.03784   0.90388   0.00000  Uiso   1.00
H217   H     0.43195   0.95246   0.90405   0.00000  Uiso   1.00
H218   H     0.28452   0.89038   0.90418   0.00000  Uiso   1.00
H219   H     0.37852   0.12389   0.96888   0.00000  Uiso   1.00
H220   H     0.50938   0.94386   0.96922   0.00000  Uiso   1.00
H221   H     0.19849   0.81295   0.96950   0.00000  Uiso   1.00
O222   O     0.38367   0.17499   0.24958   0.00000  Uiso   1.00
O223   O     0.55534   0.93878   0.25003   0.00000  Uiso   1.00
O224   O     0.14746   0.76703   0.25040   0.00000  Uiso   1.00
N225   N     0.37747   0.11329   0.40081   0.00000  Uiso   1.00
N226   N     0.49982   0.94498   0.40113   0.00000  Uiso   1.00
N227   N     0.20917   0.82257   0.40139   0.00000  Uiso   1.00
N228   N     0.37746   0.11325   0.09861   0.00000  Uiso   1.00
N229   N     0.49980   0.94494   0.09893   0.00000  Uiso   1.00
N230   N     0.20915   0.82254   0.09919   0.00000  Uiso   1.00
C231   C     0.03971   0.40185   0.42770   0.00000  Uiso   1.00
C232   C     0.99755   0.36391   0.34644   0.00000  Uiso   1.00
C233   C     0.96209   0.33200   0.44645   0.00000  Uiso   1.00
C234   C     0.92660   0.30007   0.34648   0.00000  Uiso   1.00
C235   C     0.86113   0.24117   0.24966   0.00000  Uiso   1.00
C236   C     0.04393   0.44402   0.34653   0.00000  Uiso   1.00
C237   C     0.04747   0.47946   0.44661   0.00000  Uiso   1.00
C238   C     0.05103   0.51497   0.34671   0.00000  Uiso   1.00
C239   C     0.05761   0.58045   0.25003   0.00000  Uiso   1.00
C240   C     0.07766   0.39764   0.34660   0.00000  Uiso   1.00
C241   C     0.10957   0.39411   0.44675   0.00000  Uiso   1.00
C242   C     0.14153   0.39057   0.34691   0.00000  Uiso   1.00
C243   C     0.20047   0.38405   0.25034   0.00000  Uiso   1.00
C244   C     0.03975   0.40187   0.07232   0.00000  Uiso   1.00
C245   C     0.99758   0.36392   0.15341   0.00000  Uiso   1.00
C246   C     0.96214   0.33203   0.05326   0.00000  Uiso   1.00
C247   C     0.92662   0.30008   0.15310   0.00000  Uiso   1.00
C248   C     0.04396   0.44403   0.15350   0.00000  Uiso   1.00
C249   C     0.04752   0.47949   0.05342   0.00000  Uiso   1.00
C250   C     0.05106   0.51498   0.15333   0.00000  Uiso   1.00
C251   C     0.07769   0.39765   0.15357   0.00000  Uiso   1.00
C252   C     0.10961   0.39413   0.05356   0.00000  Uiso   1.00
C253   C     0.14156   0.39059   0.15353   0.00000  Uiso   1.00
H254   H     0.03969   0.40184   0.57798   0.00000  Uiso   1.00
H255   H     0.96208   0.33201   0.59583   0.00000  Uiso   1.00
H256   H     0.04746   0.47945   0.59599   0.00000  Uiso   1.00
H257   H     0.10954   0.39410   0.59612   0.00000  Uiso   1.00
H258   H     0.87604   0.25460   0.53049   0.00000  Uiso   1.00
H259   H     0.05607   0.56549   0.53083   0.00000  Uiso   1.00
H260   H     0.18699   0.38552   0.53111   0.00000  Uiso   1.00
H261   H     0.03977   0.40188   0.92203   0.00000  Uiso   1.00
H262   H     0.96216   0.33204   0.90388   0.00000  Uiso   1.00
H263   H     0.04754   0.47949   0.90405   0.00000  Uiso   1.00
H264   H     0.10962   0.39414   0.90418   0.00000  Uiso   1.00
H265   H     0.87611   0.25463   0.96888   0.00000  Uiso   1.00
H266   H     0.05614   0.56552   0.96922   0.00000  Uiso   1.00
H267   H     0.18705   0.38555   0.96950   0.00000  Uiso   1.00
O268   O     0.82501   0.20868   0.24958   0.00000  Uiso   1.00
O269   O     0.06122   0.61656   0.25003   0.00000  Uiso   1.00
O270   O     0.23297   0.38044   0.25040   0.00000  Uiso   1.00
N271   N     0.88671   0.26419   0.40081   0.00000  Uiso   1.00
N272   N     0.05502   0.55484   0.40113   0.00000  Uiso   1.00
N273   N     0.17743   0.38660   0.40139   0.00000  Uiso   1.00
N274   N     0.88675   0.26420   0.09861   0.00000  Uiso   1.00
N275   N     0.05506   0.55486   0.09893   0.00000  Uiso   1.00
N276   N     0.17746   0.38661   0.09919   0.00000  Uiso   1.00
