data_job_04005
_audit_creation_date              2018-12-19
_audit_creation_method            'Materials Studio'
_symmetry_space_group_name_H-M    'P1'
_symmetry_Int_Tables_number       1
_symmetry_cell_setting            triclinic
loop_
_symmetry_equiv_pos_as_xyz
  x,y,z
_cell_length_a                    9.7012
_cell_length_b                    12.1343
_cell_length_c                    27.7446
_cell_angle_alpha                 90.0000
_cell_angle_beta                  82.0646
_cell_angle_gamma                 90.0000
loop_
_atom_site_label
_atom_site_type_symbol
_atom_site_fract_x
_atom_site_fract_y
_atom_site_fract_z
_atom_site_U_iso_or_equiv
_atom_site_adp_type
_atom_site_occupancy
C1     C     0.17442   0.03039   0.58407   0.00000  Uiso   1.00
C2     C     0.05521   0.99658   0.62296   0.00000  Uiso   1.00
C3     C     0.91492   0.99759   0.61785   0.00000  Uiso   1.00
C4     C     0.82206   0.96363   0.65768   0.00000  Uiso   1.00
C5     C     0.62997   0.91632   0.71148   0.00000  Uiso   1.00
C6     C     0.25383   0.12051   0.60691   0.00000  Uiso   1.00
C7     C     0.28055   0.22570   0.58830   0.00000  Uiso   1.00
C8     C     0.35492   0.29605   0.61461   0.00000  Uiso   1.00
C9     C     0.47127   0.44110   0.64347   0.00000  Uiso   1.00
C10    C     0.27218   0.93154   0.57705   0.00000  Uiso   1.00
C11    C     0.31436   0.87786   0.53333   0.00000  Uiso   1.00
C12    C     0.40420   0.78912   0.53450   0.00000  Uiso   1.00
C13    C     0.54904   0.64078   0.51700   0.00000  Uiso   1.00
C14    C     0.25900   0.96829   0.66389   0.00000  Uiso   1.00
C15    C     0.10115   0.96285   0.66632   0.00000  Uiso   1.00
C16    C     0.00849   0.92888   0.70617   0.00000  Uiso   1.00
C17    C     0.86808   0.92983   0.70112   0.00000  Uiso   1.00
C18    C     0.29977   0.08678   0.65026   0.00000  Uiso   1.00
C19    C     0.37412   0.15699   0.67661   0.00000  Uiso   1.00
C20    C     0.40094   0.26226   0.65805   0.00000  Uiso   1.00
C21    C     0.31812   0.89780   0.62040   0.00000  Uiso   1.00
C22    C     0.40792   0.80914   0.62164   0.00000  Uiso   1.00
C23    C     0.45022   0.75533   0.57794   0.00000  Uiso   1.00
H24    H     0.13866   0.05666   0.55032   0.00000  Uiso   1.00
H25    H     0.87940   0.02371   0.58429   0.00000  Uiso   1.00
H26    H     0.24500   0.25177   0.55474   0.00000  Uiso   1.00
H27    H     0.27879   0.90398   0.49978   0.00000  Uiso   1.00
H28    H     0.61223   0.97234   0.64109   0.00000  Uiso   1.00
H29    H     0.38314   0.45322   0.57877   0.00000  Uiso   1.00
H30    H     0.45440   0.71984   0.46288   0.00000  Uiso   1.00
H31    H     0.29477   0.94203   0.69765   0.00000  Uiso   1.00
H32    H     0.04407   0.90278   0.73971   0.00000  Uiso   1.00
H33    H     0.40966   0.13085   0.71016   0.00000  Uiso   1.00
H34    H     0.44345   0.78306   0.65520   0.00000  Uiso   1.00
H35    H     0.74588   0.87420   0.76724   0.00000  Uiso   1.00
H36    H     0.51680   0.35507   0.70491   0.00000  Uiso   1.00
H37    H     0.58805   0.62169   0.58902   0.00000  Uiso   1.00
O38    O     0.51132   0.89956   0.72918   0.00000  Uiso   1.00
O39    O     0.52275   0.53044   0.64741   0.00000  Uiso   1.00
O40    O     0.61623   0.56826   0.49537   0.00000  Uiso   1.00
N41    N     0.67809   0.95461   0.66500   0.00000  Uiso   1.00
N42    N     0.39883   0.40420   0.60674   0.00000  Uiso   1.00
N43    N     0.46548   0.71857   0.49839   0.00000  Uiso   1.00
N44    N     0.75000   0.90180   0.73288   0.00000  Uiso   1.00
N45    N     0.47074   0.35139   0.67462   0.00000  Uiso   1.00
N46    N     0.53739   0.66576   0.56627   0.00000  Uiso   1.00
C47    C     0.82558   0.53039   0.91593   0.00000  Uiso   1.00
C48    C     0.94479   0.49658   0.87704   0.00000  Uiso   1.00
C49    C     0.08508   0.49759   0.88215   0.00000  Uiso   1.00
C50    C     0.17794   0.46363   0.84232   0.00000  Uiso   1.00
C51    C     0.37003   0.41632   0.78852   0.00000  Uiso   1.00
C52    C     0.74617   0.62051   0.89309   0.00000  Uiso   1.00
C53    C     0.71945   0.72570   0.91170   0.00000  Uiso   1.00
C54    C     0.64508   0.79605   0.88539   0.00000  Uiso   1.00
C55    C     0.52873   0.94110   0.85653   0.00000  Uiso   1.00
C56    C     0.72782   0.43154   0.92295   0.00000  Uiso   1.00
C57    C     0.68564   0.37786   0.96667   0.00000  Uiso   1.00
C58    C     0.59580   0.28912   0.96550   0.00000  Uiso   1.00
C59    C     0.45096   0.14078   0.98300   0.00000  Uiso   1.00
C60    C     0.74100   0.46829   0.83611   0.00000  Uiso   1.00
C61    C     0.89885   0.46285   0.83368   0.00000  Uiso   1.00
C62    C     0.99151   0.42888   0.79383   0.00000  Uiso   1.00
C63    C     0.13192   0.42983   0.79888   0.00000  Uiso   1.00
C64    C     0.70023   0.58678   0.84974   0.00000  Uiso   1.00
C65    C     0.62588   0.65699   0.82339   0.00000  Uiso   1.00
C66    C     0.59906   0.76226   0.84195   0.00000  Uiso   1.00
C67    C     0.68188   0.39780   0.87960   0.00000  Uiso   1.00
C68    C     0.59208   0.30914   0.87836   0.00000  Uiso   1.00
C69    C     0.54978   0.25533   0.92206   0.00000  Uiso   1.00
H70    H     0.86134   0.55666   0.94968   0.00000  Uiso   1.00
H71    H     0.12060   0.52371   0.91571   0.00000  Uiso   1.00
H72    H     0.75500   0.75177   0.94526   0.00000  Uiso   1.00
H73    H     0.72121   0.40398   0.00022   0.00000  Uiso   1.00
H74    H     0.38777   0.47234   0.85891   0.00000  Uiso   1.00
H75    H     0.61686   0.95322   0.92123   0.00000  Uiso   1.00
H76    H     0.54560   0.21984   0.03712   0.00000  Uiso   1.00
H77    H     0.70523   0.44203   0.80235   0.00000  Uiso   1.00
H78    H     0.95593   0.40278   0.76029   0.00000  Uiso   1.00
H79    H     0.59034   0.63085   0.78984   0.00000  Uiso   1.00
H80    H     0.55655   0.28306   0.84480   0.00000  Uiso   1.00
H81    H     0.25412   0.37420   0.73276   0.00000  Uiso   1.00
H82    H     0.48320   0.85507   0.79509   0.00000  Uiso   1.00
H83    H     0.41195   0.12169   0.91098   0.00000  Uiso   1.00
O84    O     0.48868   0.39956   0.77082   0.00000  Uiso   1.00
O85    O     0.47725   0.03044   0.85259   0.00000  Uiso   1.00
O86    O     0.38377   0.06826   0.00463   0.00000  Uiso   1.00
N87    N     0.32191   0.45461   0.83500   0.00000  Uiso   1.00
N88    N     0.60117   0.90420   0.89326   0.00000  Uiso   1.00
N89    N     0.53452   0.21857   0.00161   0.00000  Uiso   1.00
N90    N     0.25000   0.40180   0.76712   0.00000  Uiso   1.00
N91    N     0.52926   0.85139   0.82538   0.00000  Uiso   1.00
N92    N     0.46261   0.16576   0.93373   0.00000  Uiso   1.00
C93    C     0.82558   0.96961   0.41593   0.00000  Uiso   1.00
C94    C     0.94479   0.00342   0.37704   0.00000  Uiso   1.00
C95    C     0.08508   0.00241   0.38215   0.00000  Uiso   1.00
C96    C     0.17794   0.03637   0.34232   0.00000  Uiso   1.00
C97    C     0.37003   0.08368   0.28852   0.00000  Uiso   1.00
C98    C     0.74617   0.87949   0.39309   0.00000  Uiso   1.00
C99    C     0.71945   0.77430   0.41170   0.00000  Uiso   1.00
C100   C     0.64508   0.70395   0.38539   0.00000  Uiso   1.00
C101   C     0.52873   0.55890   0.35653   0.00000  Uiso   1.00
C102   C     0.72782   0.06846   0.42295   0.00000  Uiso   1.00
C103   C     0.68564   0.12214   0.46667   0.00000  Uiso   1.00
C104   C     0.59580   0.21088   0.46550   0.00000  Uiso   1.00
C105   C     0.45096   0.35922   0.48300   0.00000  Uiso   1.00
C106   C     0.74100   0.03171   0.33611   0.00000  Uiso   1.00
C107   C     0.89885   0.03715   0.33368   0.00000  Uiso   1.00
C108   C     0.99151   0.07112   0.29383   0.00000  Uiso   1.00
C109   C     0.13192   0.07017   0.29888   0.00000  Uiso   1.00
C110   C     0.70023   0.91322   0.34974   0.00000  Uiso   1.00
C111   C     0.62588   0.84301   0.32339   0.00000  Uiso   1.00
C112   C     0.59906   0.73774   0.34195   0.00000  Uiso   1.00
C113   C     0.68188   0.10220   0.37960   0.00000  Uiso   1.00
C114   C     0.59208   0.19086   0.37836   0.00000  Uiso   1.00
C115   C     0.54978   0.24467   0.42206   0.00000  Uiso   1.00
H116   H     0.86134   0.94334   0.44968   0.00000  Uiso   1.00
H117   H     0.12060   0.97629   0.41571   0.00000  Uiso   1.00
H118   H     0.75500   0.74823   0.44526   0.00000  Uiso   1.00
H119   H     0.72121   0.09602   0.50022   0.00000  Uiso   1.00
H120   H     0.38777   0.02766   0.35891   0.00000  Uiso   1.00
H121   H     0.61686   0.54678   0.42123   0.00000  Uiso   1.00
H122   H     0.54560   0.28016   0.53712   0.00000  Uiso   1.00
H123   H     0.70523   0.05797   0.30235   0.00000  Uiso   1.00
H124   H     0.95593   0.09722   0.26029   0.00000  Uiso   1.00
H125   H     0.59034   0.86915   0.28984   0.00000  Uiso   1.00
H126   H     0.55655   0.21694   0.34480   0.00000  Uiso   1.00
H127   H     0.25412   0.12580   0.23276   0.00000  Uiso   1.00
H128   H     0.48320   0.64493   0.29509   0.00000  Uiso   1.00
H129   H     0.41195   0.37831   0.41098   0.00000  Uiso   1.00
O130   O     0.48868   0.10044   0.27082   0.00000  Uiso   1.00
O131   O     0.47725   0.46956   0.35259   0.00000  Uiso   1.00
O132   O     0.38377   0.43174   0.50463   0.00000  Uiso   1.00
N133   N     0.32191   0.04539   0.33500   0.00000  Uiso   1.00
N134   N     0.60117   0.59580   0.39326   0.00000  Uiso   1.00
N135   N     0.53452   0.28143   0.50161   0.00000  Uiso   1.00
N136   N     0.25000   0.09820   0.26712   0.00000  Uiso   1.00
N137   N     0.52926   0.64861   0.32538   0.00000  Uiso   1.00
N138   N     0.46261   0.33424   0.43373   0.00000  Uiso   1.00
C139   C     0.17442   0.46961   0.08407   0.00000  Uiso   1.00
C140   C     0.05521   0.50342   0.12296   0.00000  Uiso   1.00
C141   C     0.91492   0.50241   0.11785   0.00000  Uiso   1.00
C142   C     0.82206   0.53637   0.15768   0.00000  Uiso   1.00
C143   C     0.62997   0.58368   0.21148   0.00000  Uiso   1.00
C144   C     0.25383   0.37949   0.10691   0.00000  Uiso   1.00
C145   C     0.28055   0.27430   0.08830   0.00000  Uiso   1.00
C146   C     0.35492   0.20395   0.11461   0.00000  Uiso   1.00
C147   C     0.47127   0.05890   0.14347   0.00000  Uiso   1.00
C148   C     0.27218   0.56846   0.07705   0.00000  Uiso   1.00
C149   C     0.31436   0.62214   0.03333   0.00000  Uiso   1.00
C150   C     0.40420   0.71088   0.03450   0.00000  Uiso   1.00
C151   C     0.54904   0.85922   0.01700   0.00000  Uiso   1.00
C152   C     0.25900   0.53171   0.16389   0.00000  Uiso   1.00
C153   C     0.10115   0.53715   0.16632   0.00000  Uiso   1.00
C154   C     0.00849   0.57112   0.20617   0.00000  Uiso   1.00
C155   C     0.86808   0.57017   0.20112   0.00000  Uiso   1.00
C156   C     0.29977   0.41322   0.15026   0.00000  Uiso   1.00
C157   C     0.37412   0.34301   0.17661   0.00000  Uiso   1.00
C158   C     0.40094   0.23774   0.15805   0.00000  Uiso   1.00
C159   C     0.31812   0.60220   0.12040   0.00000  Uiso   1.00
C160   C     0.40792   0.69086   0.12164   0.00000  Uiso   1.00
C161   C     0.45022   0.74467   0.07794   0.00000  Uiso   1.00
H162   H     0.13866   0.44334   0.05032   0.00000  Uiso   1.00
H163   H     0.87940   0.47629   0.08429   0.00000  Uiso   1.00
H164   H     0.24500   0.24823   0.05474   0.00000  Uiso   1.00
H165   H     0.27879   0.59602   0.99978   0.00000  Uiso   1.00
H166   H     0.61223   0.52766   0.14109   0.00000  Uiso   1.00
H167   H     0.38314   0.04678   0.07877   0.00000  Uiso   1.00
H168   H     0.45440   0.78016   0.96288   0.00000  Uiso   1.00
H169   H     0.29477   0.55797   0.19765   0.00000  Uiso   1.00
H170   H     0.04407   0.59722   0.23971   0.00000  Uiso   1.00
H171   H     0.40966   0.36915   0.21016   0.00000  Uiso   1.00
H172   H     0.44345   0.71694   0.15520   0.00000  Uiso   1.00
H173   H     0.74588   0.62580   0.26724   0.00000  Uiso   1.00
H174   H     0.51680   0.14493   0.20491   0.00000  Uiso   1.00
H175   H     0.58805   0.87831   0.08902   0.00000  Uiso   1.00
O176   O     0.51132   0.60044   0.22918   0.00000  Uiso   1.00
O177   O     0.52275   0.96956   0.14741   0.00000  Uiso   1.00
O178   O     0.61623   0.93174   0.99537   0.00000  Uiso   1.00
N179   N     0.67809   0.54539   0.16500   0.00000  Uiso   1.00
N180   N     0.39883   0.09580   0.10674   0.00000  Uiso   1.00
N181   N     0.46548   0.78143   0.99839   0.00000  Uiso   1.00
N182   N     0.75000   0.59820   0.23288   0.00000  Uiso   1.00
N183   N     0.47074   0.14861   0.17462   0.00000  Uiso   1.00
N184   N     0.53739   0.83424   0.06627   0.00000  Uiso   1.00
