data_job_00955
_audit_creation_date              2018-12-19
_audit_creation_method            'Materials Studio'
_symmetry_space_group_name_H-M    'P1'
_symmetry_Int_Tables_number       1
_symmetry_cell_setting            triclinic
loop_
_symmetry_equiv_pos_as_xyz
  x,y,z
_cell_length_a                    21.1923
_cell_length_b                    12.2792
_cell_length_c                    20.4855
_cell_angle_alpha                 90.0000
_cell_angle_beta                  151.9679
_cell_angle_gamma                 90.0000
loop_
_atom_site_label
_atom_site_type_symbol
_atom_site_fract_x
_atom_site_fract_y
_atom_site_fract_z
_atom_site_U_iso_or_equiv
_atom_site_adp_type
_atom_site_occupancy
C1     C     0.67036   0.88504   0.01756   0.00000  Uiso   1.00
C2     C     0.56801   0.79372   0.93240   0.00000  Uiso   1.00
C3     C     0.43344   0.79881   0.79222   0.00000  Uiso   1.00
C4     C     0.35636   0.70659   0.73339   0.00000  Uiso   1.00
C5     C     0.18896   0.57909   0.58921   0.00000  Uiso   1.00
C6     C     0.72908   0.90551   0.13881   0.00000  Uiso   1.00
C7     C     0.72994   0.00459   0.17219   0.00000  Uiso   1.00
C8     C     0.78846   0.00648   0.28714   0.00000  Uiso   1.00
C9     C     0.87121   0.05255   0.46349   0.00000  Uiso   1.00
C10    C     0.78418   0.83745   0.08069   0.00000  Uiso   1.00
C11    C     0.83141   0.87933   0.06523   0.00000  Uiso   1.00
C12    C     0.93636   0.82393   0.13127   0.00000  Uiso   1.00
C13    C     0.10467   0.76434   0.21737   0.00000  Uiso   1.00
C14    C     0.77279   0.71221   0.16236   0.00000  Uiso   1.00
C15    C     0.62365   0.69985   0.01105   0.00000  Uiso   1.00
C16    C     0.54676   0.60759   0.95242   0.00000  Uiso   1.00
C17    C     0.41209   0.61254   0.81217   0.00000  Uiso   1.00
C18    C     0.78471   0.81164   0.21746   0.00000  Uiso   1.00
C19    C     0.84326   0.81338   0.33239   0.00000  Uiso   1.00
C20    C     0.84420   0.91244   0.36593   0.00000  Uiso   1.00
C21    C     0.83982   0.74358   0.15934   0.00000  Uiso   1.00
C22    C     0.94472   0.68811   0.22542   0.00000  Uiso   1.00
C23    C     0.99210   0.72989   0.21006   0.00000  Uiso   1.00
H24    H     0.62705   0.95813   0.95633   0.00000  Uiso   1.00
H25    H     0.39042   0.87148   0.73139   0.00000  Uiso   1.00
H26    H     0.68689   0.07723   0.11132   0.00000  Uiso   1.00
H27    H     0.78834   0.95198   0.00436   0.00000  Uiso   1.00
H28    H     0.15259   0.73402   0.51670   0.00000  Uiso   1.00
H29    H     0.77775   0.16787   0.31782   0.00000  Uiso   1.00
H30    H     0.99168   0.90376   0.09229   0.00000  Uiso   1.00
H31    H     0.81610   0.63912   0.22359   0.00000  Uiso   1.00
H32    H     0.58984   0.53496   0.01331   0.00000  Uiso   1.00
H33    H     0.88630   0.74072   0.39324   0.00000  Uiso   1.00
H34    H     0.98775   0.61547   0.28628   0.00000  Uiso   1.00
H35    H     0.31444   0.46089   0.74551   0.00000  Uiso   1.00
H36    H     0.93961   0.89475   0.54664   0.00000  Uiso   1.00
H37    H     0.15353   0.63064   0.32110   0.00000  Uiso   1.00
O38    O     0.08125   0.53470   0.48796   0.00000  Uiso   1.00
O39    O     0.90146   0.10391   0.53902   0.00000  Uiso   1.00
O40    O     0.18212   0.75740   0.24311   0.00000  Uiso   1.00
N41    N     0.22174   0.68403   0.59940   0.00000  Uiso   1.00
N42    N     0.80621   0.08965   0.34839   0.00000  Uiso   1.00
N43    N     0.00624   0.84275   0.13756   0.00000  Uiso   1.00
N44    N     0.30883   0.53706   0.72252   0.00000  Uiso   1.00
N45    N     0.89330   0.94268   0.47151   0.00000  Uiso   1.00
N46    N     0.09333   0.69578   0.26069   0.00000  Uiso   1.00
C47    C     0.32964   0.38504   0.48244   0.00000  Uiso   1.00
C48    C     0.43199   0.29372   0.56760   0.00000  Uiso   1.00
C49    C     0.56656   0.29881   0.70778   0.00000  Uiso   1.00
C50    C     0.64364   0.20659   0.76661   0.00000  Uiso   1.00
C51    C     0.81104   0.07909   0.91079   0.00000  Uiso   1.00
C52    C     0.27092   0.40551   0.36119   0.00000  Uiso   1.00
C53    C     0.27006   0.50459   0.32781   0.00000  Uiso   1.00
C54    C     0.21154   0.50648   0.21286   0.00000  Uiso   1.00
C55    C     0.12879   0.55255   0.03651   0.00000  Uiso   1.00
C56    C     0.21582   0.33745   0.41931   0.00000  Uiso   1.00
C57    C     0.16859   0.37933   0.43477   0.00000  Uiso   1.00
C58    C     0.06364   0.32393   0.36873   0.00000  Uiso   1.00
C59    C     0.89533   0.26434   0.28263   0.00000  Uiso   1.00
C60    C     0.22721   0.21221   0.33764   0.00000  Uiso   1.00
C61    C     0.37635   0.19985   0.48895   0.00000  Uiso   1.00
C62    C     0.45324   0.10759   0.54758   0.00000  Uiso   1.00
C63    C     0.58791   0.11254   0.68783   0.00000  Uiso   1.00
C64    C     0.21529   0.31164   0.28254   0.00000  Uiso   1.00
C65    C     0.15674   0.31338   0.16761   0.00000  Uiso   1.00
C66    C     0.15580   0.41244   0.13407   0.00000  Uiso   1.00
C67    C     0.16018   0.24358   0.34066   0.00000  Uiso   1.00
C68    C     0.05528   0.18811   0.27458   0.00000  Uiso   1.00
C69    C     0.00790   0.22989   0.28994   0.00000  Uiso   1.00
H70    H     0.37295   0.45813   0.54367   0.00000  Uiso   1.00
H71    H     0.60958   0.37148   0.76861   0.00000  Uiso   1.00
H72    H     0.31311   0.57723   0.38868   0.00000  Uiso   1.00
H73    H     0.21166   0.45198   0.49564   0.00000  Uiso   1.00
H74    H     0.84741   0.23402   0.98330   0.00000  Uiso   1.00
H75    H     0.22225   0.66787   0.18218   0.00000  Uiso   1.00
H76    H     0.00832   0.40376   0.40771   0.00000  Uiso   1.00
H77    H     0.18390   0.13912   0.27641   0.00000  Uiso   1.00
H78    H     0.41016   0.03496   0.48669   0.00000  Uiso   1.00
H79    H     0.11370   0.24072   0.10676   0.00000  Uiso   1.00
H80    H     0.01225   0.11547   0.21372   0.00000  Uiso   1.00
H81    H     0.68556   0.96089   0.75449   0.00000  Uiso   1.00
H82    H     0.06039   0.39475   0.95336   0.00000  Uiso   1.00
H83    H     0.84647   0.13064   0.17890   0.00000  Uiso   1.00
O84    O     0.91875   0.03470   0.01204   0.00000  Uiso   1.00
O85    O     0.09854   0.60391   0.96098   0.00000  Uiso   1.00
O86    O     0.81788   0.25740   0.25689   0.00000  Uiso   1.00
N87    N     0.77826   0.18403   0.90060   0.00000  Uiso   1.00
N88    N     0.19379   0.58965   0.15161   0.00000  Uiso   1.00
N89    N     0.99376   0.34275   0.36244   0.00000  Uiso   1.00
N90    N     0.69117   0.03706   0.77748   0.00000  Uiso   1.00
N91    N     0.10670   0.44268   0.02849   0.00000  Uiso   1.00
N92    N     0.90667   0.19578   0.23931   0.00000  Uiso   1.00
C93    C     0.32964   0.11496   0.98244   0.00000  Uiso   1.00
C94    C     0.43199   0.20628   0.06760   0.00000  Uiso   1.00
C95    C     0.56656   0.20119   0.20778   0.00000  Uiso   1.00
C96    C     0.64364   0.29341   0.26661   0.00000  Uiso   1.00
C97    C     0.81104   0.42091   0.41079   0.00000  Uiso   1.00
C98    C     0.27092   0.09449   0.86119   0.00000  Uiso   1.00
C99    C     0.27006   0.99541   0.82781   0.00000  Uiso   1.00
C100   C     0.21154   0.99352   0.71286   0.00000  Uiso   1.00
C101   C     0.12879   0.94745   0.53651   0.00000  Uiso   1.00
C102   C     0.21582   0.16255   0.91931   0.00000  Uiso   1.00
C103   C     0.16859   0.12067   0.93477   0.00000  Uiso   1.00
C104   C     0.06364   0.17607   0.86873   0.00000  Uiso   1.00
C105   C     0.89533   0.23566   0.78263   0.00000  Uiso   1.00
C106   C     0.22721   0.28779   0.83764   0.00000  Uiso   1.00
C107   C     0.37635   0.30015   0.98895   0.00000  Uiso   1.00
C108   C     0.45324   0.39241   0.04758   0.00000  Uiso   1.00
C109   C     0.58791   0.38746   0.18783   0.00000  Uiso   1.00
C110   C     0.21529   0.18836   0.78254   0.00000  Uiso   1.00
C111   C     0.15674   0.18662   0.66761   0.00000  Uiso   1.00
C112   C     0.15580   0.08756   0.63407   0.00000  Uiso   1.00
C113   C     0.16018   0.25642   0.84066   0.00000  Uiso   1.00
C114   C     0.05528   0.31189   0.77458   0.00000  Uiso   1.00
C115   C     0.00790   0.27011   0.78994   0.00000  Uiso   1.00
H116   H     0.37295   0.04187   0.04367   0.00000  Uiso   1.00
H117   H     0.60958   0.12852   0.26861   0.00000  Uiso   1.00
H118   H     0.31311   0.92277   0.88868   0.00000  Uiso   1.00
H119   H     0.21166   0.04802   0.99564   0.00000  Uiso   1.00
H120   H     0.84741   0.26598   0.48330   0.00000  Uiso   1.00
H121   H     0.22225   0.83213   0.68218   0.00000  Uiso   1.00
H122   H     0.00832   0.09624   0.90771   0.00000  Uiso   1.00
H123   H     0.18390   0.36088   0.77641   0.00000  Uiso   1.00
H124   H     0.41016   0.46504   0.98669   0.00000  Uiso   1.00
H125   H     0.11370   0.25928   0.60676   0.00000  Uiso   1.00
H126   H     0.01225   0.38453   0.71372   0.00000  Uiso   1.00
H127   H     0.68556   0.53911   0.25449   0.00000  Uiso   1.00
H128   H     0.06039   0.10525   0.45336   0.00000  Uiso   1.00
H129   H     0.84647   0.36936   0.67890   0.00000  Uiso   1.00
O130   O     0.91875   0.46530   0.51204   0.00000  Uiso   1.00
O131   O     0.09854   0.89609   0.46098   0.00000  Uiso   1.00
O132   O     0.81788   0.24260   0.75689   0.00000  Uiso   1.00
N133   N     0.77826   0.31597   0.40060   0.00000  Uiso   1.00
N134   N     0.19379   0.91035   0.65161   0.00000  Uiso   1.00
N135   N     0.99376   0.15725   0.86244   0.00000  Uiso   1.00
N136   N     0.69117   0.46294   0.27748   0.00000  Uiso   1.00
N137   N     0.10670   0.05732   0.52849   0.00000  Uiso   1.00
N138   N     0.90667   0.30422   0.73931   0.00000  Uiso   1.00
C139   C     0.67036   0.61496   0.51756   0.00000  Uiso   1.00
C140   C     0.56801   0.70628   0.43240   0.00000  Uiso   1.00
C141   C     0.43344   0.70119   0.29222   0.00000  Uiso   1.00
C142   C     0.35636   0.79341   0.23339   0.00000  Uiso   1.00
C143   C     0.18896   0.92091   0.08921   0.00000  Uiso   1.00
C144   C     0.72908   0.59449   0.63881   0.00000  Uiso   1.00
C145   C     0.72994   0.49541   0.67219   0.00000  Uiso   1.00
C146   C     0.78846   0.49352   0.78714   0.00000  Uiso   1.00
C147   C     0.87121   0.44745   0.96349   0.00000  Uiso   1.00
C148   C     0.78418   0.66255   0.58069   0.00000  Uiso   1.00
C149   C     0.83141   0.62067   0.56523   0.00000  Uiso   1.00
C150   C     0.93636   0.67607   0.63127   0.00000  Uiso   1.00
C151   C     0.10467   0.73566   0.71737   0.00000  Uiso   1.00
C152   C     0.77279   0.78779   0.66236   0.00000  Uiso   1.00
C153   C     0.62365   0.80015   0.51105   0.00000  Uiso   1.00
C154   C     0.54676   0.89241   0.45242   0.00000  Uiso   1.00
C155   C     0.41209   0.88746   0.31217   0.00000  Uiso   1.00
C156   C     0.78471   0.68836   0.71746   0.00000  Uiso   1.00
C157   C     0.84326   0.68662   0.83239   0.00000  Uiso   1.00
C158   C     0.84420   0.58756   0.86593   0.00000  Uiso   1.00
C159   C     0.83982   0.75642   0.65934   0.00000  Uiso   1.00
C160   C     0.94472   0.81189   0.72542   0.00000  Uiso   1.00
C161   C     0.99210   0.77011   0.71006   0.00000  Uiso   1.00
H162   H     0.62705   0.54187   0.45633   0.00000  Uiso   1.00
H163   H     0.39042   0.62852   0.23139   0.00000  Uiso   1.00
H164   H     0.68689   0.42277   0.61132   0.00000  Uiso   1.00
H165   H     0.78834   0.54802   0.50436   0.00000  Uiso   1.00
H166   H     0.15259   0.76598   0.01670   0.00000  Uiso   1.00
H167   H     0.77775   0.33213   0.81782   0.00000  Uiso   1.00
H168   H     0.99168   0.59624   0.59229   0.00000  Uiso   1.00
H169   H     0.81610   0.86088   0.72359   0.00000  Uiso   1.00
H170   H     0.58984   0.96504   0.51331   0.00000  Uiso   1.00
H171   H     0.88630   0.75928   0.89324   0.00000  Uiso   1.00
H172   H     0.98775   0.88453   0.78628   0.00000  Uiso   1.00
H173   H     0.31444   0.03911   0.24551   0.00000  Uiso   1.00
H174   H     0.93961   0.60525   0.04664   0.00000  Uiso   1.00
H175   H     0.15353   0.86936   0.82110   0.00000  Uiso   1.00
O176   O     0.08125   0.96530   0.98796   0.00000  Uiso   1.00
O177   O     0.90146   0.39609   0.03902   0.00000  Uiso   1.00
O178   O     0.18212   0.74260   0.74311   0.00000  Uiso   1.00
N179   N     0.22174   0.81597   0.09940   0.00000  Uiso   1.00
N180   N     0.80621   0.41035   0.84839   0.00000  Uiso   1.00
N181   N     0.00624   0.65725   0.63756   0.00000  Uiso   1.00
N182   N     0.30883   0.96294   0.22252   0.00000  Uiso   1.00
N183   N     0.89330   0.55732   0.97151   0.00000  Uiso   1.00
N184   N     0.09333   0.80422   0.76069   0.00000  Uiso   1.00
