data_job_06852
_audit_creation_date              2018-12-19
_audit_creation_method            'Materials Studio'
_symmetry_space_group_name_H-M    'P1'
_symmetry_Int_Tables_number       1
_symmetry_cell_setting            triclinic
loop_
_symmetry_equiv_pos_as_xyz
  x,y,z
_cell_length_a                    19.5803
_cell_length_b                    21.4707
_cell_length_c                    21.8688
_cell_angle_alpha                 96.2028
_cell_angle_beta                  72.9356
_cell_angle_gamma                 116.2842
loop_
_atom_site_label
_atom_site_type_symbol
_atom_site_fract_x
_atom_site_fract_y
_atom_site_fract_z
_atom_site_U_iso_or_equiv
_atom_site_adp_type
_atom_site_occupancy
C1     C     0.42259   0.47461   0.55878   0.00000  Uiso   1.00
C2     C     0.40397   0.52776   0.60399   0.00000  Uiso   1.00
C3     C     0.45677   0.59631   0.60854   0.00000  Uiso   1.00
C4     C     0.42827   0.63658   0.65287   0.00000  Uiso   1.00
C5     C     0.41131   0.72325   0.71725   0.00000  Uiso   1.00
C6     C     0.40223   0.41332   0.60100   0.00000  Uiso   1.00
C7     C     0.45357   0.38564   0.60304   0.00000  Uiso   1.00
C8     C     0.42359   0.32957   0.64486   0.00000  Uiso   1.00
C9     C     0.40392   0.23854   0.70457   0.00000  Uiso   1.00
C10    C     0.36254   0.44823   0.51978   0.00000  Uiso   1.00
C11    C     0.38049   0.44989   0.45351   0.00000  Uiso   1.00
C12    C     0.31710   0.42318   0.42694   0.00000  Uiso   1.00
C13    C     0.23580   0.38636   0.36054   0.00000  Uiso   1.00
C14    C     0.27809   0.42423   0.62944   0.00000  Uiso   1.00
C15    C     0.32549   0.50039   0.64236   0.00000  Uiso   1.00
C16    C     0.29690   0.54057   0.68671   0.00000  Uiso   1.00
C17    C     0.34964   0.60916   0.69132   0.00000  Uiso   1.00
C18    C     0.32375   0.38595   0.63938   0.00000  Uiso   1.00
C19    C     0.29369   0.32990   0.68121   0.00000  Uiso   1.00
C20    C     0.34497   0.30215   0.68331   0.00000  Uiso   1.00
C21    C     0.28405   0.42086   0.55815   0.00000  Uiso   1.00
C22    C     0.22062   0.39415   0.53168   0.00000  Uiso   1.00
C23    C     0.23848   0.39577   0.46539   0.00000  Uiso   1.00
H24    H     0.48369   0.49592   0.52891   0.00000  Uiso   1.00
H25    H     0.51751   0.61747   0.57883   0.00000  Uiso   1.00
H26    H     0.51430   0.40683   0.57333   0.00000  Uiso   1.00
H27    H     0.44124   0.47107   0.42383   0.00000  Uiso   1.00
H28    H     0.52039   0.74015   0.65112   0.00000  Uiso   1.00
H29    H     0.51362   0.29600   0.63950   0.00000  Uiso   1.00
H30    H     0.35956   0.43145   0.32425   0.00000  Uiso   1.00
H31    H     0.21698   0.40292   0.65932   0.00000  Uiso   1.00
H32    H     0.23616   0.51937   0.71640   0.00000  Uiso   1.00
H33    H     0.23295   0.30873   0.71090   0.00000  Uiso   1.00
H34    H     0.15989   0.37297   0.56140   0.00000  Uiso   1.00
H35    H     0.29203   0.66054   0.76278   0.00000  Uiso   1.00
H36    H     0.28527   0.21637   0.75116   0.00000  Uiso   1.00
H37    H     0.13121   0.35183   0.43591   0.00000  Uiso   1.00
O38    O     0.42364   0.77862   0.74217   0.00000  Uiso   1.00
O39    O     0.41476   0.19590   0.72691   0.00000  Uiso   1.00
O40    O     0.21264   0.37362   0.31331   0.00000  Uiso   1.00
N41    N     0.46401   0.70544   0.66956   0.00000  Uiso   1.00
N42    N     0.45768   0.29018   0.65870   0.00000  Uiso   1.00
N43    N     0.31365   0.41681   0.36397   0.00000  Uiso   1.00
N44    N     0.34113   0.66260   0.72964   0.00000  Uiso   1.00
N45    N     0.33481   0.24734   0.71878   0.00000  Uiso   1.00
N46    N     0.19078   0.37397   0.42405   0.00000  Uiso   1.00
C47    C     0.52972   0.08581   0.10548   0.00000  Uiso   1.00
C48    C     0.57311   0.12164   0.03971   0.00000  Uiso   1.00
C49    C     0.57988   0.08848   0.98166   0.00000  Uiso   1.00
C50    C     0.62199   0.13051   0.92681   0.00000  Uiso   1.00
C51    C     0.68421   0.17512   0.82421   0.00000  Uiso   1.00
C52    C     0.59034   0.11350   0.14400   0.00000  Uiso   1.00
C53    C     0.61159   0.07349   0.17363   0.00000  Uiso   1.00
C54    C     0.66820   0.10868   0.20657   0.00000  Uiso   1.00
C55    C     0.75713   0.14064   0.26592   0.00000  Uiso   1.00
C56    C     0.46871   0.11385   0.13673   0.00000  Uiso   1.00
C57    C     0.38770   0.07413   0.16026   0.00000  Uiso   1.00
C58    C     0.34191   0.10960   0.18710   0.00000  Uiso   1.00
C59    C     0.24199   0.14210   0.23515   0.00000  Uiso   1.00
C60    C     0.59246   0.21943   0.11131   0.00000  Uiso   1.00
C61    C     0.60718   0.19422   0.04288   0.00000  Uiso   1.00
C62    C     0.64929   0.23632   0.98810   0.00000  Uiso   1.00
C63    C     0.65612   0.20322   0.92998   0.00000  Uiso   1.00
C64    C     0.62442   0.18608   0.14716   0.00000  Uiso   1.00
C65    C     0.68100   0.22133   0.18007   0.00000  Uiso   1.00
C66    C     0.70234   0.18138   0.20974   0.00000  Uiso   1.00
C67    C     0.50279   0.18643   0.13989   0.00000  Uiso   1.00
C68    C     0.45711   0.22197   0.16670   0.00000  Uiso   1.00
C69    C     0.37604   0.18231   0.19027   0.00000  Uiso   1.00
H70    H     0.50319   0.02930   0.10302   0.00000  Uiso   1.00
H71    H     0.55350   0.03231   0.97923   0.00000  Uiso   1.00
H72    H     0.58521   0.01733   0.17118   0.00000  Uiso   1.00
H73    H     0.36135   0.01797   0.15780   0.00000  Uiso   1.00
H74    H     0.62434   0.06765   0.84338   0.00000  Uiso   1.00
H75    H     0.69116   0.03606   0.24813   0.00000  Uiso   1.00
H76    H     0.21911   0.03740   0.21994   0.00000  Uiso   1.00
H77    H     0.61899   0.27594   0.11377   0.00000  Uiso   1.00
H78    H     0.67565   0.29248   0.99057   0.00000  Uiso   1.00
H79    H     0.70736   0.27749   0.18251   0.00000  Uiso   1.00
H80    H     0.48350   0.27813   0.16914   0.00000  Uiso   1.00
H81    H     0.72348   0.27882   0.85258   0.00000  Uiso   1.00
H82    H     0.79030   0.24722   0.25734   0.00000  Uiso   1.00
H83    H     0.31826   0.24856   0.22914   0.00000  Uiso   1.00
O84    O     0.70912   0.17967   0.76674   0.00000  Uiso   1.00
O85    O     0.79678   0.13821   0.29777   0.00000  Uiso   1.00
O86    O     0.17747   0.13998   0.26077   0.00000  Uiso   1.00
N87    N     0.63988   0.11508   0.86245   0.00000  Uiso   1.00
N88    N     0.70237   0.08554   0.24086   0.00000  Uiso   1.00
N89    N     0.26105   0.08680   0.21452   0.00000  Uiso   1.00
N90    N     0.69323   0.22870   0.86741   0.00000  Uiso   1.00
N91    N     0.75572   0.19917   0.24581   0.00000  Uiso   1.00
N92    N     0.31439   0.20042   0.21947   0.00000  Uiso   1.00
C93    C     0.97413   0.42144   0.33477   0.00000  Uiso   1.00
C94    C     0.94639   0.41013   0.27450   0.00000  Uiso   1.00
C95    C     0.87845   0.41295   0.27029   0.00000  Uiso   1.00
C96    C     0.86345   0.40110   0.21085   0.00000  Uiso   1.00
C97    C     0.81257   0.38566   0.12537   0.00000  Uiso   1.00
C98    C     0.98269   0.35625   0.34448   0.00000  Uiso   1.00
C99    C     0.94529   0.31377   0.39912   0.00000  Uiso   1.00
C100   C     0.96087   0.25657   0.39858   0.00000  Uiso   1.00
C101   C     0.96640   0.15751   0.42178   0.00000  Uiso   1.00
C102   C     0.05783   0.48008   0.31810   0.00000  Uiso   1.00
C103   C     0.08362   0.54172   0.35057   0.00000  Uiso   1.00
C104   C     0.16246   0.58877   0.32783   0.00000  Uiso   1.00
C105   C     0.28466   0.68197   0.31007   0.00000  Uiso   1.00
C106   C     0.06830   0.39538   0.23667   0.00000  Uiso   1.00
C107   C     0.99754   0.39597   0.22122   0.00000  Uiso   1.00
C108   C     0.98264   0.38412   0.16176   0.00000  Uiso   1.00
C109   C     0.91469   0.38693   0.15746   0.00000  Uiso   1.00
C110   C     0.03384   0.34209   0.29120   0.00000  Uiso   1.00
C111   C     0.04948   0.28495   0.29059   0.00000  Uiso   1.00
C112   C     0.01211   0.24240   0.34521   0.00000  Uiso   1.00
C113   C     0.10898   0.46593   0.26482   0.00000  Uiso   1.00
C114   C     0.18780   0.51289   0.24203   0.00000  Uiso   1.00
C115   C     0.21370   0.57459   0.27445   0.00000  Uiso   1.00
H116   H     0.93431   0.43245   0.37625   0.00000  Uiso   1.00
H117   H     0.83888   0.42389   0.31154   0.00000  Uiso   1.00
H118   H     0.90572   0.32474   0.44035   0.00000  Uiso   1.00
H119   H     0.04402   0.55265   0.39180   0.00000  Uiso   1.00
H120   H     0.75562   0.40814   0.21630   0.00000  Uiso   1.00
H121   H     0.89658   0.19908   0.48791   0.00000  Uiso   1.00
H122   H     0.18822   0.67967   0.38554   0.00000  Uiso   1.00
H123   H     0.10812   0.38436   0.19518   0.00000  Uiso   1.00
H124   H     0.02223   0.37317   0.12053   0.00000  Uiso   1.00
H125   H     0.08907   0.27402   0.24934   0.00000  Uiso   1.00
H126   H     0.22737   0.50192   0.20079   0.00000  Uiso   1.00
H127   H     0.90443   0.36697   0.06127   0.00000  Uiso   1.00
H128   H     0.04539   0.15791   0.33288   0.00000  Uiso   1.00
H129   H     0.33703   0.63850   0.23051   0.00000  Uiso   1.00
O130   O     0.77037   0.38104   0.09295   0.00000  Uiso   1.00
O131   O     0.95532   0.10677   0.44930   0.00000  Uiso   1.00
O132   O     0.33793   0.73729   0.31498   0.00000  Uiso   1.00
N133   N     0.80244   0.40000   0.19006   0.00000  Uiso   1.00
N134   N     0.93422   0.20454   0.44399   0.00000  Uiso   1.00
N135   N     0.20688   0.65384   0.34829   0.00000  Uiso   1.00
N136   N     0.88251   0.37785   0.10664   0.00000  Uiso   1.00
N137   N     0.01429   0.18239   0.36057   0.00000  Uiso   1.00
N138   N     0.28695   0.63169   0.26487   0.00000  Uiso   1.00
C139   C     0.92186   0.00236   0.21786   0.00000  Uiso   1.00
C140   C     0.91714   0.05198   0.17607   0.00000  Uiso   1.00
C141   C     0.97739   0.11635   0.15215   0.00000  Uiso   1.00
C142   C     0.96138   0.15387   0.11486   0.00000  Uiso   1.00
C143   C     0.96527   0.23485   0.05191   0.00000  Uiso   1.00
C144   C     0.90204   0.93384   0.18289   0.00000  Uiso   1.00
C145   C     0.94960   0.89888   0.16470   0.00000  Uiso   1.00
C146   C     0.92088   0.83694   0.13315   0.00000  Uiso   1.00
C147   C     0.90130   0.73448   0.08082   0.00000  Uiso   1.00
C148   C     0.85348   0.98848   0.27838   0.00000  Uiso   1.00
C149   C     0.86021   0.99945   0.34049   0.00000  Uiso   1.00
C150   C     0.79059   0.98350   0.38936   0.00000  Uiso   1.00
C151   C     0.69562   0.96588   0.48530   0.00000  Uiso   1.00
C152   C     0.78627   0.95452   0.19419   0.00000  Uiso   1.00
C153   C     0.84349   0.02599   0.16322   0.00000  Uiso   1.00
C154   C     0.82738   0.06342   0.12596   0.00000  Uiso   1.00
C155   C     0.88761   0.12784   0.10199   0.00000  Uiso   1.00
C156   C     0.82840   0.90785   0.17003   0.00000  Uiso   1.00
C157   C     0.79959   0.84595   0.13851   0.00000  Uiso   1.00
C158   C     0.84710   0.81091   0.12027   0.00000  Uiso   1.00
C159   C     0.77983   0.96250   0.26553   0.00000  Uiso   1.00
C160   C     0.71019   0.94652   0.31431   0.00000  Uiso   1.00
C161   C     0.71681   0.95746   0.37648   0.00000  Uiso   1.00
H162   H     0.97919   0.02259   0.22786   0.00000  Uiso   1.00
H163   H     0.03438   0.13644   0.16210   0.00000  Uiso   1.00
H164   H     0.00659   0.91900   0.17466   0.00000  Uiso   1.00
H165   H     0.91721   0.01956   0.35042   0.00000  Uiso   1.00
H166   H     0.06310   0.25120   0.08350   0.00000  Uiso   1.00
H167   H     0.00449   0.79270   0.10999   0.00000  Uiso   1.00
H168   H     0.81601   0.00473   0.48064   0.00000  Uiso   1.00
H169   H     0.72893   0.93429   0.18418   0.00000  Uiso   1.00
H170   H     0.77038   0.04330   0.11602   0.00000  Uiso   1.00
H171   H     0.74260   0.82585   0.12857   0.00000  Uiso   1.00
H172   H     0.65321   0.92641   0.30434   0.00000  Uiso   1.00
H173   H     0.84883   0.17560   0.04610   0.00000  Uiso   1.00
H174   H     0.79022   0.71709   0.07259   0.00000  Uiso   1.00
H175   H     0.60174   0.92913   0.44323   0.00000  Uiso   1.00
O176   O     0.98776   0.28669   0.02074   0.00000  Uiso   1.00
O177   O     0.91086   0.68515   0.05550   0.00000  Uiso   1.00
O178   O     0.66358   0.96334   0.54177   0.00000  Uiso   1.00
N179   N     0.00698   0.21845   0.08407   0.00000  Uiso   1.00
N180   N     0.95219   0.78978   0.10882   0.00000  Uiso   1.00
N181   N     0.77597   0.98801   0.45534   0.00000  Uiso   1.00
N182   N     0.89168   0.17777   0.06394   0.00000  Uiso   1.00
N183   N     0.83689   0.74910   0.08870   0.00000  Uiso   1.00
N184   N     0.66067   0.94733   0.43522   0.00000  Uiso   1.00
C185   C     0.66752   0.63692   0.85232   0.00000  Uiso   1.00
C186   C     0.62210   0.64567   0.91987   0.00000  Uiso   1.00
C187   C     0.54148   0.62774   0.94080   0.00000  Uiso   1.00
C188   C     0.51119   0.63983   0.00440   0.00000  Uiso   1.00
C189   C     0.43326   0.64896   0.10305   0.00000  Uiso   1.00
C190   C     0.70817   0.59284   0.85943   0.00000  Uiso   1.00
C191   C     0.69992   0.53050   0.82953   0.00000  Uiso   1.00
C192   C     0.74210   0.49812   0.84225   0.00000  Uiso   1.00
C193   C     0.79784   0.42527   0.84701   0.00000  Uiso   1.00
C194   C     0.73369   0.70881   0.82955   0.00000  Uiso   1.00
C195   C     0.74690   0.74398   0.77452   0.00000  Uiso   1.00
C196   C     0.81058   0.80924   0.76207   0.00000  Uiso   1.00
C197   C     0.90593   0.91645   0.72044   0.00000  Uiso   1.00
C198   C     0.75712   0.69026   0.92804   0.00000  Uiso   1.00
C199   C     0.67077   0.67464   0.96100   0.00000  Uiso   1.00
C200   C     0.64061   0.68676   0.02459   0.00000  Uiso   1.00
C201   C     0.55995   0.66885   0.04561   0.00000  Uiso   1.00
C202   C     0.75684   0.62181   0.90056   0.00000  Uiso   1.00
C203   C     0.79905   0.58951   0.91331   0.00000  Uiso   1.00
C204   C     0.79085   0.52715   0.88345   0.00000  Uiso   1.00
C205   C     0.78235   0.73779   0.87068   0.00000  Uiso   1.00
C206   C     0.84603   0.80300   0.85831   0.00000  Uiso   1.00
C207   C     0.85933   0.83826   0.80327   0.00000  Uiso   1.00
H208   H     0.62964   0.61436   0.82030   0.00000  Uiso   1.00
H209   H     0.50383   0.60532   0.90896   0.00000  Uiso   1.00
H210   H     0.66226   0.50810   0.79770   0.00000  Uiso   1.00
H211   H     0.70923   0.72155   0.74270   0.00000  Uiso   1.00
H212   H     0.38581   0.60804   0.02541   0.00000  Uiso   1.00
H213   H     0.71988   0.40306   0.79079   0.00000  Uiso   1.00
H214   H     0.81893   0.85316   0.67481   0.00000  Uiso   1.00
H215   H     0.79501   0.71282   0.96007   0.00000  Uiso   1.00
H216   H     0.67828   0.70918   0.05640   0.00000  Uiso   1.00
H217   H     0.83671   0.61195   0.94514   0.00000  Uiso   1.00
H218   H     0.88368   0.82540   0.89014   0.00000  Uiso   1.00
H219   H     0.52740   0.69233   0.14508   0.00000  Uiso   1.00
H220   H     0.86147   0.48735   0.91046   0.00000  Uiso   1.00
H221   H     0.96052   0.93745   0.79449   0.00000  Uiso   1.00
O222   O     0.37683   0.64599   0.14610   0.00000  Uiso   1.00
O223   O     0.81513   0.37707   0.83829   0.00000  Uiso   1.00
O224   O     0.94507   0.96759   0.68613   0.00000  Uiso   1.00
N225   N     0.43516   0.62839   0.04035   0.00000  Uiso   1.00
N226   N     0.74748   0.43674   0.82101   0.00000  Uiso   1.00
N227   N     0.84010   0.85754   0.71257   0.00000  Uiso   1.00
N228   N     0.51134   0.67375   0.10474   0.00000  Uiso   1.00
N229   N     0.82367   0.48210   0.88540   0.00000  Uiso   1.00
N230   N     0.91629   0.90289   0.77696   0.00000  Uiso   1.00
C231   C     0.45816   0.06184   0.76533   0.00000  Uiso   1.00
C232   C     0.37364   0.01117   0.76547   0.00000  Uiso   1.00
C233   C     0.33475   0.01177   0.72189   0.00000  Uiso   1.00
C234   C     0.25757   0.96100   0.73019   0.00000  Uiso   1.00
C235   C     0.13196   0.88984   0.72277   0.00000  Uiso   1.00
C236   C     0.50184   0.01743   0.76267   0.00000  Uiso   1.00
C237   C     0.57074   0.02330   0.71674   0.00000  Uiso   1.00
C238   C     0.60148   0.97780   0.72269   0.00000  Uiso   1.00
C239   C     0.67493   0.91639   0.71095   0.00000  Uiso   1.00
C240   C     0.45247   0.09441   0.83105   0.00000  Uiso   1.00
C241   C     0.47988   0.16501   0.84263   0.00000  Uiso   1.00
C242   C     0.46907   0.18432   0.90616   0.00000  Uiso   1.00
C243   C     0.46587   0.24243   0.00060   0.00000  Uiso   1.00
C244   C     0.39026   0.97061   0.85758   0.00000  Uiso   1.00
C245   C     0.33677   0.96162   0.81557   0.00000  Uiso   1.00
C246   C     0.25963   0.91084   0.82395   0.00000  Uiso   1.00
C247   C     0.22062   0.91136   0.78039   0.00000  Uiso   1.00
C248   C     0.46497   0.96788   0.81277   0.00000  Uiso   1.00
C249   C     0.49562   0.92236   0.81880   0.00000  Uiso   1.00
C250   C     0.56454   0.92816   0.77289   0.00000  Uiso   1.00
C251   C     0.41559   0.04486   0.88116   0.00000  Uiso   1.00
C252   C     0.40475   0.06407   0.94469   0.00000  Uiso   1.00
C253   C     0.43213   0.13468   0.95635   0.00000  Uiso   1.00
H254   H     0.48688   0.10042   0.72631   0.00000  Uiso   1.00
H255   H     0.36331   0.05012   0.68311   0.00000  Uiso   1.00
H256   H     0.59927   0.06166   0.67797   0.00000  Uiso   1.00
H257   H     0.50841   0.20334   0.80384   0.00000  Uiso   1.00
H258   H     0.21006   0.97249   0.65730   0.00000  Uiso   1.00
H259   H     0.70760   0.99682   0.64647   0.00000  Uiso   1.00
H260   H     0.51603   0.29559   0.91188   0.00000  Uiso   1.00
H261   H     0.36155   0.93203   0.89659   0.00000  Uiso   1.00
H262   H     0.23110   0.87250   0.86273   0.00000  Uiso   1.00
H263   H     0.46706   0.88403   0.85759   0.00000  Uiso   1.00
H264   H     0.37621   0.02571   0.98345   0.00000  Uiso   1.00
H265   H     0.10276   0.82832   0.80308   0.00000  Uiso   1.00
H266   H     0.60030   0.85265   0.79225   0.00000  Uiso   1.00
H267   H     0.40872   0.15142   0.05767   0.00000  Uiso   1.00
O268   O     0.07287   0.86426   0.70483   0.00000  Uiso   1.00
O269   O     0.72563   0.89620   0.69063   0.00000  Uiso   1.00
O270   O     0.47428   0.28817   0.03885   0.00000  Uiso   1.00
N271   N     0.20271   0.94674   0.69626   0.00000  Uiso   1.00
N272   N     0.66787   0.96948   0.68613   0.00000  Uiso   1.00
N273   N     0.48878   0.24880   0.93427   0.00000  Uiso   1.00
N274   N     0.14497   0.86916   0.77471   0.00000  Uiso   1.00
N275   N     0.61013   0.89190   0.76457   0.00000  Uiso   1.00
N276   N     0.43104   0.17123   0.01272   0.00000  Uiso   1.00
C277   C     0.57941   0.49683   0.29746   0.00000  Uiso   1.00
C278   C     0.61332   0.48797   0.22655   0.00000  Uiso   1.00
C279   C     0.57294   0.43852   0.18780   0.00000  Uiso   1.00
C280   C     0.61439   0.43894   0.12419   0.00000  Uiso   1.00
C281   C     0.65501   0.41788   0.01772   0.00000  Uiso   1.00
C282   C     0.59019   0.57184   0.30411   0.00000  Uiso   1.00
C283   C     0.53037   0.59289   0.33058   0.00000  Uiso   1.00
C284   C     0.55236   0.66391   0.33227   0.00000  Uiso   1.00
C285   C     0.55708   0.77305   0.34626   0.00000  Uiso   1.00
C286   C     0.63439   0.49147   0.33151   0.00000  Uiso   1.00
C287   C     0.61172   0.44497   0.38104   0.00000  Uiso   1.00
C288   C     0.67092   0.44834   0.40581   0.00000  Uiso   1.00
C289   C     0.74426   0.43270   0.46235   0.00000  Uiso   1.00
C290   C     0.72485   0.58553   0.25339   0.00000  Uiso   1.00
C291   C     0.69231   0.53615   0.20262   0.00000  Uiso   1.00
C292   C     0.73384   0.53665   0.13905   0.00000  Uiso   1.00
C293   C     0.69353   0.48720   0.10021   0.00000  Uiso   1.00
C294   C     0.66918   0.62001   0.28018   0.00000  Uiso   1.00
C295   C     0.69127   0.69102   0.28183   0.00000  Uiso   1.00
C296   C     0.63150   0.71218   0.30829   0.00000  Uiso   1.00
C297   C     0.71338   0.53965   0.30758   0.00000  Uiso   1.00
C298   C     0.77263   0.54310   0.33228   0.00000  Uiso   1.00
C299   C     0.75005   0.49661   0.38183   0.00000  Uiso   1.00
H300   H     0.51791   0.45933   0.31609   0.00000  Uiso   1.00
H301   H     0.51180   0.40125   0.20634   0.00000  Uiso   1.00
H302   H     0.46924   0.55559   0.34911   0.00000  Uiso   1.00
H303   H     0.55058   0.40769   0.39955   0.00000  Uiso   1.00
H304   H     0.53986   0.35812   0.07410   0.00000  Uiso   1.00
H305   H     0.45012   0.68357   0.37515   0.00000  Uiso   1.00
H306   H     0.62164   0.37169   0.48152   0.00000  Uiso   1.00
H307   H     0.78635   0.62304   0.23476   0.00000  Uiso   1.00
H308   H     0.79497   0.57394   0.12054   0.00000  Uiso   1.00
H309   H     0.75241   0.72829   0.26331   0.00000  Uiso   1.00
H310   H     0.83375   0.58039   0.31375   0.00000  Uiso   1.00
H311   H     0.76969   0.49828   0.00446   0.00000  Uiso   1.00
H312   H     0.67995   0.82373   0.30551   0.00000  Uiso   1.00
H313   H     0.85147   0.51186   0.41188   0.00000  Uiso   1.00
O314   O     0.65559   0.39297   0.96561   0.00000  Uiso   1.00
O315   O     0.53786   0.81994   0.36058   0.00000  Uiso   1.00
O316   O     0.76289   0.41076   0.50014   0.00000  Uiso   1.00
N317   N     0.59277   0.39784   0.07339   0.00000  Uiso   1.00
N318   N     0.50887   0.70211   0.35484   0.00000  Uiso   1.00
N319   N     0.66922   0.41055   0.45430   0.00000  Uiso   1.00
N320   N     0.71644   0.47326   0.03591   0.00000  Uiso   1.00
N321   N     0.63254   0.77753   0.31737   0.00000  Uiso   1.00
N322   N     0.79289   0.48597   0.41683   0.00000  Uiso   1.00
C323   C     0.22417   0.86132   0.12235   0.00000  Uiso   1.00
C324   C     0.16384   0.79321   0.15830   0.00000  Uiso   1.00
C325   C     0.13858   0.78300   0.22424   0.00000  Uiso   1.00
C326   C     0.08301   0.71684   0.24781   0.00000  Uiso   1.00
C327   C     0.99375   0.61930   0.30985   0.00000  Uiso   1.00
C328   C     0.18268   0.87734   0.08133   0.00000  Uiso   1.00
C329   C     0.17326   0.93788   0.08255   0.00000  Uiso   1.00
C330   C     0.13355   0.94255   0.04131   0.00000  Uiso   1.00
C331   C     0.07358   0.97565   0.98383   0.00000  Uiso   1.00
C332   C     0.28914   0.84532   0.07576   0.00000  Uiso   1.00
C333   C     0.36925   0.87896   0.07228   0.00000  Uiso   1.00
C334   C     0.41918   0.85668   0.02634   0.00000  Uiso   1.00
C335   C     0.52452   0.84007   0.96020   0.00000  Uiso   1.00
C336   C     0.17041   0.76197   0.04694   0.00000  Uiso   1.00
C337   C     0.13464   0.73924   0.11734   0.00000  Uiso   1.00
C338   C     0.07910   0.67308   0.14081   0.00000  Uiso   1.00
C339   C     0.05376   0.66278   0.20677   0.00000  Uiso   1.00
C340   C     0.15348   0.82338   0.04037   0.00000  Uiso   1.00
C341   C     0.11378   0.82796   0.99912   0.00000  Uiso   1.00
C342   C     0.10430   0.88849   0.00028   0.00000  Uiso   1.00
C343   C     0.25995   0.79136   0.03480   0.00000  Uiso   1.00
C344   C     0.30977   0.76903   0.98885   0.00000  Uiso   1.00
C345   C     0.38993   0.80262   0.98530   0.00000  Uiso   1.00
H346   H     0.24690   0.90333   0.15424   0.00000  Uiso   1.00
H347   H     0.16118   0.82478   0.25592   0.00000  Uiso   1.00
H348   H     0.19587   0.97963   0.11424   0.00000  Uiso   1.00
H349   H     0.39182   0.92071   0.10398   0.00000  Uiso   1.00
H350   H     0.05325   0.71389   0.35059   0.00000  Uiso   1.00
H351   H     0.12640   0.04042   0.05185   0.00000  Uiso   1.00
H352   H     0.53962   0.91618   0.03020   0.00000  Uiso   1.00
H353   H     0.14768   0.71995   0.01505   0.00000  Uiso   1.00
H354   H     0.05651   0.63133   0.10910   0.00000  Uiso   1.00
H355   H     0.09120   0.78619   0.96742   0.00000  Uiso   1.00
H356   H     0.28715   0.72727   0.95716   0.00000  Uiso   1.00
H357   H     0.96829   0.55688   0.23143   0.00000  Uiso   1.00
H358   H     0.04145   0.88342   0.93268   0.00000  Uiso   1.00
H359   H     0.45466   0.75918   0.91104   0.00000  Uiso   1.00
O360   O     0.95257   0.58040   0.35539   0.00000  Uiso   1.00
O361   O     0.04856   0.00881   0.96344   0.00000  Uiso   1.00
O362   O     0.59068   0.84581   0.93504   0.00000  Uiso   1.00
N363   N     0.04578   0.68910   0.30964   0.00000  Uiso   1.00
N364   N     0.11416   0.99438   0.03034   0.00000  Uiso   1.00
N365   N     0.50049   0.87824   0.01009   0.00000  Uiso   1.00
N366   N     0.00006   0.60461   0.24552   0.00000  Uiso   1.00
N367   N     0.06845   0.90990   0.96622   0.00000  Uiso   1.00
N368   N     0.45477   0.79376   0.94597   0.00000  Uiso   1.00
C369   C     0.97600   0.57163   0.63106   0.00000  Uiso   1.00
C370   C     0.05521   0.56911   0.59927   0.00000  Uiso   1.00
C371   C     0.10536   0.59811   0.53983   0.00000  Uiso   1.00
C372   C     0.17514   0.59016   0.51920   0.00000  Uiso   1.00
C373   C     0.29529   0.59171   0.46415   0.00000  Uiso   1.00
C374   C     0.98193   0.60448   0.69583   0.00000  Uiso   1.00
C375   C     0.97044   0.66322   0.71757   0.00000  Uiso   1.00
C376   C     0.97852   0.68505   0.77823   0.00000  Uiso   1.00
C377   C     0.98482   0.74149   0.87311   0.00000  Uiso   1.00
C378   C     0.91468   0.49629   0.64542   0.00000  Uiso   1.00
C379   C     0.84664   0.46405   0.62479   0.00000  Uiso   1.00
C380   C     0.79809   0.39479   0.64302   0.00000  Uiso   1.00
C381   C     0.69999   0.28324   0.65963   0.00000  Uiso   1.00
C382   C     0.01076   0.50594   0.70013   0.00000  Uiso   1.00
C383   C     0.07409   0.53343   0.63679   0.00000  Uiso   1.00
C384   C     0.14382   0.52544   0.61625   0.00000  Uiso   1.00
C385   C     0.19406   0.55442   0.55679   0.00000  Uiso   1.00
C386   C     0.00080   0.56881   0.73335   0.00000  Uiso   1.00
C387   C     0.00890   0.59055   0.79399   0.00000  Uiso   1.00
C388   C     0.99743   0.64931   0.81582   0.00000  Uiso   1.00
C389   C     0.93356   0.46061   0.68293   0.00000  Uiso   1.00
C390   C     0.88510   0.39138   0.70121   0.00000  Uiso   1.00
C391   C     0.81700   0.35905   0.68061   0.00000  Uiso   1.00
H392   H     0.96130   0.59940   0.60185   0.00000  Uiso   1.00
H393   H     0.09073   0.62572   0.51081   0.00000  Uiso   1.00
H394   H     0.95582   0.69082   0.68853   0.00000  Uiso   1.00
H395   H     0.83205   0.49168   0.59576   0.00000  Uiso   1.00
H396   H     0.24257   0.63918   0.42643   0.00000  Uiso   1.00
H397   H     0.95808   0.77643   0.80116   0.00000  Uiso   1.00
H398   H     0.69707   0.35651   0.60554   0.00000  Uiso   1.00
H399   H     0.02546   0.47817   0.72935   0.00000  Uiso   1.00
H400   H     0.15841   0.49783   0.64530   0.00000  Uiso   1.00
H401   H     0.02350   0.56293   0.82301   0.00000  Uiso   1.00
H402   H     0.89973   0.36379   0.73024   0.00000  Uiso   1.00
H403   H     0.29751   0.53538   0.53558   0.00000  Uiso   1.00
H404   H     0.01301   0.67264   0.91032   0.00000  Uiso   1.00
H405   H     0.75201   0.25271   0.71470   0.00000  Uiso   1.00
O406   O     0.35635   0.60242   0.42343   0.00000  Uiso   1.00
O407   O     0.98310   0.78248   0.91507   0.00000  Uiso   1.00
O408   O     0.64067   0.23156   0.65841   0.00000  Uiso   1.00
N409   N     0.23724   0.61204   0.46365   0.00000  Uiso   1.00
N410   N     0.97127   0.74037   0.81400   0.00000  Uiso   1.00
N411   N     0.72725   0.34778   0.63112   0.00000  Uiso   1.00
N412   N     0.26680   0.55619   0.52238   0.00000  Uiso   1.00
N413   N     0.00083   0.68452   0.87273   0.00000  Uiso   1.00
N414   N     0.75681   0.29193   0.68986   0.00000  Uiso   1.00
C415   C     0.89512   0.12901   0.77738   0.00000  Uiso   1.00
C416   C     0.88163   0.07574   0.82572   0.00000  Uiso   1.00
C417   C     0.80960   0.02097   0.85364   0.00000  Uiso   1.00
C418   C     0.80962   0.97800   0.89673   0.00000  Uiso   1.00
C419   C     0.77809   0.89356   0.96960   0.00000  Uiso   1.00
C420   C     0.93257   0.19998   0.80602   0.00000  Uiso   1.00
C421   C     0.90337   0.24966   0.81736   0.00000  Uiso   1.00
C422   C     0.94628   0.31128   0.84386   0.00000  Uiso   1.00
C423   C     0.99386   0.41974   0.88610   0.00000  Uiso   1.00
C424   C     0.95896   0.12578   0.71883   0.00000  Uiso   1.00
C425   C     0.95195   0.11309   0.65686   0.00000  Uiso   1.00
C426   C     0.01709   0.11225   0.60994   0.00000  Uiso   1.00
C427   C     0.10564   0.10551   0.51680   0.00000  Uiso   1.00
C428   C     0.02326   0.15011   0.80427   0.00000  Uiso   1.00
C429   C     0.95123   0.08720   0.84033   0.00000  Uiso   1.00
C430   C     0.95137   0.04431   0.88339   0.00000  Uiso   1.00
C431   C     0.87935   0.98948   0.91136   0.00000  Uiso   1.00
C432   C     0.00217   0.21144   0.82063   0.00000  Uiso   1.00
C433   C     0.04514   0.27300   0.84711   0.00000  Uiso   1.00
C434   C     0.01600   0.32276   0.85849   0.00000  Uiso   1.00
C435   C     0.02856   0.13723   0.73343   0.00000  Uiso   1.00
C436   C     0.09372   0.13642   0.68661   0.00000  Uiso   1.00
C437   C     0.08682   0.12373   0.62458   0.00000  Uiso   1.00
H438   H     0.84093   0.12009   0.76601   0.00000  Uiso   1.00
H439   H     0.75575   0.01212   0.84233   0.00000  Uiso   1.00
H440   H     0.84951   0.24078   0.80605   0.00000  Uiso   1.00
H441   H     0.89809   0.10422   0.64557   0.00000  Uiso   1.00
H442   H     0.69199   0.89748   0.93340   0.00000  Uiso   1.00
H443   H     0.88970   0.37963   0.85689   0.00000  Uiso   1.00
H444   H     0.99214   0.09168   0.51848   0.00000  Uiso   1.00
H445   H     0.07744   0.15903   0.81564   0.00000  Uiso   1.00
H446   H     0.00524   0.05319   0.89468   0.00000  Uiso   1.00
H447   H     0.09900   0.28185   0.85840   0.00000  Uiso   1.00
H448   H     0.14757   0.14529   0.69792   0.00000  Uiso   1.00
H449   H     0.89449   0.93081   0.97589   0.00000  Uiso   1.00
H450   H     0.09220   0.41297   0.89937   0.00000  Uiso   1.00
H451   H     0.19464   0.12501   0.56098   0.00000  Uiso   1.00
O452   O     0.74147   0.84383   0.00576   0.00000  Uiso   1.00
O453   O     0.00086   0.47640   0.90536   0.00000  Uiso   1.00
O454   O     0.13526   0.09861   0.46139   0.00000  Uiso   1.00
N455   N     0.74956   0.91984   0.93254   0.00000  Uiso   1.00
N456   N     0.93440   0.37062   0.86102   0.00000  Uiso   1.00
N457   N     0.03018   0.10143   0.54464   0.00000  Uiso   1.00
N458   N     0.85852   0.93778   0.95540   0.00000  Uiso   1.00
N459   N     0.04336   0.38855   0.88388   0.00000  Uiso   1.00
N460   N     0.13914   0.11936   0.56750   0.00000  Uiso   1.00
C461   C     0.35782   0.41015   0.93980   0.00000  Uiso   1.00
C462   C     0.31136   0.33334   0.92836   0.00000  Uiso   1.00
C463   C     0.34048   0.29296   0.88477   0.00000  Uiso   1.00
C464   C     0.28858   0.22376   0.88150   0.00000  Uiso   1.00
C465   C     0.22831   0.10873   0.85779   0.00000  Uiso   1.00
C466   C     0.31062   0.44661   0.92924   0.00000  Uiso   1.00
C467   C     0.33913   0.50146   0.88639   0.00000  Uiso   1.00
C468   C     0.28661   0.52762   0.88386   0.00000  Uiso   1.00
C469   C     0.22522   0.58847   0.86154   0.00000  Uiso   1.00
C470   C     0.35282   0.41549   0.01094   0.00000  Uiso   1.00
C471   C     0.41681   0.44421   0.03680   0.00000  Uiso   1.00
C472   C     0.39982   0.44418   0.10307   0.00000  Uiso   1.00
C473   C     0.40395   0.45673   0.20761   0.00000  Uiso   1.00
C474   C     0.21385   0.35907   0.01151   0.00000  Uiso   1.00
C475   C     0.23316   0.30560   0.96731   0.00000  Uiso   1.00
C476   C     0.18120   0.23645   0.96411   0.00000  Uiso   1.00
C477   C     0.21024   0.19597   0.92052   0.00000  Uiso   1.00
C478   C     0.23243   0.41887   0.96818   0.00000  Uiso   1.00
C479   C     0.17985   0.44495   0.96572   0.00000  Uiso   1.00
C480   C     0.20827   0.49983   0.92288   0.00000  Uiso   1.00
C481   C     0.27462   0.38775   0.04989   0.00000  Uiso   1.00
C482   C     0.25753   0.38769   0.11613   0.00000  Uiso   1.00
C483   C     0.32148   0.41639   0.14208   0.00000  Uiso   1.00
H484   H     0.41870   0.43175   0.90948   0.00000  Uiso   1.00
H485   H     0.40100   0.31445   0.85463   0.00000  Uiso   1.00
H486   H     0.39965   0.52293   0.85626   0.00000  Uiso   1.00
H487   H     0.47732   0.46567   0.00664   0.00000  Uiso   1.00
H488   H     0.34688   0.17217   0.81098   0.00000  Uiso   1.00
H489   H     0.34405   0.61177   0.81442   0.00000  Uiso   1.00
H490   H     0.50782   0.49104   0.13154   0.00000  Uiso   1.00
H491   H     0.15297   0.33747   0.04183   0.00000  Uiso   1.00
H492   H     0.12068   0.21499   0.99425   0.00000  Uiso   1.00
H493   H     0.11934   0.42347   0.99587   0.00000  Uiso   1.00
H494   H     0.19701   0.36622   0.14626   0.00000  Uiso   1.00
H495   H     0.11937   0.09145   0.92430   0.00000  Uiso   1.00
H496   H     0.11654   0.53106   0.92774   0.00000  Uiso   1.00
H497   H     0.28031   0.41032   0.24486   0.00000  Uiso   1.00
O498   O     0.21667   0.05295   0.83394   0.00000  Uiso   1.00
O499   O     0.21297   0.62970   0.83846   0.00000  Uiso   1.00
O500   O     0.42783   0.47130   0.25451   0.00000  Uiso   1.00
N501   N     0.29777   0.16998   0.84419   0.00000  Uiso   1.00
N502   N     0.29512   0.58097   0.84740   0.00000  Uiso   1.00
N503   N     0.44824   0.46812   0.14388   0.00000  Uiso   1.00
N504   N     0.17535   0.12654   0.90517   0.00000  Uiso   1.00
N505   N     0.17270   0.53754   0.90838   0.00000  Uiso   1.00
N506   N     0.32581   0.42468   0.20486   0.00000  Uiso   1.00
C507   C     0.43219   0.08828   0.49993   0.00000  Uiso   1.00
C508   C     0.51680   0.10186   0.49566   0.00000  Uiso   1.00
C509   C     0.55137   0.12086   0.54589   0.00000  Uiso   1.00
C510   C     0.62946   0.13089   0.53220   0.00000  Uiso   1.00
C511   C     0.75447   0.15334   0.53495   0.00000  Uiso   1.00
C512   C     0.43905   0.13706   0.45036   0.00000  Uiso   1.00
C513   C     0.40824   0.18564   0.46250   0.00000  Uiso   1.00
C514   C     0.42088   0.22529   0.41068   0.00000  Uiso   1.00
C515   C     0.42513   0.30235   0.34309   0.00000  Uiso   1.00
C516   C     0.39363   0.01496   0.47591   0.00000  Uiso   1.00
C517   C     0.32462   0.96089   0.50952   0.00000  Uiso   1.00
C518   C     0.29901   0.89775   0.47920   0.00000  Uiso   1.00
C519   C     0.23274   0.78524   0.45128   0.00000  Uiso   1.00
C520   C     0.50940   0.07229   0.38632   0.00000  Uiso   1.00
C521   C     0.55874   0.09318   0.43395   0.00000  Uiso   1.00
C522   C     0.63679   0.10318   0.42018   0.00000  Uiso   1.00
C523   C     0.67147   0.12220   0.47038   0.00000  Uiso   1.00
C524   C     0.48099   0.12838   0.38865   0.00000  Uiso   1.00
C525   C     0.49367   0.16796   0.33680   0.00000  Uiso   1.00
C526   C     0.46289   0.21660   0.34885   0.00000  Uiso   1.00
C527   C     0.43557   0.00628   0.41420   0.00000  Uiso   1.00
C528   C     0.41005   0.94321   0.38382   0.00000  Uiso   1.00
C529   C     0.34102   0.88906   0.41738   0.00000  Uiso   1.00
H530   H     0.39954   0.09504   0.54798   0.00000  Uiso   1.00
H531   H     0.51890   0.12758   0.59364   0.00000  Uiso   1.00
H532   H     0.37579   0.19235   0.51026   0.00000  Uiso   1.00
H533   H     0.29219   0.96763   0.55728   0.00000  Uiso   1.00
H534   H     0.66973   0.15986   0.61704   0.00000  Uiso   1.00
H535   H     0.36795   0.29640   0.44124   0.00000  Uiso   1.00
H536   H     0.19166   0.82255   0.54037   0.00000  Uiso   1.00
H537   H     0.54205   0.06554   0.33827   0.00000  Uiso   1.00
H538   H     0.66923   0.09646   0.37242   0.00000  Uiso   1.00
H539   H     0.52612   0.16123   0.28905   0.00000  Uiso   1.00
H540   H     0.44252   0.93651   0.33606   0.00000  Uiso   1.00
H541   H     0.79175   0.13461   0.43749   0.00000  Uiso   1.00
H542   H     0.48996   0.27115   0.26169   0.00000  Uiso   1.00
H543   H     0.31368   0.79729   0.36083   0.00000  Uiso   1.00
O544   O     0.81184   0.16814   0.55351   0.00000  Uiso   1.00
O545   O     0.41590   0.34726   0.32287   0.00000  Uiso   1.00
O546   O     0.18461   0.72557   0.45293   0.00000  Uiso   1.00
N547   N     0.68099   0.14966   0.57010   0.00000  Uiso   1.00
N548   N     0.39885   0.27733   0.40574   0.00000  Uiso   1.00
N549   N     0.23402   0.83432   0.49841   0.00000  Uiso   1.00
N550   N     0.74664   0.13607   0.47349   0.00000  Uiso   1.00
N551   N     0.46451   0.26374   0.30912   0.00000  Uiso   1.00
N552   N     0.29968   0.82073   0.40180   0.00000  Uiso   1.00
