data_job_06476
_audit_creation_date              2018-12-19
_audit_creation_method            'Materials Studio'
_symmetry_space_group_name_H-M    'P1'
_symmetry_Int_Tables_number       1
_symmetry_cell_setting            triclinic
loop_
_symmetry_equiv_pos_as_xyz
  x,y,z
_cell_length_a                    12.2847
_cell_length_b                    24.3761
_cell_length_c                    26.3984
_cell_angle_alpha                 72.3760
_cell_angle_beta                  102.2308
_cell_angle_gamma                 77.5505
loop_
_atom_site_label
_atom_site_type_symbol
_atom_site_fract_x
_atom_site_fract_y
_atom_site_fract_z
_atom_site_U_iso_or_equiv
_atom_site_adp_type
_atom_site_occupancy
C1     C     0.93947   0.71793   0.99099   0.00000  Uiso   1.00
C2     C     0.02359   0.73681   0.95914   0.00000  Uiso   1.00
C3     C     0.06190   0.78707   0.95526   0.00000  Uiso   1.00
C4     C     0.13878   0.79653   0.92414   0.00000  Uiso   1.00
C5     C     0.26370   0.83186   0.87866   0.00000  Uiso   1.00
C6     C     0.83868   0.71367   0.94880   0.00000  Uiso   1.00
C7     C     0.72151   0.74447   0.93623   0.00000  Uiso   1.00
C8     C     0.64273   0.73444   0.89642   0.00000  Uiso   1.00
C9     C     0.48056   0.73381   0.83491   0.00000  Uiso   1.00
C10    C     0.00301   0.65357   0.03188   0.00000  Uiso   1.00
C11    C     0.02400   0.63384   0.08917   0.00000  Uiso   1.00
C12    C     0.08355   0.57320   0.11931   0.00000  Uiso   1.00
C13    C     0.17654   0.47926   0.18680   0.00000  Uiso   1.00
C14    C     0.00788   0.64535   0.94263   0.00000  Uiso   1.00
C15    C     0.06074   0.69739   0.93287   0.00000  Uiso   1.00
C16    C     0.13759   0.70677   0.90175   0.00000  Uiso   1.00
C17    C     0.17601   0.75703   0.89783   0.00000  Uiso   1.00
C18    C     0.87583   0.67425   0.92253   0.00000  Uiso   1.00
C19    C     0.79720   0.66416   0.88273   0.00000  Uiso   1.00
C20    C     0.67996   0.69494   0.87010   0.00000  Uiso   1.00
C21    C     0.04017   0.61415   0.00561   0.00000  Uiso   1.00
C22    C     0.09969   0.55353   0.03567   0.00000  Uiso   1.00
C23    C     0.12078   0.53371   0.09299   0.00000  Uiso   1.00
H24    H     0.91053   0.74862   0.01143   0.00000  Uiso   1.00
H25    H     0.03311   0.81757   0.97558   0.00000  Uiso   1.00
H26    H     0.69279   0.77497   0.95657   0.00000  Uiso   1.00
H27    H     0.99523   0.66436   0.10948   0.00000  Uiso   1.00
H28    H     0.18537   0.87664   0.92424   0.00000  Uiso   1.00
H29    H     0.46777   0.78680   0.88416   0.00000  Uiso   1.00
H30    H     0.10553   0.55354   0.20661   0.00000  Uiso   1.00
H31    H     0.03681   0.61465   0.92217   0.00000  Uiso   1.00
H32    H     0.16633   0.67625   0.88143   0.00000  Uiso   1.00
H33    H     0.82599   0.63365   0.86241   0.00000  Uiso   1.00
H34    H     0.12844   0.52304   0.01533   0.00000  Uiso   1.00
H35    H     0.29349   0.76194   0.84781   0.00000  Uiso   1.00
H36    H     0.57587   0.67209   0.80774   0.00000  Uiso   1.00
H37    H     0.21364   0.43884   0.13019   0.00000  Uiso   1.00
O38    O     0.32232   0.86224   0.86082   0.00000  Uiso   1.00
O39    O     0.38085   0.74436   0.80824   0.00000  Uiso   1.00
O40    O     0.21758   0.43834   0.23129   0.00000  Uiso   1.00
N41    N     0.19306   0.84119   0.91185   0.00000  Uiso   1.00
N42    N     0.52214   0.75719   0.87437   0.00000  Uiso   1.00
N43    N     0.11837   0.53912   0.17584   0.00000  Uiso   1.00
N44    N     0.25124   0.77947   0.87073   0.00000  Uiso   1.00
N45    N     0.58032   0.69547   0.83325   0.00000  Uiso   1.00
N46    N     0.17654   0.47740   0.13471   0.00000  Uiso   1.00
C47    C     0.70344   0.24861   0.72167   0.00000  Uiso   1.00
C48    C     0.82851   0.22300   0.76023   0.00000  Uiso   1.00
C49    C     0.87888   0.16493   0.79960   0.00000  Uiso   1.00
C50    C     0.99443   0.15021   0.83077   0.00000  Uiso   1.00
C51    C     0.17906   0.10407   0.89188   0.00000  Uiso   1.00
C52    C     0.64842   0.30493   0.73211   0.00000  Uiso   1.00
C53    C     0.54737   0.31575   0.74783   0.00000  Uiso   1.00
C54    C     0.51133   0.37002   0.75532   0.00000  Uiso   1.00
C55    C     0.41632   0.45110   0.77273   0.00000  Uiso   1.00
C56    C     0.71264   0.27078   0.66263   0.00000  Uiso   1.00
C57    C     0.66555   0.25289   0.61991   0.00000  Uiso   1.00
C58    C     0.68355   0.27841   0.56889   0.00000  Uiso   1.00
C59    C     0.68825   0.30646   0.47842   0.00000  Uiso   1.00
C60    C     0.81909   0.32575   0.70701   0.00000  Uiso   1.00
C61    C     0.89132   0.26490   0.75227   0.00000  Uiso   1.00
C62    C     0.00684   0.25026   0.78338   0.00000  Uiso   1.00
C63    C     0.05737   0.19218   0.82279   0.00000  Uiso   1.00
C64    C     0.71124   0.34683   0.72415   0.00000  Uiso   1.00
C65    C     0.67533   0.40109   0.73161   0.00000  Uiso   1.00
C66    C     0.57426   0.41199   0.74735   0.00000  Uiso   1.00
C67    C     0.77546   0.31267   0.65466   0.00000  Uiso   1.00
C68    C     0.79352   0.33823   0.60370   0.00000  Uiso   1.00
C69    C     0.74648   0.32038   0.56092   0.00000  Uiso   1.00
H70    H     0.65453   0.21600   0.72787   0.00000  Uiso   1.00
H71    H     0.83023   0.13252   0.80576   0.00000  Uiso   1.00
H72    H     0.49877   0.28332   0.75399   0.00000  Uiso   1.00
H73    H     0.61695   0.22047   0.62609   0.00000  Uiso   1.00
H74    H     0.05272   0.05844   0.88861   0.00000  Uiso   1.00
H75    H     0.35380   0.37644   0.77943   0.00000  Uiso   1.00
H76    H     0.60298   0.24390   0.50974   0.00000  Uiso   1.00
H77    H     0.86800   0.35837   0.70081   0.00000  Uiso   1.00
H78    H     0.05543   0.28270   0.77721   0.00000  Uiso   1.00
H79    H     0.72396   0.43350   0.72545   0.00000  Uiso   1.00
H80    H     0.84214   0.37065   0.59755   0.00000  Uiso   1.00
H81    H     0.23549   0.18034   0.86545   0.00000  Uiso   1.00
H82    H     0.53657   0.49833   0.75627   0.00000  Uiso   1.00
H83    H     0.78576   0.36579   0.48657   0.00000  Uiso   1.00
O84    O     0.26353   0.06705   0.92779   0.00000  Uiso   1.00
O85    O     0.34657   0.48425   0.78454   0.00000  Uiso   1.00
O86    O     0.67350   0.31035   0.43071   0.00000  Uiso   1.00
N87    N     0.07002   0.09751   0.87267   0.00000  Uiso   1.00
N88    N     0.41658   0.39481   0.77060   0.00000  Uiso   1.00
N89    N     0.64952   0.27091   0.51845   0.00000  Uiso   1.00
N90    N     0.16837   0.16310   0.86020   0.00000  Uiso   1.00
N91    N     0.51493   0.46040   0.75814   0.00000  Uiso   1.00
N92    N     0.74788   0.33650   0.50599   0.00000  Uiso   1.00
C93    C     0.16890   0.88231   0.31958   0.00000  Uiso   1.00
C94    C     0.29136   0.84723   0.32371   0.00000  Uiso   1.00
C95    C     0.33218   0.84441   0.27912   0.00000  Uiso   1.00
C96    C     0.44692   0.80987   0.29161   0.00000  Uiso   1.00
C97    C     0.62621   0.76003   0.28965   0.00000  Uiso   1.00
C98    C     0.12009   0.83646   0.35363   0.00000  Uiso   1.00
C99    C     0.01691   0.82459   0.33419   0.00000  Uiso   1.00
C100   C     0.98747   0.78098   0.37187   0.00000  Uiso   1.00
C101   C     0.90083   0.71445   0.41636   0.00000  Uiso   1.00
C102   C     0.18514   0.92463   0.35093   0.00000  Uiso   1.00
C103   C     0.13661   0.98690   0.32923   0.00000  Uiso   1.00
C104   C     0.16192   0.01754   0.36465   0.00000  Uiso   1.00
C105   C     0.17626   0.08791   0.40495   0.00000  Uiso   1.00
C106   C     0.30008   0.82599   0.42105   0.00000  Uiso   1.00
C107   C     0.36261   0.81664   0.37883   0.00000  Uiso   1.00
C108   C     0.47732   0.78209   0.39139   0.00000  Uiso   1.00
C109   C     0.51830   0.77922   0.34683   0.00000  Uiso   1.00
C110   C     0.19134   0.80587   0.40874   0.00000  Uiso   1.00
C111   C     0.16205   0.76227   0.44646   0.00000  Uiso   1.00
C112   C     0.05885   0.75034   0.42709   0.00000  Uiso   1.00
C113   C     0.25639   0.89404   0.40605   0.00000  Uiso   1.00
C114   C     0.28176   0.92458   0.44150   0.00000  Uiso   1.00
C115   C     0.23329   0.98689   0.41987   0.00000  Uiso   1.00
H116   H     0.11342   0.90612   0.27667   0.00000  Uiso   1.00
H117   H     0.27701   0.86809   0.23647   0.00000  Uiso   1.00
H118   H     0.96178   0.84827   0.29154   0.00000  Uiso   1.00
H119   H     0.08148   0.01056   0.28658   0.00000  Uiso   1.00
H120   H     0.48979   0.81240   0.21622   0.00000  Uiso   1.00
H121   H     0.82509   0.77064   0.33233   0.00000  Uiso   1.00
H122   H     0.07749   0.11286   0.32188   0.00000  Uiso   1.00
H123   H     0.35555   0.80217   0.46396   0.00000  Uiso   1.00
H124   H     0.53244   0.75842   0.43405   0.00000  Uiso   1.00
H125   H     0.21720   0.73861   0.48911   0.00000  Uiso   1.00
H126   H     0.33690   0.90090   0.48415   0.00000  Uiso   1.00
H127   H     0.69710   0.72339   0.37658   0.00000  Uiso   1.00
H128   H     0.03240   0.68164   0.49269   0.00000  Uiso   1.00
H129   H     0.28480   0.02385   0.48224   0.00000  Uiso   1.00
O130   O     0.70542   0.74098   0.27334   0.00000  Uiso   1.00
O131   O     0.83336   0.68621   0.42567   0.00000  Uiso   1.00
O132   O     0.16450   0.13518   0.41196   0.00000  Uiso   1.00
N133   N     0.51431   0.79747   0.25807   0.00000  Uiso   1.00
N134   N     0.89287   0.75842   0.36662   0.00000  Uiso   1.00
N135   N     0.12881   0.07836   0.35685   0.00000  Uiso   1.00
N136   N     0.62586   0.74957   0.34435   0.00000  Uiso   1.00
N137   N     0.00442   0.71052   0.45290   0.00000  Uiso   1.00
N138   N     0.24037   0.03046   0.44314   0.00000  Uiso   1.00
C139   C     0.45559   0.61512   0.02288   0.00000  Uiso   1.00
C140   C     0.50022   0.66580   0.03290   0.00000  Uiso   1.00
C141   C     0.43146   0.72335   0.02314   0.00000  Uiso   1.00
C142   C     0.48895   0.76322   0.03499   0.00000  Uiso   1.00
C143   C     0.53970   0.84452   0.04740   0.00000  Uiso   1.00
C144   C     0.50360   0.56204   0.07839   0.00000  Uiso   1.00
C145   C     0.43767   0.53234   0.10686   0.00000  Uiso   1.00
C146   C     0.49802   0.48486   0.15700   0.00000  Uiso   1.00
C147   C     0.55402   0.40504   0.24000   0.00000  Uiso   1.00
C148   C     0.51673   0.59590   0.98369   0.00000  Uiso   1.00
C149   C     0.46185   0.59465   0.93255   0.00000  Uiso   1.00
C150   C     0.53326   0.57565   0.90297   0.00000  Uiso   1.00
C151   C     0.60965   0.54840   0.83894   0.00000  Uiso   1.00
C152   C     0.67999   0.58358   0.06129   0.00000  Uiso   1.00
C153   C     0.62211   0.64867   0.05376   0.00000  Uiso   1.00
C154   C     0.67972   0.68846   0.06563   0.00000  Uiso   1.00
C155   C     0.61105   0.74606   0.05589   0.00000  Uiso   1.00
C156   C     0.62548   0.54491   0.09925   0.00000  Uiso   1.00
C157   C     0.68594   0.49746   0.14935   0.00000  Uiso   1.00
C158   C     0.62012   0.46770   0.17790   0.00000  Uiso   1.00
C159   C     0.63862   0.57877   0.00455   0.00000  Uiso   1.00
C160   C     0.71012   0.55976   0.97504   0.00000  Uiso   1.00
C161   C     0.65536   0.55849   0.92387   0.00000  Uiso   1.00
H162   H     0.36070   0.62845   0.00665   0.00000  Uiso   1.00
H163   H     0.33713   0.73659   0.00700   0.00000  Uiso   1.00
H164   H     0.34335   0.54561   0.09070   0.00000  Uiso   1.00
H165   H     0.36753   0.60791   0.91642   0.00000  Uiso   1.00
H166   H     0.36475   0.84892   0.01662   0.00000  Uiso   1.00
H167   H     0.37786   0.44621   0.19310   0.00000  Uiso   1.00
H168   H     0.42885   0.57758   0.82559   0.00000  Uiso   1.00
H169   H     0.77488   0.57025   0.07753   0.00000  Uiso   1.00
H170   H     0.77404   0.67520   0.08178   0.00000  Uiso   1.00
H171   H     0.78026   0.48421   0.16548   0.00000  Uiso   1.00
H172   H     0.80444   0.54651   0.99120   0.00000  Uiso   1.00
H173   H     0.71936   0.79909   0.07731   0.00000  Uiso   1.00
H174   H     0.73247   0.39638   0.25379   0.00000  Uiso   1.00
H175   H     0.78346   0.52775   0.88628   0.00000  Uiso   1.00
O176   O     0.53403   0.89409   0.04849   0.00000  Uiso   1.00
O177   O     0.55123   0.36574   0.28002   0.00000  Uiso   1.00
O178   O     0.61812   0.53810   0.79786   0.00000  Uiso   1.00
N179   N     0.44832   0.82279   0.03031   0.00000  Uiso   1.00
N180   N     0.46058   0.44629   0.19531   0.00000  Uiso   1.00
N181   N     0.50825   0.56910   0.85173   0.00000  Uiso   1.00
N182   N     0.63914   0.79598   0.06296   0.00000  Uiso   1.00
N183   N     0.65140   0.41948   0.22797   0.00000  Uiso   1.00
N184   N     0.69906   0.54228   0.88438   0.00000  Uiso   1.00
C185   C     0.65890   0.99611   0.28922   0.00000  Uiso   1.00
C186   C     0.73778   0.02885   0.26337   0.00000  Uiso   1.00
C187   C     0.78134   0.02001   0.22111   0.00000  Uiso   1.00
C188   C     0.85199   0.05440   0.20318   0.00000  Uiso   1.00
C189   C     0.97045   0.09892   0.15945   0.00000  Uiso   1.00
C190   C     0.55023   0.04520   0.28240   0.00000  Uiso   1.00
C191   C     0.43610   0.05008   0.25617   0.00000  Uiso   1.00
C192   C     0.34888   0.09823   0.25427   0.00000  Uiso   1.00
C193   C     0.17615   0.16809   0.24013   0.00000  Uiso   1.00
C194   C     0.72159   0.96693   0.35156   0.00000  Uiso   1.00
C195   C     0.75153   0.90600   0.38347   0.00000  Uiso   1.00
C196   C     0.80855   0.88825   0.43980   0.00000  Uiso   1.00
C197   C     0.90190   0.83659   0.53303   0.00000  Uiso   1.00
C198   C     0.70692   0.07292   0.33252   0.00000  Uiso   1.00
C199   C     0.76385   0.07058   0.28689   0.00000  Uiso   1.00
C200   C     0.83446   0.10499   0.26902   0.00000  Uiso   1.00
C201   C     0.87812   0.09620   0.22675   0.00000  Uiso   1.00
C202   C     0.57631   0.08692   0.30593   0.00000  Uiso   1.00
C203   C     0.48923   0.13507   0.30408   0.00000  Uiso   1.00
C204   C     0.37500   0.14003   0.27784   0.00000  Uiso   1.00
C205   C     0.74768   0.00865   0.37508   0.00000  Uiso   1.00
C206   C     0.80466   0.99099   0.43138   0.00000  Uiso   1.00
C207   C     0.83468   0.93005   0.46337   0.00000  Uiso   1.00
H208   H     0.63859   0.96363   0.27090   0.00000  Uiso   1.00
H209   H     0.76113   0.98772   0.20291   0.00000  Uiso   1.00
H210   H     0.41595   0.01778   0.23797   0.00000  Uiso   1.00
H211   H     0.73133   0.87373   0.36525   0.00000  Uiso   1.00
H212   H     0.90845   0.03284   0.13789   0.00000  Uiso   1.00
H213   H     0.18061   0.09622   0.21183   0.00000  Uiso   1.00
H214   H     0.84565   0.79245   0.48022   0.00000  Uiso   1.00
H215   H     0.72722   0.10541   0.35084   0.00000  Uiso   1.00
H216   H     0.85463   0.13728   0.28723   0.00000  Uiso   1.00
H217   H     0.50944   0.16734   0.32229   0.00000  Uiso   1.00
H218   H     0.82483   0.02329   0.44957   0.00000  Uiso   1.00
H219   H     0.98433   0.15423   0.20633   0.00000  Uiso   1.00
H220   H     0.25649   0.21761   0.28026   0.00000  Uiso   1.00
H221   H     0.92154   0.91385   0.54866   0.00000  Uiso   1.00
O222   O     0.02857   0.11196   0.12882   0.00000  Uiso   1.00
O223   O     0.07368   0.19510   0.22582   0.00000  Uiso   1.00
O224   O     0.94620   0.79657   0.57795   0.00000  Uiso   1.00
N225   N     0.90884   0.05703   0.16274   0.00000  Uiso   1.00
N226   N     0.22836   0.11629   0.23185   0.00000  Uiso   1.00
N227   N     0.85009   0.83230   0.48278   0.00000  Uiso   1.00
N228   N     0.94968   0.12235   0.19956   0.00000  Uiso   1.00
N229   N     0.26919   0.18161   0.26868   0.00000  Uiso   1.00
N230   N     0.89092   0.89761   0.51961   0.00000  Uiso   1.00
C231   C     0.13753   0.26102   0.65421   0.00000  Uiso   1.00
C232   C     0.25909   0.21917   0.69003   0.00000  Uiso   1.00
C233   C     0.29005   0.18397   0.74614   0.00000  Uiso   1.00
C234   C     0.40573   0.14873   0.77141   0.00000  Uiso   1.00
C235   C     0.58204   0.08372   0.83156   0.00000  Uiso   1.00
C236   C     0.10457   0.24061   0.60540   0.00000  Uiso   1.00
C237   C     0.00559   0.22346   0.59036   0.00000  Uiso   1.00
C238   C     0.99119   0.20628   0.54439   0.00000  Uiso   1.00
C239   C     0.92755   0.17461   0.47313   0.00000  Uiso   1.00
C240   C     0.15201   0.32327   0.62959   0.00000  Uiso   1.00
C241   C     0.09291   0.37563   0.63486   0.00000  Uiso   1.00
C242   C     0.11844   0.42805   0.60925   0.00000  Uiso   1.00
C243   C     0.12847   0.52472   0.57554   0.00000  Uiso   1.00
C244   C     0.28794   0.26103   0.59932   0.00000  Uiso   1.00
C245   C     0.34078   0.21917   0.66021   0.00000  Uiso   1.00
C246   C     0.45646   0.18398   0.68541   0.00000  Uiso   1.00
C247   C     0.48758   0.14873   0.74155   0.00000  Uiso   1.00
C248   C     0.18626   0.24062   0.57559   0.00000  Uiso   1.00
C249   C     0.17200   0.22346   0.52963   0.00000  Uiso   1.00
C250   C     0.07303   0.20628   0.51452   0.00000  Uiso   1.00
C251   C     0.23371   0.32328   0.59977   0.00000  Uiso   1.00
C252   C     0.25933   0.37563   0.57414   0.00000  Uiso   1.00
C253   C     0.20028   0.42805   0.57938   0.00000  Uiso   1.00
H254   H     0.07392   0.26101   0.67742   0.00000  Uiso   1.00
H255   H     0.22679   0.18397   0.76919   0.00000  Uiso   1.00
H256   H     0.94238   0.22346   0.61343   0.00000  Uiso   1.00
H257   H     0.02970   0.37560   0.65794   0.00000  Uiso   1.00
H258   H     0.43230   0.09854   0.85779   0.00000  Uiso   1.00
H259   H     0.83257   0.18183   0.52935   0.00000  Uiso   1.00
H260   H     0.01669   0.50265   0.62320   0.00000  Uiso   1.00
H261   H     0.35155   0.26103   0.57611   0.00000  Uiso   1.00
H262   H     0.51966   0.18399   0.66233   0.00000  Uiso   1.00
H263   H     0.23524   0.22348   0.50657   0.00000  Uiso   1.00
H264   H     0.32255   0.37562   0.55107   0.00000  Uiso   1.00
H265   H     0.67000   0.09855   0.77105   0.00000  Uiso   1.00
H266   H     0.07026   0.18184   0.44261   0.00000  Uiso   1.00
H267   H     0.25439   0.50266   0.53646   0.00000  Uiso   1.00
O268   O     0.65672   0.04785   0.87296   0.00000  Uiso   1.00
O269   O     0.86988   0.15713   0.44206   0.00000  Uiso   1.00
O270   O     0.11145   0.57804   0.56518   0.00000  Uiso   1.00
N271   N     0.46517   0.10913   0.82555   0.00000  Uiso   1.00
N272   N     0.90447   0.18699   0.51848   0.00000  Uiso   1.00
N273   N     0.07659   0.48693   0.60621   0.00000  Uiso   1.00
N274   N     0.59308   0.10913   0.77888   0.00000  Uiso   1.00
N275   N     0.03238   0.18699   0.47181   0.00000  Uiso   1.00
N276   N     0.20449   0.48694   0.55953   0.00000  Uiso   1.00
C277   C     0.45038   0.26100   0.03376   0.00000  Uiso   1.00
C278   C     0.38768   0.21314   0.04628   0.00000  Uiso   1.00
C279   C     0.40478   0.16257   0.03160   0.00000  Uiso   1.00
C280   C     0.33892   0.12420   0.04687   0.00000  Uiso   1.00
C281   C     0.25379   0.04807   0.06194   0.00000  Uiso   1.00
C282   C     0.50762   0.26374   0.08978   0.00000  Uiso   1.00
C283   C     0.62556   0.25572   0.11169   0.00000  Uiso   1.00
C284   C     0.66066   0.25995   0.16358   0.00000  Uiso   1.00
C285   C     0.76172   0.26242   0.24617   0.00000  Uiso   1.00
C286   C     0.35485   0.32107   0.00169   0.00000  Uiso   1.00
C287   C     0.34436   0.36126   0.94953   0.00000  Uiso   1.00
C288   C     0.25086   0.41378   0.92725   0.00000  Uiso   1.00
C289   C     0.11473   0.50525   0.87306   0.00000  Uiso   1.00
C290   C     0.30300   0.28281   0.08697   0.00000  Uiso   1.00
C291   C     0.30763   0.22499   0.07518   0.00000  Uiso   1.00
C292   C     0.24173   0.18669   0.09047   0.00000  Uiso   1.00
C293   C     0.25873   0.13607   0.07582   0.00000  Uiso   1.00
C294   C     0.42758   0.27558   0.11868   0.00000  Uiso   1.00
C295   C     0.46251   0.27984   0.17055   0.00000  Uiso   1.00
C296   C     0.58047   0.27182   0.19253   0.00000  Uiso   1.00
C297   C     0.27480   0.33291   0.03059   0.00000  Uiso   1.00
C298   C     0.18130   0.38538   0.00839   0.00000  Uiso   1.00
C299   C     0.17067   0.42564   0.95621   0.00000  Uiso   1.00
H300   H     0.51271   0.25179   0.01126   0.00000  Uiso   1.00
H301   H     0.46675   0.15342   0.00924   0.00000  Uiso   1.00
H302   H     0.68749   0.24656   0.08931   0.00000  Uiso   1.00
H303   H     0.40633   0.35208   0.92717   0.00000  Uiso   1.00
H304   H     0.38052   0.04957   0.01977   0.00000  Uiso   1.00
H305   H     0.84596   0.24598   0.18858   0.00000  Uiso   1.00
H306   H     0.25308   0.46850   0.84669   0.00000  Uiso   1.00
H307   H     0.24068   0.29203   0.10947   0.00000  Uiso   1.00
H308   H     0.17979   0.19587   0.11284   0.00000  Uiso   1.00
H309   H     0.40053   0.28901   0.19291   0.00000  Uiso   1.00
H310   H     0.11937   0.39453   0.03077   0.00000  Uiso   1.00
H311   H     0.14762   0.08402   0.10385   0.00000  Uiso   1.00
H312   H     0.61306   0.28044   0.27267   0.00000  Uiso   1.00
H313   H     0.02018   0.50295   0.93077   0.00000  Uiso   1.00
O314   O     0.22895   0.00280   0.06227   0.00000  Uiso   1.00
O315   O     0.83958   0.26050   0.28374   0.00000  Uiso   1.00
O316   O     0.06174   0.55243   0.83519   0.00000  Uiso   1.00
N317   N     0.33405   0.07088   0.03908   0.00000  Uiso   1.00
N318   N     0.76921   0.25450   0.19692   0.00000  Uiso   1.00
N319   N     0.21494   0.46255   0.87728   0.00000  Uiso   1.00
N320   N     0.20872   0.08942   0.08433   0.00000  Uiso   1.00
N321   N     0.64388   0.27304   0.24216   0.00000  Uiso   1.00
N322   N     0.08961   0.48109   0.92253   0.00000  Uiso   1.00
C323   C     0.81606   0.54299   0.32286   0.00000  Uiso   1.00
C324   C     0.69324   0.56410   0.28259   0.00000  Uiso   1.00
C325   C     0.64533   0.61727   0.23633   0.00000  Uiso   1.00
C326   C     0.53157   0.62840   0.20475   0.00000  Uiso   1.00
C327   C     0.35054   0.66735   0.14005   0.00000  Uiso   1.00
C328   C     0.87401   0.48075   0.32340   0.00000  Uiso   1.00
C329   C     0.97809   0.46384   0.31146   0.00000  Uiso   1.00
C330   C     0.01650   0.40480   0.31425   0.00000  Uiso   1.00
C331   C     0.11616   0.31433   0.31295   0.00000  Uiso   1.00
C332   C     0.80086   0.53285   0.38051   0.00000  Uiso   1.00
C333   C     0.84346   0.55974   0.41660   0.00000  Uiso   1.00
C334   C     0.82031   0.54456   0.46748   0.00000  Uiso   1.00
C335   C     0.80639   0.53499   0.55485   0.00000  Uiso   1.00
C336   C     0.69922   0.46819   0.34904   0.00000  Uiso   1.00
C337   C     0.62978   0.52347   0.29681   0.00000  Uiso   1.00
C338   C     0.51606   0.53452   0.26530   0.00000  Uiso   1.00
C339   C     0.46799   0.58770   0.21900   0.00000  Uiso   1.00
C340   C     0.81055   0.44012   0.33762   0.00000  Uiso   1.00
C341   C     0.84882   0.38109   0.34043   0.00000  Uiso   1.00
C342   C     0.95293   0.36410   0.32850   0.00000  Uiso   1.00
C343   C     0.73739   0.49223   0.39474   0.00000  Uiso   1.00
C344   C     0.71418   0.47699   0.44557   0.00000  Uiso   1.00
C345   C     0.75673   0.50386   0.48173   0.00000  Uiso   1.00
H346   H     0.86548   0.57461   0.31178   0.00000  Uiso   1.00
H347   H     0.69448   0.64870   0.22533   0.00000  Uiso   1.00
H348   H     0.02719   0.49529   0.30046   0.00000  Uiso   1.00
H349   H     0.89257   0.59118   0.40558   0.00000  Uiso   1.00
H350   H     0.47693   0.71291   0.13575   0.00000  Uiso   1.00
H351   H     0.17849   0.38944   0.29418   0.00000  Uiso   1.00
H352   H     0.89462   0.59164   0.51585   0.00000  Uiso   1.00
H353   H     0.64981   0.43656   0.36011   0.00000  Uiso   1.00
H354   H     0.46697   0.50307   0.27631   0.00000  Uiso   1.00
H355   H     0.79969   0.34966   0.35144   0.00000  Uiso   1.00
H356   H     0.66507   0.44555   0.45656   0.00000  Uiso   1.00
H357   H     0.29227   0.59471   0.17712   0.00000  Uiso   1.00
H358   H     0.99384   0.27124   0.33556   0.00000  Uiso   1.00
H359   H     0.70997   0.47344   0.55722   0.00000  Uiso   1.00
O360   O     0.26823   0.70005   0.10043   0.00000  Uiso   1.00
O361   O     0.18866   0.27566   0.30830   0.00000  Uiso   1.00
O362   O     0.81623   0.54094   0.59911   0.00000  Uiso   1.00
N363   N     0.45855   0.67597   0.15699   0.00000  Uiso   1.00
N364   N     0.11446   0.37354   0.30511   0.00000  Uiso   1.00
N365   N     0.84910   0.56257   0.51235   0.00000  Uiso   1.00
N366   N     0.35919   0.61237   0.17926   0.00000  Uiso   1.00
N367   N     0.01510   0.30994   0.32737   0.00000  Uiso   1.00
N368   N     0.74974   0.49897   0.53462   0.00000  Uiso   1.00
C369   C     0.28855   0.95419   0.68181   0.00000  Uiso   1.00
C370   C     0.16666   0.98999   0.67769   0.00000  Uiso   1.00
C371   C     0.12662   0.99373   0.72226   0.00000  Uiso   1.00
C372   C     0.01231   0.02882   0.70979   0.00000  Uiso   1.00
C373   C     0.83395   0.07984   0.71177   0.00000  Uiso   1.00
C374   C     0.33781   0.99930   0.64713   0.00000  Uiso   1.00
C375   C     0.44166   0.01086   0.66602   0.00000  Uiso   1.00
C376   C     0.47143   0.05379   0.62782   0.00000  Uiso   1.00
C377   C     0.55882   0.11923   0.58235   0.00000  Uiso   1.00
C378   C     0.27087   0.91143   0.65110   0.00000  Uiso   1.00
C379   C     0.31847   0.84911   0.67332   0.00000  Uiso   1.00
C380   C     0.29189   0.81805   0.63845   0.00000  Uiso   1.00
C381   C     0.27536   0.74706   0.59915   0.00000  Uiso   1.00
C382   C     0.15676   0.00986   0.58038   0.00000  Uiso   1.00
C383   C     0.09508   0.02023   0.62260   0.00000  Uiso   1.00
C384   C     0.98080   0.05533   0.61005   0.00000  Uiso   1.00
C385   C     0.94059   0.05911   0.65460   0.00000  Uiso   1.00
C386   C     0.26623   0.02954   0.59205   0.00000  Uiso   1.00
C387   C     0.29585   0.07246   0.55380   0.00000  Uiso   1.00
C388   C     0.39971   0.08409   0.57263   0.00000  Uiso   1.00
C389   C     0.19928   0.94167   0.59601   0.00000  Uiso   1.00
C390   C     0.17264   0.91071   0.56110   0.00000  Uiso   1.00
C391   C     0.22018   0.84835   0.58326   0.00000  Uiso   1.00
H392   H     0.34429   0.93065   0.72470   0.00000  Uiso   1.00
H393   H     0.18205   0.97032   0.76489   0.00000  Uiso   1.00
H394   H     0.49705   0.98745   0.70865   0.00000  Uiso   1.00
H395   H     0.37386   0.82572   0.71595   0.00000  Uiso   1.00
H396   H     0.97061   0.02767   0.78516   0.00000  Uiso   1.00
H397   H     0.63483   0.06376   0.66657   0.00000  Uiso   1.00
H398   H     0.37507   0.72273   0.68196   0.00000  Uiso   1.00
H399   H     0.10102   0.03341   0.53749   0.00000  Uiso   1.00
H400   H     0.92542   0.07872   0.56741   0.00000  Uiso   1.00
H401   H     0.24043   0.09585   0.51118   0.00000  Uiso   1.00
H402   H     0.11724   0.93412   0.51847   0.00000  Uiso   1.00
H403   H     0.76233   0.11565   0.62487   0.00000  Uiso   1.00
H404   H     0.42655   0.15175   0.50629   0.00000  Uiso   1.00
H405   H     0.16679   0.81071   0.52168   0.00000  Uiso   1.00
O406   O     0.75536   0.09963   0.72808   0.00000  Uiso   1.00
O407   O     0.62680   0.14698   0.57249   0.00000  Uiso   1.00
O408   O     0.28600   0.69955   0.59269   0.00000  Uiso   1.00
N409   N     0.94568   0.04214   0.74333   0.00000  Uiso   1.00
N410   N     0.56668   0.07590   0.63246   0.00000  Uiso   1.00
N411   N     0.32385   0.75706   0.64685   0.00000  Uiso   1.00
N412   N     0.83361   0.08949   0.65708   0.00000  Uiso   1.00
N413   N     0.45460   0.12324   0.54621   0.00000  Uiso   1.00
N414   N     0.21178   0.80440   0.56060   0.00000  Uiso   1.00
C415   C     0.92279   0.24907   0.99516   0.00000  Uiso   1.00
C416   C     0.80165   0.24992   0.96494   0.00000  Uiso   1.00
C417   C     0.76339   0.19968   0.96855   0.00000  Uiso   1.00
C418   C     0.64948   0.20994   0.93765   0.00000  Uiso   1.00
C419   C     0.47249   0.20237   0.89576   0.00000  Uiso   1.00
C420   C     0.97132   0.28130   0.95007   0.00000  Uiso   1.00
C421   C     0.07572   0.25746   0.94119   0.00000  Uiso   1.00
C422   C     0.10464   0.29414   0.89779   0.00000  Uiso   1.00
C423   C     0.19110   0.33531   0.83285   0.00000  Uiso   1.00
C424   C     0.90342   0.28970   0.02847   0.00000  Uiso   1.00
C425   C     0.95076   0.27292   0.08551   0.00000  Uiso   1.00
C426   C     0.92255   0.31669   0.10811   0.00000  Uiso   1.00
C427   C     0.90359   0.37089   0.16490   0.00000  Uiso   1.00
C428   C     0.78854   0.35663   0.93388   0.00000  Uiso   1.00
C429   C     0.72873   0.30834   0.93165   0.00000  Uiso   1.00
C430   C     0.61485   0.31868   0.90075   0.00000  Uiso   1.00
C431   C     0.57643   0.26847   0.90431   0.00000  Uiso   1.00
C432   C     0.89840   0.33972   0.91679   0.00000  Uiso   1.00
C433   C     0.92718   0.37645   0.87339   0.00000  Uiso   1.00
C434   C     0.03159   0.35267   0.86444   0.00000  Uiso   1.00
C435   C     0.83050   0.34812   0.99519   0.00000  Uiso   1.00
C436   C     0.80222   0.39192   0.01771   0.00000  Uiso   1.00
C437   C     0.84950   0.37521   0.07477   0.00000  Uiso   1.00
H438   H     0.97957   0.20359   0.02107   0.00000  Uiso   1.00
H439   H     0.81985   0.15448   0.99430   0.00000  Uiso   1.00
H440   H     0.13213   0.21225   0.96696   0.00000  Uiso   1.00
H441   H     0.00719   0.22771   0.11125   0.00000  Uiso   1.00
H442   H     0.61063   0.12579   0.94993   0.00000  Uiso   1.00
H443   H     0.26911   0.24761   0.89229   0.00000  Uiso   1.00
H444   H     0.00564   0.28022   0.19656   0.00000  Uiso   1.00
H445   H     0.73177   0.40211   0.90797   0.00000  Uiso   1.00
H446   H     0.55844   0.36389   0.87499   0.00000  Uiso   1.00
H447   H     0.87073   0.42166   0.84765   0.00000  Uiso   1.00
H448   H     0.74578   0.43712   0.99194   0.00000  Uiso   1.00
H449   H     0.39846   0.29576   0.85309   0.00000  Uiso   1.00
H450   H     0.05695   0.41758   0.79545   0.00000  Uiso   1.00
H451   H     0.79348   0.45018   0.09972   0.00000  Uiso   1.00
O452   O     0.39501   0.18205   0.88185   0.00000  Uiso   1.00
O453   O     0.25893   0.34187   0.80623   0.00000  Uiso   1.00
O454   O     0.91326   0.38465   0.20542   0.00000  Uiso   1.00
N455   N     0.58447   0.17104   0.93168   0.00000  Uiso   1.00
N456   N     0.20011   0.28493   0.87777   0.00000  Uiso   1.00
N457   N     0.95381   0.31542   0.16224   0.00000  Uiso   1.00
N458   N     0.47031   0.26250   0.87957   0.00000  Uiso   1.00
N459   N     0.08594   0.37639   0.82566   0.00000  Uiso   1.00
N460   N     0.83965   0.40687   0.11013   0.00000  Uiso   1.00
C461   C     0.83115   0.90422   0.70805   0.00000  Uiso   1.00
C462   C     0.75256   0.90194   0.74580   0.00000  Uiso   1.00
C463   C     0.74754   0.93277   0.78207   0.00000  Uiso   1.00
C464   C     0.66995   0.92471   0.81301   0.00000  Uiso   1.00
C465   C     0.55861   0.92687   0.87244   0.00000  Uiso   1.00
C466   C     0.90242   0.83903   0.72273   0.00000  Uiso   1.00
C467   C     0.02340   0.81696   0.73960   0.00000  Uiso   1.00
C468   C     0.07196   0.75594   0.75111   0.00000  Uiso   1.00
C469   C     0.19329   0.66043   0.77468   0.00000  Uiso   1.00
C470   C     0.75016   0.92430   0.64908   0.00000  Uiso   1.00
C471   C     0.74313   0.97392   0.60401   0.00000  Uiso   1.00
C472   C     0.66352   0.98469   0.55351   0.00000  Uiso   1.00
C473   C     0.54843   0.02157   0.46273   0.00000  Uiso   1.00
C474   C     0.70228   0.83509   0.69850   0.00000  Uiso   1.00
C475   C     0.68257   0.86439   0.74062   0.00000  Uiso   1.00
C476   C     0.60496   0.85629   0.77151   0.00000  Uiso   1.00
C477   C     0.59982   0.88710   0.80782   0.00000  Uiso   1.00
C478   C     0.83243   0.80148   0.71755   0.00000  Uiso   1.00
C479   C     0.88083   0.74047   0.72903   0.00000  Uiso   1.00
C480   C     0.00184   0.71832   0.74591   0.00000  Uiso   1.00
C481   C     0.68016   0.88675   0.64389   0.00000  Uiso   1.00
C482   C     0.60055   0.89744   0.59345   0.00000  Uiso   1.00
C483   C     0.59340   0.94707   0.54831   0.00000  Uiso   1.00
H484   H     0.88565   0.93345   0.71209   0.00000  Uiso   1.00
H485   H     0.80173   0.96182   0.78608   0.00000  Uiso   1.00
H486   H     0.07755   0.84603   0.74360   0.00000  Uiso   1.00
H487   H     0.79731   0.00297   0.60804   0.00000  Uiso   1.00
H488   H     0.67785   0.97670   0.86583   0.00000  Uiso   1.00
H489   H     0.25942   0.73255   0.77625   0.00000  Uiso   1.00
H490   H     0.66850   0.06349   0.49040   0.00000  Uiso   1.00
H491   H     0.64779   0.80585   0.69446   0.00000  Uiso   1.00
H492   H     0.55081   0.82722   0.76749   0.00000  Uiso   1.00
H493   H     0.82663   0.71143   0.72501   0.00000  Uiso   1.00
H494   H     0.54640   0.86837   0.58945   0.00000  Uiso   1.00
H495   H     0.47420   0.86746   0.85075   0.00000  Uiso   1.00
H496   H     0.05578   0.62331   0.76116   0.00000  Uiso   1.00
H497   H     0.46485   0.95424   0.47531   0.00000  Uiso   1.00
O498   O     0.51655   0.93842   0.90666   0.00000  Uiso   1.00
O499   O     0.27955   0.61812   0.78912   0.00000  Uiso   1.00
O500   O     0.50427   0.05230   0.41408   0.00000  Uiso   1.00
N501   N     0.64321   0.94807   0.85225   0.00000  Uiso   1.00
N502   N     0.18695   0.71980   0.76851   0.00000  Uiso   1.00
N503   N     0.63451   0.02919   0.50125   0.00000  Uiso   1.00
N504   N     0.53363   0.88928   0.84413   0.00000  Uiso   1.00
N505   N     0.07737   0.66102   0.76039   0.00000  Uiso   1.00
N506   N     0.52493   0.97041   0.49313   0.00000  Uiso   1.00
C507   C     0.34919   0.56887   0.36074   0.00000  Uiso   1.00
C508   C     0.23108   0.61111   0.32090   0.00000  Uiso   1.00
C509   C     0.20944   0.64531   0.26517   0.00000  Uiso   1.00
C510   C     0.09545   0.68113   0.23580   0.00000  Uiso   1.00
C511   C     0.92560   0.74652   0.17007   0.00000  Uiso   1.00
C512   C     0.37287   0.59021   0.40952   0.00000  Uiso   1.00
C513   C     0.47047   0.60681   0.42830   0.00000  Uiso   1.00
C514   C     0.47584   0.62503   0.47354   0.00000  Uiso   1.00
C515   C     0.52618   0.65792   0.54541   0.00000  Uiso   1.00
C516   C     0.33126   0.50721   0.38397   0.00000  Uiso   1.00
C517   C     0.39388   0.45403   0.38129   0.00000  Uiso   1.00
C518   C     0.36423   0.40237   0.40503   0.00000  Uiso   1.00
C519   C     0.34995   0.30640   0.43723   0.00000  Uiso   1.00
C520   C     0.18520   0.57168   0.40768   0.00000  Uiso   1.00
C521   C     0.14200   0.61264   0.34640   0.00000  Uiso   1.00
C522   C     0.02800   0.64842   0.31710   0.00000  Uiso   1.00
C523   C     0.00621   0.68266   0.26134   0.00000  Uiso   1.00
C524   C     0.28380   0.59174   0.43501   0.00000  Uiso   1.00
C525   C     0.28903   0.60993   0.48023   0.00000  Uiso   1.00
C526   C     0.38661   0.62656   0.49908   0.00000  Uiso   1.00
C527   C     0.24218   0.50874   0.40946   0.00000  Uiso   1.00
C528   C     0.21243   0.45715   0.43321   0.00000  Uiso   1.00
C529   C     0.27500   0.40390   0.43057   0.00000  Uiso   1.00
H530   H     0.41855   0.56768   0.34090   0.00000  Uiso   1.00
H531   H     0.27841   0.64412   0.24546   0.00000  Uiso   1.00
H532   H     0.53940   0.60562   0.40857   0.00000  Uiso   1.00
H533   H     0.46281   0.45286   0.36156   0.00000  Uiso   1.00
H534   H     0.08376   0.72956   0.15090   0.00000  Uiso   1.00
H535   H     0.63409   0.64836   0.49484   0.00000  Uiso   1.00
H536   H     0.47259   0.32625   0.39571   0.00000  Uiso   1.00
H537   H     0.11585   0.57287   0.42753   0.00000  Uiso   1.00
H538   H     0.95909   0.64960   0.33684   0.00000  Uiso   1.00
H539   H     0.22009   0.61110   0.49995   0.00000  Uiso   1.00
H540   H     0.14350   0.45835   0.45294   0.00000  Uiso   1.00
H541   H     0.82459   0.73401   0.22507   0.00000  Uiso   1.00
H542   H     0.37493   0.65282   0.56901   0.00000  Uiso   1.00
H543   H     0.21343   0.33070   0.46988   0.00000  Uiso   1.00
O544   O     0.85652   0.78218   0.12677   0.00000  Uiso   1.00
O545   O     0.57855   0.67565   0.57801   0.00000  Uiso   1.00
O546   O     0.36666   0.25304   0.44795   0.00000  Uiso   1.00
N547   N     0.04427   0.72006   0.18080   0.00000  Uiso   1.00
N548   N     0.55879   0.64417   0.50235   0.00000  Uiso   1.00
N549   N     0.40783   0.34301   0.40969   0.00000  Uiso   1.00
N550   N     0.90482   0.72246   0.22071   0.00000  Uiso   1.00
N551   N     0.41934   0.64656   0.54226   0.00000  Uiso   1.00
N552   N     0.26837   0.34541   0.44960   0.00000  Uiso   1.00
