data_job_01606
_audit_creation_date              2018-12-19
_audit_creation_method            'Materials Studio'
_symmetry_space_group_name_H-M    'P1'
_symmetry_Int_Tables_number       1
_symmetry_cell_setting            triclinic
loop_
_symmetry_equiv_pos_as_xyz
  x,y,z
_cell_length_a                    32.3924
_cell_length_b                    8.6061
_cell_length_c                    20.0689
_cell_angle_alpha                 90.0000
_cell_angle_beta                  147.8587
_cell_angle_gamma                 90.0000
loop_
_atom_site_label
_atom_site_type_symbol
_atom_site_fract_x
_atom_site_fract_y
_atom_site_fract_z
_atom_site_U_iso_or_equiv
_atom_site_adp_type
_atom_site_occupancy
C1     C     0.20239   0.15481   0.74304   0.00000  Uiso   1.00
C2     C     0.20491   0.12586   0.82142   0.00000  Uiso   1.00
C3     C     0.17032   0.21800   0.82251   0.00000  Uiso   1.00
C4     C     0.17934   0.17181   0.90067   0.00000  Uiso   1.00
C5     C     0.17689   0.14721   0.01111   0.00000  Uiso   1.00
C6     C     0.28670   0.16239   0.83543   0.00000  Uiso   1.00
C7     C     0.32087   0.28523   0.84829   0.00000  Uiso   1.00
C8     C     0.39874   0.26977   0.93823   0.00000  Uiso   1.00
C9     C     0.52325   0.30183   0.07036   0.00000  Uiso   1.00
C10    C     0.16868   0.00770   0.66607   0.00000  Uiso   1.00
C11    C     0.10363   0.00047   0.53651   0.00000  Uiso   1.00
C12    C     0.08215   0.85477   0.48386   0.00000  Uiso   1.00
C13    C     0.02341   0.64665   0.35302   0.00000  Uiso   1.00
C14    C     0.27990   0.90892   0.87990   0.00000  Uiso   1.00
C15    C     0.24701   0.99230   0.89576   0.00000  Uiso   1.00
C16    C     0.25608   0.94595   0.97393   0.00000  Uiso   1.00
C17    C     0.22152   0.03800   0.97513   0.00000  Uiso   1.00
C18    C     0.32880   0.02884   0.90977   0.00000  Uiso   1.00
C19    C     0.40664   0.01318   0.99970   0.00000  Uiso   1.00
C20    C     0.44092   0.13597   0.01270   0.00000  Uiso   1.00
C21    C     0.21078   0.87413   0.74040   0.00000  Uiso   1.00
C22    C     0.18939   0.72842   0.68793   0.00000  Uiso   1.00
C23    C     0.12433   0.72097   0.55833   0.00000  Uiso   1.00
H24    H     0.16961   0.25880   0.68517   0.00000  Uiso   1.00
H25    H     0.13775   0.32136   0.76498   0.00000  Uiso   1.00
H26    H     0.28828   0.38856   0.79074   0.00000  Uiso   1.00
H27    H     0.07107   0.10385   0.47902   0.00000  Uiso   1.00
H28    H     0.12102   0.33185   0.88628   0.00000  Uiso   1.00
H29    H     0.43840   0.47354   0.94057   0.00000  Uiso   1.00
H30    H     0.98038   0.87316   0.28324   0.00000  Uiso   1.00
H31    H     0.31268   0.80494   0.93777   0.00000  Uiso   1.00
H32    H     0.28867   0.84259   0.03144   0.00000  Uiso   1.00
H33    H     0.43920   0.90981   0.05721   0.00000  Uiso   1.00
H34    H     0.22199   0.62509   0.74549   0.00000  Uiso   1.00
H35    H     0.24351   0.94327   0.10255   0.00000  Uiso   1.00
H36    H     0.56090   0.08496   0.15684   0.00000  Uiso   1.00
H37    H     0.10287   0.48458   0.49952   0.00000  Uiso   1.00
O38    O     0.16391   0.17055   0.05151   0.00000  Uiso   1.00
O39    O     0.58030   0.35643   0.12271   0.00000  Uiso   1.00
O40    O     0.97938   0.56875   0.26032   0.00000  Uiso   1.00
N41    N     0.15313   0.23521   0.92430   0.00000  Uiso   1.00
N42    N     0.44987   0.36770   0.97508   0.00000  Uiso   1.00
N43    N     0.02166   0.80640   0.36053   0.00000  Uiso   1.00
N44    N     0.21904   0.02612   0.04068   0.00000  Uiso   1.00
N45    N     0.51578   0.15860   0.09145   0.00000  Uiso   1.00
N46    N     0.08758   0.59731   0.47691   0.00000  Uiso   1.00
C47    C     0.79761   0.65481   0.75696   0.00000  Uiso   1.00
C48    C     0.79509   0.62586   0.67858   0.00000  Uiso   1.00
C49    C     0.82968   0.71800   0.67749   0.00000  Uiso   1.00
C50    C     0.82066   0.67181   0.59933   0.00000  Uiso   1.00
C51    C     0.82311   0.64721   0.48889   0.00000  Uiso   1.00
C52    C     0.71330   0.66239   0.66457   0.00000  Uiso   1.00
C53    C     0.67913   0.78523   0.65171   0.00000  Uiso   1.00
C54    C     0.60126   0.76977   0.56177   0.00000  Uiso   1.00
C55    C     0.47675   0.80183   0.42964   0.00000  Uiso   1.00
C56    C     0.83132   0.50770   0.83393   0.00000  Uiso   1.00
C57    C     0.89637   0.50047   0.96349   0.00000  Uiso   1.00
C58    C     0.91785   0.35477   0.01614   0.00000  Uiso   1.00
C59    C     0.97659   0.14665   0.14698   0.00000  Uiso   1.00
C60    C     0.72010   0.40892   0.62010   0.00000  Uiso   1.00
C61    C     0.75299   0.49230   0.60424   0.00000  Uiso   1.00
C62    C     0.74392   0.44595   0.52607   0.00000  Uiso   1.00
C63    C     0.77848   0.53800   0.52487   0.00000  Uiso   1.00
C64    C     0.67120   0.52884   0.59023   0.00000  Uiso   1.00
C65    C     0.59336   0.51318   0.50030   0.00000  Uiso   1.00
C66    C     0.55908   0.63597   0.48730   0.00000  Uiso   1.00
C67    C     0.78922   0.37413   0.75960   0.00000  Uiso   1.00
C68    C     0.81061   0.22842   0.81207   0.00000  Uiso   1.00
C69    C     0.87567   0.22097   0.94167   0.00000  Uiso   1.00
H70    H     0.83039   0.75880   0.81483   0.00000  Uiso   1.00
H71    H     0.86225   0.82136   0.73502   0.00000  Uiso   1.00
H72    H     0.71172   0.88856   0.70926   0.00000  Uiso   1.00
H73    H     0.92893   0.60385   0.02098   0.00000  Uiso   1.00
H74    H     0.87898   0.83185   0.61372   0.00000  Uiso   1.00
H75    H     0.56160   0.97354   0.55943   0.00000  Uiso   1.00
H76    H     0.01962   0.37316   0.21676   0.00000  Uiso   1.00
H77    H     0.68732   0.30494   0.56223   0.00000  Uiso   1.00
H78    H     0.71133   0.34259   0.46856   0.00000  Uiso   1.00
H79    H     0.56080   0.40981   0.44279   0.00000  Uiso   1.00
H80    H     0.77801   0.12509   0.75451   0.00000  Uiso   1.00
H81    H     0.75649   0.44327   0.39745   0.00000  Uiso   1.00
H82    H     0.43910   0.58496   0.34316   0.00000  Uiso   1.00
H83    H     0.89713   0.98458   0.00048   0.00000  Uiso   1.00
O84    O     0.83609   0.67055   0.44849   0.00000  Uiso   1.00
O85    O     0.41970   0.85643   0.37729   0.00000  Uiso   1.00
O86    O     0.02062   0.06875   0.23968   0.00000  Uiso   1.00
N87    N     0.84687   0.73521   0.57570   0.00000  Uiso   1.00
N88    N     0.55013   0.86770   0.52492   0.00000  Uiso   1.00
N89    N     0.97834   0.30640   0.13947   0.00000  Uiso   1.00
N90    N     0.78096   0.52612   0.45932   0.00000  Uiso   1.00
N91    N     0.48422   0.65860   0.40855   0.00000  Uiso   1.00
N92    N     0.91242   0.09731   0.02309   0.00000  Uiso   1.00
C93    C     0.79761   0.84519   0.25696   0.00000  Uiso   1.00
C94    C     0.79509   0.87414   0.17858   0.00000  Uiso   1.00
C95    C     0.82968   0.78200   0.17749   0.00000  Uiso   1.00
C96    C     0.82066   0.82819   0.09933   0.00000  Uiso   1.00
C97    C     0.82311   0.85279   0.98889   0.00000  Uiso   1.00
C98    C     0.71330   0.83761   0.16457   0.00000  Uiso   1.00
C99    C     0.67913   0.71477   0.15171   0.00000  Uiso   1.00
C100   C     0.60126   0.73023   0.06177   0.00000  Uiso   1.00
C101   C     0.47675   0.69817   0.92964   0.00000  Uiso   1.00
C102   C     0.83132   0.99230   0.33393   0.00000  Uiso   1.00
C103   C     0.89637   0.99953   0.46349   0.00000  Uiso   1.00
C104   C     0.91785   0.14523   0.51614   0.00000  Uiso   1.00
C105   C     0.97659   0.35335   0.64698   0.00000  Uiso   1.00
C106   C     0.72010   0.09108   0.12010   0.00000  Uiso   1.00
C107   C     0.75299   0.00770   0.10424   0.00000  Uiso   1.00
C108   C     0.74392   0.05405   0.02607   0.00000  Uiso   1.00
C109   C     0.77848   0.96200   0.02487   0.00000  Uiso   1.00
C110   C     0.67120   0.97116   0.09023   0.00000  Uiso   1.00
C111   C     0.59336   0.98682   0.00030   0.00000  Uiso   1.00
C112   C     0.55908   0.86403   0.98730   0.00000  Uiso   1.00
C113   C     0.78922   0.12587   0.25960   0.00000  Uiso   1.00
C114   C     0.81061   0.27158   0.31207   0.00000  Uiso   1.00
C115   C     0.87567   0.27903   0.44167   0.00000  Uiso   1.00
H116   H     0.83039   0.74120   0.31483   0.00000  Uiso   1.00
H117   H     0.86225   0.67864   0.23502   0.00000  Uiso   1.00
H118   H     0.71172   0.61144   0.20926   0.00000  Uiso   1.00
H119   H     0.92893   0.89615   0.52098   0.00000  Uiso   1.00
H120   H     0.87898   0.66815   0.11372   0.00000  Uiso   1.00
H121   H     0.56160   0.52646   0.05943   0.00000  Uiso   1.00
H122   H     0.01962   0.12684   0.71676   0.00000  Uiso   1.00
H123   H     0.68732   0.19506   0.06223   0.00000  Uiso   1.00
H124   H     0.71133   0.15741   0.96856   0.00000  Uiso   1.00
H125   H     0.56080   0.09019   0.94279   0.00000  Uiso   1.00
H126   H     0.77801   0.37491   0.25451   0.00000  Uiso   1.00
H127   H     0.75649   0.05673   0.89745   0.00000  Uiso   1.00
H128   H     0.43910   0.91504   0.84316   0.00000  Uiso   1.00
H129   H     0.89713   0.51542   0.50048   0.00000  Uiso   1.00
O130   O     0.83609   0.82945   0.94849   0.00000  Uiso   1.00
O131   O     0.41970   0.64357   0.87729   0.00000  Uiso   1.00
O132   O     0.02062   0.43125   0.73968   0.00000  Uiso   1.00
N133   N     0.84687   0.76479   0.07570   0.00000  Uiso   1.00
N134   N     0.55013   0.63230   0.02492   0.00000  Uiso   1.00
N135   N     0.97834   0.19360   0.63947   0.00000  Uiso   1.00
N136   N     0.78096   0.97388   0.95932   0.00000  Uiso   1.00
N137   N     0.48422   0.84140   0.90855   0.00000  Uiso   1.00
N138   N     0.91242   0.40269   0.52309   0.00000  Uiso   1.00
C139   C     0.20239   0.34519   0.24304   0.00000  Uiso   1.00
C140   C     0.20491   0.37414   0.32142   0.00000  Uiso   1.00
C141   C     0.17032   0.28200   0.32251   0.00000  Uiso   1.00
C142   C     0.17934   0.32819   0.40067   0.00000  Uiso   1.00
C143   C     0.17689   0.35279   0.51111   0.00000  Uiso   1.00
C144   C     0.28670   0.33761   0.33543   0.00000  Uiso   1.00
C145   C     0.32087   0.21477   0.34829   0.00000  Uiso   1.00
C146   C     0.39874   0.23023   0.43823   0.00000  Uiso   1.00
C147   C     0.52325   0.19817   0.57036   0.00000  Uiso   1.00
C148   C     0.16868   0.49230   0.16607   0.00000  Uiso   1.00
C149   C     0.10363   0.49953   0.03651   0.00000  Uiso   1.00
C150   C     0.08215   0.64523   0.98386   0.00000  Uiso   1.00
C151   C     0.02341   0.85335   0.85302   0.00000  Uiso   1.00
C152   C     0.27990   0.59108   0.37990   0.00000  Uiso   1.00
C153   C     0.24701   0.50770   0.39576   0.00000  Uiso   1.00
C154   C     0.25608   0.55405   0.47393   0.00000  Uiso   1.00
C155   C     0.22152   0.46200   0.47513   0.00000  Uiso   1.00
C156   C     0.32880   0.47116   0.40977   0.00000  Uiso   1.00
C157   C     0.40664   0.48682   0.49970   0.00000  Uiso   1.00
C158   C     0.44092   0.36403   0.51270   0.00000  Uiso   1.00
C159   C     0.21078   0.62587   0.24040   0.00000  Uiso   1.00
C160   C     0.18939   0.77158   0.18793   0.00000  Uiso   1.00
C161   C     0.12433   0.77903   0.05833   0.00000  Uiso   1.00
H162   H     0.16961   0.24120   0.18517   0.00000  Uiso   1.00
H163   H     0.13775   0.17864   0.26498   0.00000  Uiso   1.00
H164   H     0.28828   0.11144   0.29074   0.00000  Uiso   1.00
H165   H     0.07107   0.39615   0.97902   0.00000  Uiso   1.00
H166   H     0.12102   0.16815   0.38628   0.00000  Uiso   1.00
H167   H     0.43840   0.02646   0.44057   0.00000  Uiso   1.00
H168   H     0.98038   0.62684   0.78324   0.00000  Uiso   1.00
H169   H     0.31268   0.69506   0.43777   0.00000  Uiso   1.00
H170   H     0.28867   0.65741   0.53144   0.00000  Uiso   1.00
H171   H     0.43920   0.59019   0.55721   0.00000  Uiso   1.00
H172   H     0.22199   0.87491   0.24549   0.00000  Uiso   1.00
H173   H     0.24351   0.55673   0.60255   0.00000  Uiso   1.00
H174   H     0.56090   0.41504   0.65684   0.00000  Uiso   1.00
H175   H     0.10287   0.01542   0.99952   0.00000  Uiso   1.00
O176   O     0.16391   0.32945   0.55151   0.00000  Uiso   1.00
O177   O     0.58030   0.14357   0.62271   0.00000  Uiso   1.00
O178   O     0.97938   0.93125   0.76032   0.00000  Uiso   1.00
N179   N     0.15313   0.26479   0.42430   0.00000  Uiso   1.00
N180   N     0.44987   0.13230   0.47508   0.00000  Uiso   1.00
N181   N     0.02166   0.69360   0.86053   0.00000  Uiso   1.00
N182   N     0.21904   0.47388   0.54068   0.00000  Uiso   1.00
N183   N     0.51578   0.34140   0.59145   0.00000  Uiso   1.00
N184   N     0.08758   0.90269   0.97691   0.00000  Uiso   1.00
