data_job_00953
_audit_creation_date              2018-12-19
_audit_creation_method            'Materials Studio'
_symmetry_space_group_name_H-M    'P1'
_symmetry_Int_Tables_number       1
_symmetry_cell_setting            triclinic
loop_
_symmetry_equiv_pos_as_xyz
  x,y,z
_cell_length_a                    12.3578
_cell_length_b                    14.8463
_cell_length_c                    28.6033
_cell_angle_alpha                 91.2065
_cell_angle_beta                  89.9828
_cell_angle_gamma                 90.0001
loop_
_atom_site_label
_atom_site_type_symbol
_atom_site_fract_x
_atom_site_fract_y
_atom_site_fract_z
_atom_site_U_iso_or_equiv
_atom_site_adp_type
_atom_site_occupancy
C1     C     0.70488   0.55225   0.35731   0.00000  Uiso   1.00
C2     C     0.68198   0.48768   0.31633   0.00000  Uiso   1.00
C3     C     0.69017   0.50812   0.26935   0.00000  Uiso   1.00
C4     C     0.66573   0.43975   0.23720   0.00000  Uiso   1.00
C5     C     0.63491   0.35254   0.17140   0.00000  Uiso   1.00
C6     C     0.60214   0.55432   0.38685   0.00000  Uiso   1.00
C7     C     0.54321   0.63079   0.39916   0.00000  Uiso   1.00
C8     C     0.45156   0.61851   0.42638   0.00000  Uiso   1.00
C9     C     0.29684   0.63476   0.47008   0.00000  Uiso   1.00
C10    C     0.79078   0.50665   0.38688   0.00000  Uiso   1.00
C11    C     0.89045   0.54305   0.39921   0.00000  Uiso   1.00
C12    C     0.95762   0.49065   0.42647   0.00000  Uiso   1.00
C13    C     0.09578   0.43288   0.47021   0.00000  Uiso   1.00
C14    C     0.64690   0.39448   0.38378   0.00000  Uiso   1.00
C15    C     0.65049   0.40199   0.33072   0.00000  Uiso   1.00
C16    C     0.62603   0.33357   0.29864   0.00000  Uiso   1.00
C17    C     0.63419   0.35390   0.25161   0.00000  Uiso   1.00
C18    C     0.57065   0.46863   0.40123   0.00000  Uiso   1.00
C19    C     0.47907   0.45623   0.42845   0.00000  Uiso   1.00
C20    C     0.42002   0.53266   0.44079   0.00000  Uiso   1.00
C21    C     0.75929   0.42095   0.40126   0.00000  Uiso   1.00
C22    C     0.82631   0.36849   0.42850   0.00000  Uiso   1.00
C23    C     0.92607   0.40480   0.44088   0.00000  Uiso   1.00
H24    H     0.72939   0.61897   0.34611   0.00000  Uiso   1.00
H25    H     0.71454   0.57445   0.25823   0.00000  Uiso   1.00
H26    H     0.56761   0.69710   0.38803   0.00000  Uiso   1.00
H27    H     0.91479   0.60937   0.38808   0.00000  Uiso   1.00
H28    H     0.68414   0.48731   0.16714   0.00000  Uiso   1.00
H29    H     0.37435   0.74592   0.44083   0.00000  Uiso   1.00
H30    H     0.10646   0.56093   0.44095   0.00000  Uiso   1.00
H31    H     0.62238   0.32776   0.39498   0.00000  Uiso   1.00
H32    H     0.60166   0.26726   0.30978   0.00000  Uiso   1.00
H33    H     0.45473   0.38991   0.43957   0.00000  Uiso   1.00
H34    H     0.80191   0.30218   0.43962   0.00000  Uiso   1.00
H35    H     0.59253   0.23798   0.20898   0.00000  Uiso   1.00
H36    H     0.28274   0.49659   0.48267   0.00000  Uiso   1.00
H37    H     0.01485   0.31160   0.48278   0.00000  Uiso   1.00
O38    O     0.62660   0.32811   0.13113   0.00000  Uiso   1.00
O39    O     0.22018   0.66739   0.49021   0.00000  Uiso   1.00
O40    O     0.18069   0.42469   0.49036   0.00000  Uiso   1.00
N41    N     0.66545   0.43693   0.18868   0.00000  Uiso   1.00
N42    N     0.37580   0.67871   0.44456   0.00000  Uiso   1.00
N43    N     0.06025   0.50577   0.44468   0.00000  Uiso   1.00
N44    N     0.61615   0.30277   0.21119   0.00000  Uiso   1.00
N45    N     0.32650   0.54455   0.46707   0.00000  Uiso   1.00
N46    N     0.01095   0.37161   0.46719   0.00000  Uiso   1.00
C47    C     0.20729   0.43606   0.16559   0.00000  Uiso   1.00
C48    C     0.18703   0.49936   0.20735   0.00000  Uiso   1.00
C49    C     0.19688   0.47710   0.25404   0.00000  Uiso   1.00
C50    C     0.17477   0.54453   0.28703   0.00000  Uiso   1.00
C51    C     0.14795   0.62964   0.35389   0.00000  Uiso   1.00
C52    C     0.10332   0.43613   0.13689   0.00000  Uiso   1.00
C53    C     0.04278   0.36069   0.12432   0.00000  Uiso   1.00
C54    C     0.95021   0.37491   0.09799   0.00000  Uiso   1.00
C55    C     0.79347   0.36184   0.05543   0.00000  Uiso   1.00
C56    C     0.29260   0.48190   0.13578   0.00000  Uiso   1.00
C57    C     0.39121   0.44494   0.12228   0.00000  Uiso   1.00
C58    C     0.45799   0.49767   0.09501   0.00000  Uiso   1.00
C59    C     0.59515   0.55567   0.05073   0.00000  Uiso   1.00
C60    C     0.15052   0.59542   0.14116   0.00000  Uiso   1.00
C61    C     0.15620   0.58592   0.19408   0.00000  Uiso   1.00
C62    C     0.13407   0.65341   0.22701   0.00000  Uiso   1.00
C63    C     0.14388   0.63125   0.27374   0.00000  Uiso   1.00
C64    C     0.07248   0.52268   0.12362   0.00000  Uiso   1.00
C65    C     0.97998   0.53701   0.09730   0.00000  Uiso   1.00
C66    C     0.91932   0.46162   0.08470   0.00000  Uiso   1.00
C67    C     0.26177   0.56845   0.12251   0.00000  Uiso   1.00
C68    C     0.32841   0.62125   0.09525   0.00000  Uiso   1.00
C69    C     0.42710   0.58439   0.08171   0.00000  Uiso   1.00
H70    H     0.23129   0.36867   0.17591   0.00000  Uiso   1.00
H71    H     0.22073   0.41010   0.26429   0.00000  Uiso   1.00
H72    H     0.06667   0.29372   0.13459   0.00000  Uiso   1.00
H73    H     0.41504   0.37795   0.13255   0.00000  Uiso   1.00
H74    H     0.19539   0.49420   0.35642   0.00000  Uiso   1.00
H75    H     0.87056   0.24880   0.08293   0.00000  Uiso   1.00
H76    H     0.60518   0.42642   0.07862   0.00000  Uiso   1.00
H77    H     0.12652   0.66281   0.13083   0.00000  Uiso   1.00
H78    H     0.11021   0.72039   0.21673   0.00000  Uiso   1.00
H79    H     0.95615   0.60400   0.08703   0.00000  Uiso   1.00
H80    H     0.30452   0.68823   0.08499   0.00000  Uiso   1.00
H81    H     0.10568   0.74603   0.31782   0.00000  Uiso   1.00
H82    H     0.78086   0.50063   0.04433   0.00000  Uiso   1.00
H83    H     0.51548   0.67825   0.04003   0.00000  Uiso   1.00
O84    O     0.14166   0.65267   0.39444   0.00000  Uiso   1.00
O85    O     0.71552   0.33071   0.03563   0.00000  Uiso   1.00
O86    O     0.67932   0.56375   0.02998   0.00000  Uiso   1.00
N87    N     0.17653   0.54557   0.33554   0.00000  Uiso   1.00
N88    N     0.87283   0.31614   0.07986   0.00000  Uiso   1.00
N89    N     0.55963   0.48219   0.07582   0.00000  Uiso   1.00
N90    N     0.12827   0.68108   0.31477   0.00000  Uiso   1.00
N91    N     0.82457   0.45165   0.05908   0.00000  Uiso   1.00
N92    N     0.51136   0.61770   0.05505   0.00000  Uiso   1.00
C93    C     0.31214   0.04524   0.13104   0.00000  Uiso   1.00
C94    C     0.33338   0.98391   0.17214   0.00000  Uiso   1.00
C95    C     0.32398   0.00823   0.21908   0.00000  Uiso   1.00
C96    C     0.34699   0.94238   0.25136   0.00000  Uiso   1.00
C97    C     0.37527   0.86040   0.31734   0.00000  Uiso   1.00
C98    C     0.41574   0.04438   0.10206   0.00000  Uiso   1.00
C99    C     0.47558   0.11956   0.09006   0.00000  Uiso   1.00
C100   C     0.56791   0.10461   0.06334   0.00000  Uiso   1.00
C101   C     0.72401   0.11653   0.02048   0.00000  Uiso   1.00
C102   C     0.22677   0.99763   0.10101   0.00000  Uiso   1.00
C103   C     0.12773   0.03350   0.08812   0.00000  Uiso   1.00
C104   C     0.06098   0.97919   0.06051   0.00000  Uiso   1.00
C105   C     0.92367   0.91852   0.01603   0.00000  Uiso   1.00
C106   C     0.36972   0.88502   0.10491   0.00000  Uiso   1.00
C107   C     0.36466   0.89688   0.15795   0.00000  Uiso   1.00
C108   C     0.38769   0.83097   0.19017   0.00000  Uiso   1.00
C109   C     0.37832   0.85520   0.23714   0.00000  Uiso   1.00
C110   C     0.44702   0.95736   0.08786   0.00000  Uiso   1.00
C111   C     0.53928   0.94230   0.06115   0.00000  Uiso   1.00
C112   C     0.59924   0.01743   0.04912   0.00000  Uiso   1.00
C113   C     0.25805   0.91060   0.08682   0.00000  Uiso   1.00
C114   C     0.19144   0.85624   0.05921   0.00000  Uiso   1.00
C115   C     0.09231   0.89202   0.04629   0.00000  Uiso   1.00
H116   H     0.28780   0.11299   0.14209   0.00000  Uiso   1.00
H117   H     0.29979   0.07559   0.23005   0.00000  Uiso   1.00
H118   H     0.45135   0.18689   0.10105   0.00000  Uiso   1.00
H119   H     0.10356   0.10084   0.09912   0.00000  Uiso   1.00
H120   H     0.32691   0.99576   0.32131   0.00000  Uiso   1.00
H121   H     0.64646   0.23046   0.04929   0.00000  Uiso   1.00
H122   H     0.91308   0.04901   0.04521   0.00000  Uiso   1.00
H123   H     0.39407   0.81727   0.09385   0.00000  Uiso   1.00
H124   H     0.41189   0.76364   0.17917   0.00000  Uiso   1.00
H125   H     0.56345   0.87495   0.05017   0.00000  Uiso   1.00
H126   H     0.21566   0.78890   0.04824   0.00000  Uiso   1.00
H127   H     0.41790   0.74257   0.28002   0.00000  Uiso   1.00
H128   H     0.73746   0.97727   0.00799   0.00000  Uiso   1.00
H129   H     0.00407   0.79582   0.00392   0.00000  Uiso   1.00
O130   O     0.38224   0.83923   0.35766   0.00000  Uiso   1.00
O131   O     0.80147   0.14715   0.00077   0.00000  Uiso   1.00
O132   O     0.83929   0.90909   0.99543   0.00000  Uiso   1.00
N133   N     0.34586   0.94352   0.29989   0.00000  Uiso   1.00
N134   N     0.64463   0.16295   0.04557   0.00000  Uiso   1.00
N135   N     0.95899   0.99332   0.04175   0.00000  Uiso   1.00
N136   N     0.39482   0.80728   0.27766   0.00000  Uiso   1.00
N137   N     0.69359   0.02671   0.02334   0.00000  Uiso   1.00
N138   N     0.00795   0.85708   0.01952   0.00000  Uiso   1.00
C139   C     0.80661   0.94057   0.32867   0.00000  Uiso   1.00
C140   C     0.82625   0.00073   0.28694   0.00000  Uiso   1.00
C141   C     0.81587   0.97491   0.24025   0.00000  Uiso   1.00
C142   C     0.83746   0.03986   0.20730   0.00000  Uiso   1.00
C143   C     0.86331   0.11993   0.14049   0.00000  Uiso   1.00
C144   C     0.91093   0.94293   0.35713   0.00000  Uiso   1.00
C145   C     0.97175   0.86852   0.36945   0.00000  Uiso   1.00
C146   C     0.06462   0.88483   0.39559   0.00000  Uiso   1.00
C147   C     0.22190   0.87517   0.43777   0.00000  Uiso   1.00
C148   C     0.72159   0.98858   0.35873   0.00000  Uiso   1.00
C149   C     0.62320   0.95254   0.37241   0.00000  Uiso   1.00
C150   C     0.55667   0.00728   0.39991   0.00000  Uiso   1.00
C151   C     0.41996   0.06848   0.44458   0.00000  Uiso   1.00
C152   C     0.86340   0.10186   0.35319   0.00000  Uiso   1.00
C153   C     0.85710   0.08833   0.30027   0.00000  Uiso   1.00
C154   C     0.87870   0.15335   0.26738   0.00000  Uiso   1.00
C155   C     0.86836   0.12763   0.22064   0.00000  Uiso   1.00
C156   C     0.94178   0.03053   0.37045   0.00000  Uiso   1.00
C157   C     0.03458   0.04696   0.39658   0.00000  Uiso   1.00
C158   C     0.09552   0.97259   0.40893   0.00000  Uiso   1.00
C159   C     0.75243   0.07619   0.37205   0.00000  Uiso   1.00
C160   C     0.68604   0.13098   0.39954   0.00000  Uiso   1.00
C161   C     0.58757   0.09504   0.41326   0.00000  Uiso   1.00
H162   H     0.78260   0.87237   0.31830   0.00000  Uiso   1.00
H163   H     0.79201   0.90710   0.22996   0.00000  Uiso   1.00
H164   H     0.94785   0.80073   0.35914   0.00000  Uiso   1.00
H165   H     0.59936   0.88474   0.36210   0.00000  Uiso   1.00
H166   H     0.81608   0.98423   0.13788   0.00000  Uiso   1.00
H167   H     0.14466   0.75995   0.41029   0.00000  Uiso   1.00
H168   H     0.40981   0.93710   0.41653   0.00000  Uiso   1.00
H169   H     0.88742   0.17006   0.36356   0.00000  Uiso   1.00
H170   H     0.90257   0.22113   0.27770   0.00000  Uiso   1.00
H171   H     0.05842   0.11476   0.40688   0.00000  Uiso   1.00
H172   H     0.70993   0.19877   0.40984   0.00000  Uiso   1.00
H173   H     0.90582   0.23911   0.17663   0.00000  Uiso   1.00
H174   H     0.23441   0.01482   0.44904   0.00000  Uiso   1.00
H175   H     0.49955   0.19198   0.45528   0.00000  Uiso   1.00
O176   O     0.86906   0.13989   0.09996   0.00000  Uiso   1.00
O177   O     0.30014   0.84563   0.45735   0.00000  Uiso   1.00
O178   O     0.33603   0.07805   0.46554   0.00000  Uiso   1.00
N179   N     0.83510   0.03721   0.15879   0.00000  Uiso   1.00
N180   N     0.14232   0.82752   0.41347   0.00000  Uiso   1.00
N181   N     0.45530   0.99313   0.41931   0.00000  Uiso   1.00
N182   N     0.88339   0.17436   0.17964   0.00000  Uiso   1.00
N183   N     0.19061   0.96467   0.43432   0.00000  Uiso   1.00
N184   N     0.50359   0.13028   0.44016   0.00000  Uiso   1.00
C185   C     0.34522   0.43670   0.66555   0.00000  Uiso   1.00
C186   C     0.36548   0.50000   0.70731   0.00000  Uiso   1.00
C187   C     0.35564   0.47774   0.75400   0.00000  Uiso   1.00
C188   C     0.37776   0.54517   0.78699   0.00000  Uiso   1.00
C189   C     0.40458   0.63028   0.85385   0.00000  Uiso   1.00
C190   C     0.44919   0.43677   0.63683   0.00000  Uiso   1.00
C191   C     0.50972   0.36133   0.62424   0.00000  Uiso   1.00
C192   C     0.60229   0.37554   0.59789   0.00000  Uiso   1.00
C193   C     0.75903   0.36247   0.55528   0.00000  Uiso   1.00
C194   C     0.25990   0.48254   0.63577   0.00000  Uiso   1.00
C195   C     0.16129   0.44558   0.62230   0.00000  Uiso   1.00
C196   C     0.09451   0.49832   0.59504   0.00000  Uiso   1.00
C197   C     0.95735   0.55632   0.55081   0.00000  Uiso   1.00
C198   C     0.40199   0.59606   0.64111   0.00000  Uiso   1.00
C199   C     0.39632   0.58656   0.69404   0.00000  Uiso   1.00
C200   C     0.41845   0.65405   0.72696   0.00000  Uiso   1.00
C201   C     0.40864   0.63189   0.77369   0.00000  Uiso   1.00
C202   C     0.48002   0.52332   0.62355   0.00000  Uiso   1.00
C203   C     0.57252   0.53765   0.59720   0.00000  Uiso   1.00
C204   C     0.63318   0.46226   0.58458   0.00000  Uiso   1.00
C205   C     0.29073   0.56910   0.62250   0.00000  Uiso   1.00
C206   C     0.22410   0.62190   0.59526   0.00000  Uiso   1.00
C207   C     0.12540   0.58504   0.58174   0.00000  Uiso   1.00
H208   H     0.32122   0.36931   0.67589   0.00000  Uiso   1.00
H209   H     0.33179   0.41074   0.76426   0.00000  Uiso   1.00
H210   H     0.48583   0.29436   0.63452   0.00000  Uiso   1.00
H211   H     0.13746   0.37860   0.63258   0.00000  Uiso   1.00
H212   H     0.35714   0.49483   0.85638   0.00000  Uiso   1.00
H213   H     0.68193   0.24943   0.58280   0.00000  Uiso   1.00
H214   H     0.94732   0.42707   0.57870   0.00000  Uiso   1.00
H215   H     0.42599   0.66345   0.63077   0.00000  Uiso   1.00
H216   H     0.44231   0.72102   0.71667   0.00000  Uiso   1.00
H217   H     0.59635   0.60464   0.58693   0.00000  Uiso   1.00
H218   H     0.24798   0.68888   0.58499   0.00000  Uiso   1.00
H219   H     0.44685   0.74667   0.81776   0.00000  Uiso   1.00
H220   H     0.77164   0.50127   0.54418   0.00000  Uiso   1.00
H221   H     0.03702   0.67891   0.54008   0.00000  Uiso   1.00
O222   O     0.41087   0.65331   0.89439   0.00000  Uiso   1.00
O223   O     0.83697   0.33135   0.53546   0.00000  Uiso   1.00
O224   O     0.87317   0.56441   0.53009   0.00000  Uiso   1.00
N225   N     0.37599   0.54621   0.83551   0.00000  Uiso   1.00
N226   N     0.67966   0.31677   0.57973   0.00000  Uiso   1.00
N227   N     0.99287   0.48284   0.57589   0.00000  Uiso   1.00
N228   N     0.42426   0.68172   0.81472   0.00000  Uiso   1.00
N229   N     0.72793   0.45229   0.55895   0.00000  Uiso   1.00
N230   N     0.04114   0.61835   0.55511   0.00000  Uiso   1.00
C231   C     0.84785   0.55292   0.85727   0.00000  Uiso   1.00
C232   C     0.87074   0.48834   0.81630   0.00000  Uiso   1.00
C233   C     0.86255   0.50877   0.76931   0.00000  Uiso   1.00
C234   C     0.88699   0.44039   0.73717   0.00000  Uiso   1.00
C235   C     0.91780   0.35316   0.67136   0.00000  Uiso   1.00
C236   C     0.95059   0.55499   0.88679   0.00000  Uiso   1.00
C237   C     0.00952   0.63147   0.89907   0.00000  Uiso   1.00
C238   C     0.10117   0.61920   0.92627   0.00000  Uiso   1.00
C239   C     0.25590   0.63545   0.96993   0.00000  Uiso   1.00
C240   C     0.76196   0.50733   0.88687   0.00000  Uiso   1.00
C241   C     0.66228   0.54373   0.89923   0.00000  Uiso   1.00
C242   C     0.59512   0.49134   0.92651   0.00000  Uiso   1.00
C243   C     0.45696   0.43358   0.97029   0.00000  Uiso   1.00
C244   C     0.90583   0.39516   0.88374   0.00000  Uiso   1.00
C245   C     0.90224   0.40265   0.83068   0.00000  Uiso   1.00
C246   C     0.92669   0.33422   0.79860   0.00000  Uiso   1.00
C247   C     0.91853   0.35454   0.75157   0.00000  Uiso   1.00
C248   C     0.98209   0.46930   0.90117   0.00000  Uiso   1.00
C249   C     0.07367   0.45692   0.92836   0.00000  Uiso   1.00
C250   C     0.13272   0.53335   0.94068   0.00000  Uiso   1.00
C251   C     0.79344   0.42163   0.90125   0.00000  Uiso   1.00
C252   C     0.72643   0.36918   0.92851   0.00000  Uiso   1.00
C253   C     0.62667   0.40549   0.94091   0.00000  Uiso   1.00
H254   H     0.82334   0.61964   0.84608   0.00000  Uiso   1.00
H255   H     0.83818   0.57509   0.75820   0.00000  Uiso   1.00
H256   H     0.98513   0.69777   0.88794   0.00000  Uiso   1.00
H257   H     0.63794   0.61004   0.88810   0.00000  Uiso   1.00
H258   H     0.86857   0.48793   0.66710   0.00000  Uiso   1.00
H259   H     0.17838   0.74660   0.94069   0.00000  Uiso   1.00
H260   H     0.44627   0.56162   0.94102   0.00000  Uiso   1.00
H261   H     0.93035   0.32844   0.89494   0.00000  Uiso   1.00
H262   H     0.95106   0.26791   0.80973   0.00000  Uiso   1.00
H263   H     0.09801   0.39060   0.93948   0.00000  Uiso   1.00
H264   H     0.75082   0.30287   0.93964   0.00000  Uiso   1.00
H265   H     0.96019   0.23861   0.70893   0.00000  Uiso   1.00
H266   H     0.27000   0.49729   0.98253   0.00000  Uiso   1.00
H267   H     0.53790   0.31230   0.98285   0.00000  Uiso   1.00
O268   O     0.92611   0.32871   0.63109   0.00000  Uiso   1.00
O269   O     0.33256   0.66809   0.99003   0.00000  Uiso   1.00
O270   O     0.37205   0.42539   0.99046   0.00000  Uiso   1.00
N271   N     0.88727   0.43755   0.68864   0.00000  Uiso   1.00
N272   N     0.17694   0.67940   0.94443   0.00000  Uiso   1.00
N273   N     0.49249   0.50646   0.94474   0.00000  Uiso   1.00
N274   N     0.93656   0.30340   0.71115   0.00000  Uiso   1.00
N275   N     0.22624   0.54524   0.96693   0.00000  Uiso   1.00
N276   N     0.54179   0.37231   0.96725   0.00000  Uiso   1.00
C277   C     0.74610   0.94122   0.82870   0.00000  Uiso   1.00
C278   C     0.72646   0.00137   0.78698   0.00000  Uiso   1.00
C279   C     0.73683   0.97555   0.74029   0.00000  Uiso   1.00
C280   C     0.71524   0.04050   0.70734   0.00000  Uiso   1.00
C281   C     0.68938   0.12057   0.64054   0.00000  Uiso   1.00
C282   C     0.64179   0.94358   0.85719   0.00000  Uiso   1.00
C283   C     0.58098   0.86916   0.86953   0.00000  Uiso   1.00
C284   C     0.48811   0.88548   0.89570   0.00000  Uiso   1.00
C285   C     0.33083   0.87581   0.93792   0.00000  Uiso   1.00
C286   C     0.83113   0.98923   0.85874   0.00000  Uiso   1.00
C287   C     0.92952   0.95318   0.87240   0.00000  Uiso   1.00
C288   C     0.99605   0.00792   0.89988   0.00000  Uiso   1.00
C289   C     0.13277   0.06913   0.94451   0.00000  Uiso   1.00
C290   C     0.68931   0.10250   0.85324   0.00000  Uiso   1.00
C291   C     0.69561   0.08897   0.80031   0.00000  Uiso   1.00
C292   C     0.67400   0.15399   0.76743   0.00000  Uiso   1.00
C293   C     0.68434   0.12827   0.72069   0.00000  Uiso   1.00
C294   C     0.61094   0.03118   0.87052   0.00000  Uiso   1.00
C295   C     0.51814   0.04760   0.89668   0.00000  Uiso   1.00
C296   C     0.45720   0.97324   0.90905   0.00000  Uiso   1.00
C297   C     0.80029   0.07683   0.87207   0.00000  Uiso   1.00
C298   C     0.86668   0.13163   0.89954   0.00000  Uiso   1.00
C299   C     0.96515   0.09568   0.91323   0.00000  Uiso   1.00
H300   H     0.77011   0.87301   0.81833   0.00000  Uiso   1.00
H301   H     0.76070   0.90774   0.72999   0.00000  Uiso   1.00
H302   H     0.60487   0.80138   0.85922   0.00000  Uiso   1.00
H303   H     0.95336   0.88539   0.86208   0.00000  Uiso   1.00
H304   H     0.73662   0.98487   0.63792   0.00000  Uiso   1.00
H305   H     0.40807   0.76059   0.91042   0.00000  Uiso   1.00
H306   H     0.14292   0.93775   0.91646   0.00000  Uiso   1.00
H307   H     0.66529   0.17071   0.86361   0.00000  Uiso   1.00
H308   H     0.65013   0.22178   0.77775   0.00000  Uiso   1.00
H309   H     0.49430   0.11541   0.90699   0.00000  Uiso   1.00
H310   H     0.84278   0.19942   0.90985   0.00000  Uiso   1.00
H311   H     0.64687   0.23975   0.67669   0.00000  Uiso   1.00
H312   H     0.31832   0.01547   0.94920   0.00000  Uiso   1.00
H313   H     0.05317   0.19263   0.95523   0.00000  Uiso   1.00
O314   O     0.68362   0.14052   0.60001   0.00000  Uiso   1.00
O315   O     0.25259   0.84628   0.95753   0.00000  Uiso   1.00
O316   O     0.21670   0.07870   0.96544   0.00000  Uiso   1.00
N317   N     0.71760   0.03785   0.65883   0.00000  Uiso   1.00
N318   N     0.41041   0.82817   0.91359   0.00000  Uiso   1.00
N319   N     0.09743   0.99378   0.91925   0.00000  Uiso   1.00
N320   N     0.66931   0.17500   0.67969   0.00000  Uiso   1.00
N321   N     0.36212   0.96531   0.93446   0.00000  Uiso   1.00
N322   N     0.04914   0.13093   0.94011   0.00000  Uiso   1.00
C323   C     0.24036   0.04590   0.63108   0.00000  Uiso   1.00
C324   C     0.21912   0.98456   0.67218   0.00000  Uiso   1.00
C325   C     0.22853   0.00888   0.71912   0.00000  Uiso   1.00
C326   C     0.20552   0.94302   0.75140   0.00000  Uiso   1.00
C327   C     0.17725   0.86102   0.81739   0.00000  Uiso   1.00
C328   C     0.13675   0.04506   0.60212   0.00000  Uiso   1.00
C329   C     0.07692   0.12024   0.59015   0.00000  Uiso   1.00
C330   C     0.98458   0.10530   0.56345   0.00000  Uiso   1.00
C331   C     0.82848   0.11723   0.52064   0.00000  Uiso   1.00
C332   C     0.32572   0.99830   0.60102   0.00000  Uiso   1.00
C333   C     0.42476   0.03418   0.58811   0.00000  Uiso   1.00
C334   C     0.49152   0.97988   0.56048   0.00000  Uiso   1.00
C335   C     0.62882   0.91922   0.51595   0.00000  Uiso   1.00
C336   C     0.18277   0.88570   0.60495   0.00000  Uiso   1.00
C337   C     0.18784   0.89755   0.65799   0.00000  Uiso   1.00
C338   C     0.16482   0.83163   0.69021   0.00000  Uiso   1.00
C339   C     0.17419   0.85584   0.73719   0.00000  Uiso   1.00
C340   C     0.10548   0.95805   0.58793   0.00000  Uiso   1.00
C341   C     0.01321   0.94299   0.56124   0.00000  Uiso   1.00
C342   C     0.95325   0.01813   0.54923   0.00000  Uiso   1.00
C343   C     0.29445   0.91128   0.58683   0.00000  Uiso   1.00
C344   C     0.36106   0.85692   0.55921   0.00000  Uiso   1.00
C345   C     0.46018   0.89271   0.54626   0.00000  Uiso   1.00
H346   H     0.26470   0.11365   0.64212   0.00000  Uiso   1.00
H347   H     0.25272   0.07623   0.73009   0.00000  Uiso   1.00
H348   H     0.10115   0.18757   0.60113   0.00000  Uiso   1.00
H349   H     0.44894   0.10152   0.59910   0.00000  Uiso   1.00
H350   H     0.22561   0.99638   0.82135   0.00000  Uiso   1.00
H351   H     0.90603   0.23115   0.54943   0.00000  Uiso   1.00
H352   H     0.63941   0.04969   0.54514   0.00000  Uiso   1.00
H353   H     0.15842   0.81795   0.59390   0.00000  Uiso   1.00
H354   H     0.14062   0.76429   0.67922   0.00000  Uiso   1.00
H355   H     0.98904   0.87564   0.55026   0.00000  Uiso   1.00
H356   H     0.33683   0.78959   0.54823   0.00000  Uiso   1.00
H357   H     0.13462   0.74320   0.78006   0.00000  Uiso   1.00
H358   H     0.81503   0.97798   0.50814   0.00000  Uiso   1.00
H359   H     0.54842   0.79652   0.50385   0.00000  Uiso   1.00
O360   O     0.17028   0.83984   0.85770   0.00000  Uiso   1.00
O361   O     0.75101   0.14786   0.50095   0.00000  Uiso   1.00
O362   O     0.71320   0.90979   0.49532   0.00000  Uiso   1.00
N363   N     0.20666   0.94415   0.79992   0.00000  Uiso   1.00
N364   N     0.90786   0.16365   0.54570   0.00000  Uiso   1.00
N365   N     0.59350   0.99401   0.54168   0.00000  Uiso   1.00
N366   N     0.15770   0.80791   0.77771   0.00000  Uiso   1.00
N367   N     0.85889   0.02742   0.52349   0.00000  Uiso   1.00
N368   N     0.54454   0.85778   0.51946   0.00000  Uiso   1.00
