data_job_02694
_audit_creation_date              2018-12-19
_audit_creation_method            'Materials Studio'
_symmetry_space_group_name_H-M    'P1'
_symmetry_Int_Tables_number       1
_symmetry_cell_setting            triclinic
loop_
_symmetry_equiv_pos_as_xyz
  x,y,z
_cell_length_a                    22.5974
_cell_length_b                    22.5974
_cell_length_c                    22.9172
_cell_angle_alpha                 90.0000
_cell_angle_beta                  90.0000
_cell_angle_gamma                 120.0000
loop_
_atom_site_label
_atom_site_type_symbol
_atom_site_fract_x
_atom_site_fract_y
_atom_site_fract_z
_atom_site_U_iso_or_equiv
_atom_site_adp_type
_atom_site_occupancy
C1     C     0.73553   0.02571   0.60121   0.00000  Uiso   1.00
C2     C     0.66030   0.99592   0.58569   0.00000  Uiso   1.00
C3     C     0.62062   0.93604   0.55470   0.00000  Uiso   1.00
C4     C     0.55287   0.91749   0.54499   0.00000  Uiso   1.00
C5     C     0.44017   0.86517   0.51774   0.00000  Uiso   1.00
C6     C     0.77230   0.09804   0.57646   0.00000  Uiso   1.00
C7     C     0.82680   0.12403   0.53773   0.00000  Uiso   1.00
C8     C     0.85334   0.19145   0.52026   0.00000  Uiso   1.00
C9     C     0.91456   0.29770   0.47872   0.00000  Uiso   1.00
C10    C     0.73989   0.03358   0.66741   0.00000  Uiso   1.00
C11    C     0.76716   0.00538   0.70514   0.00000  Uiso   1.00
C12    C     0.76642   0.01854   0.76423   0.00000  Uiso   1.00
C13    C     0.77733   0.02470   0.86390   0.00000  Uiso   1.00
C14    C     0.68577   0.09926   0.63906   0.00000  Uiso   1.00
C15    C     0.63327   0.03587   0.60625   0.00000  Uiso   1.00
C16    C     0.56556   0.01740   0.59658   0.00000  Uiso   1.00
C17    C     0.52579   0.95751   0.56559   0.00000  Uiso   1.00
C18    C     0.74528   0.13799   0.59702   0.00000  Uiso   1.00
C19    C     0.77174   0.20539   0.57961   0.00000  Uiso   1.00
C20    C     0.82626   0.23147   0.54085   0.00000  Uiso   1.00
C21    C     0.71286   0.07352   0.68797   0.00000  Uiso   1.00
C22    C     0.71209   0.08674   0.74701   0.00000  Uiso   1.00
C23    C     0.73935   0.05856   0.78483   0.00000  Uiso   1.00
H24    H     0.75658   0.99462   0.58520   0.00000  Uiso   1.00
H25    H     0.64156   0.90514   0.53880   0.00000  Uiso   1.00
H26    H     0.84771   0.09311   0.52183   0.00000  Uiso   1.00
H27    H     0.78807   0.97447   0.68921   0.00000  Uiso   1.00
H28    H     0.50212   0.82357   0.49640   0.00000  Uiso   1.00
H29    H     0.93682   0.21991   0.46064   0.00000  Uiso   1.00
H30    H     0.81106   0.96975   0.81360   0.00000  Uiso   1.00
H31    H     0.66473   0.13036   0.65506   0.00000  Uiso   1.00
H32    H     0.54466   0.04833   0.61249   0.00000  Uiso   1.00
H33    H     0.75081   0.23629   0.59553   0.00000  Uiso   1.00
H34    H     0.69117   0.11766   0.76291   0.00000  Uiso   1.00
H35    H     0.42348   0.93979   0.55621   0.00000  Uiso   1.00
H36    H     0.85818   0.33613   0.52045   0.00000  Uiso   1.00
H37    H     0.73242   0.08596   0.87341   0.00000  Uiso   1.00
O38    O     0.38548   0.82528   0.49702   0.00000  Uiso   1.00
O39    O     0.95579   0.34526   0.45012   0.00000  Uiso   1.00
O40    O     0.79080   0.01705   0.91319   0.00000  Uiso   1.00
N41    N     0.50009   0.86217   0.51632   0.00000  Uiso   1.00
N42    N     0.90650   0.23272   0.48289   0.00000  Uiso   1.00
N43    N     0.78894   0.99885   0.81287   0.00000  Uiso   1.00
N44    N     0.45777   0.92471   0.54851   0.00000  Uiso   1.00
N45    N     0.86418   0.29526   0.51507   0.00000  Uiso   1.00
N46    N     0.74662   0.06139   0.84506   0.00000  Uiso   1.00
C47    C     0.97429   0.70982   0.60121   0.00000  Uiso   1.00
C48    C     0.00408   0.66438   0.58569   0.00000  Uiso   1.00
C49    C     0.06396   0.68458   0.55470   0.00000  Uiso   1.00
C50    C     0.08251   0.63538   0.54499   0.00000  Uiso   1.00
C51    C     0.13483   0.57500   0.51774   0.00000  Uiso   1.00
C52    C     0.90196   0.67426   0.57646   0.00000  Uiso   1.00
C53    C     0.87597   0.70277   0.53773   0.00000  Uiso   1.00
C54    C     0.80855   0.66188   0.52026   0.00000  Uiso   1.00
C55    C     0.70230   0.61686   0.47872   0.00000  Uiso   1.00
C56    C     0.96642   0.70632   0.66741   0.00000  Uiso   1.00
C57    C     0.99462   0.76178   0.70514   0.00000  Uiso   1.00
C58    C     0.98146   0.74788   0.76423   0.00000  Uiso   1.00
C59    C     0.97530   0.75263   0.86390   0.00000  Uiso   1.00
C60    C     0.90074   0.58651   0.63906   0.00000  Uiso   1.00
C61    C     0.96413   0.59741   0.60625   0.00000  Uiso   1.00
C62    C     0.98260   0.54816   0.59658   0.00000  Uiso   1.00
C63    C     0.04249   0.56828   0.56559   0.00000  Uiso   1.00
C64    C     0.86201   0.60729   0.59702   0.00000  Uiso   1.00
C65    C     0.79461   0.56635   0.57961   0.00000  Uiso   1.00
C66    C     0.76853   0.59479   0.54085   0.00000  Uiso   1.00
C67    C     0.92648   0.63934   0.68797   0.00000  Uiso   1.00
C68    C     0.91326   0.62535   0.74701   0.00000  Uiso   1.00
C69    C     0.94144   0.68078   0.78483   0.00000  Uiso   1.00
H70    H     0.00538   0.76196   0.58520   0.00000  Uiso   1.00
H71    H     0.09486   0.73642   0.53880   0.00000  Uiso   1.00
H72    H     0.90689   0.75460   0.52183   0.00000  Uiso   1.00
H73    H     0.02553   0.81360   0.68921   0.00000  Uiso   1.00
H74    H     0.17643   0.67855   0.49640   0.00000  Uiso   1.00
H75    H     0.78009   0.71691   0.46064   0.00000  Uiso   1.00
H76    H     0.03025   0.84132   0.81360   0.00000  Uiso   1.00
H77    H     0.86964   0.53437   0.65506   0.00000  Uiso   1.00
H78    H     0.95167   0.49633   0.61249   0.00000  Uiso   1.00
H79    H     0.76371   0.51452   0.59553   0.00000  Uiso   1.00
H80    H     0.88234   0.57352   0.76291   0.00000  Uiso   1.00
H81    H     0.06021   0.48369   0.55621   0.00000  Uiso   1.00
H82    H     0.66387   0.52205   0.52045   0.00000  Uiso   1.00
H83    H     0.91404   0.64645   0.87341   0.00000  Uiso   1.00
O84    O     0.17472   0.56020   0.49702   0.00000  Uiso   1.00
O85    O     0.65474   0.61053   0.45012   0.00000  Uiso   1.00
O86    O     0.98295   0.77375   0.91319   0.00000  Uiso   1.00
N87    N     0.13783   0.63791   0.51632   0.00000  Uiso   1.00
N88    N     0.76728   0.67377   0.48289   0.00000  Uiso   1.00
N89    N     0.00115   0.79009   0.81287   0.00000  Uiso   1.00
N90    N     0.07529   0.53306   0.54851   0.00000  Uiso   1.00
N91    N     0.70474   0.56892   0.51507   0.00000  Uiso   1.00
N92    N     0.93861   0.68523   0.84506   0.00000  Uiso   1.00
C93    C     0.29018   0.26447   0.60121   0.00000  Uiso   1.00
C94    C     0.33562   0.33970   0.58569   0.00000  Uiso   1.00
C95    C     0.31542   0.37938   0.55470   0.00000  Uiso   1.00
C96    C     0.36462   0.44713   0.54499   0.00000  Uiso   1.00
C97    C     0.42500   0.55983   0.51774   0.00000  Uiso   1.00
C98    C     0.32574   0.22770   0.57646   0.00000  Uiso   1.00
C99    C     0.29723   0.17320   0.53773   0.00000  Uiso   1.00
C100   C     0.33812   0.14666   0.52026   0.00000  Uiso   1.00
C101   C     0.38314   0.08544   0.47872   0.00000  Uiso   1.00
C102   C     0.29368   0.26011   0.66741   0.00000  Uiso   1.00
C103   C     0.23822   0.23284   0.70514   0.00000  Uiso   1.00
C104   C     0.25212   0.23358   0.76423   0.00000  Uiso   1.00
C105   C     0.24737   0.22267   0.86390   0.00000  Uiso   1.00
C106   C     0.41349   0.31423   0.63906   0.00000  Uiso   1.00
C107   C     0.40259   0.36673   0.60625   0.00000  Uiso   1.00
C108   C     0.45184   0.43444   0.59658   0.00000  Uiso   1.00
C109   C     0.43172   0.47421   0.56559   0.00000  Uiso   1.00
C110   C     0.39271   0.25472   0.59702   0.00000  Uiso   1.00
C111   C     0.43365   0.22826   0.57961   0.00000  Uiso   1.00
C112   C     0.40521   0.17374   0.54085   0.00000  Uiso   1.00
C113   C     0.36066   0.28714   0.68797   0.00000  Uiso   1.00
C114   C     0.37465   0.28791   0.74701   0.00000  Uiso   1.00
C115   C     0.31922   0.26065   0.78483   0.00000  Uiso   1.00
H116   H     0.23804   0.24342   0.58520   0.00000  Uiso   1.00
H117   H     0.26358   0.35844   0.53880   0.00000  Uiso   1.00
H118   H     0.24540   0.15229   0.52183   0.00000  Uiso   1.00
H119   H     0.18640   0.21193   0.68921   0.00000  Uiso   1.00
H120   H     0.32145   0.49788   0.49640   0.00000  Uiso   1.00
H121   H     0.28309   0.06318   0.46064   0.00000  Uiso   1.00
H122   H     0.15868   0.18894   0.81360   0.00000  Uiso   1.00
H123   H     0.46563   0.33527   0.65506   0.00000  Uiso   1.00
H124   H     0.50367   0.45534   0.61249   0.00000  Uiso   1.00
H125   H     0.48548   0.24919   0.59553   0.00000  Uiso   1.00
H126   H     0.42648   0.30883   0.76291   0.00000  Uiso   1.00
H127   H     0.51631   0.57652   0.55621   0.00000  Uiso   1.00
H128   H     0.47795   0.14182   0.52045   0.00000  Uiso   1.00
H129   H     0.35355   0.26758   0.87341   0.00000  Uiso   1.00
O130   O     0.43980   0.61452   0.49702   0.00000  Uiso   1.00
O131   O     0.38947   0.04421   0.45012   0.00000  Uiso   1.00
O132   O     0.22625   0.20920   0.91319   0.00000  Uiso   1.00
N133   N     0.36209   0.49991   0.51632   0.00000  Uiso   1.00
N134   N     0.32623   0.09350   0.48289   0.00000  Uiso   1.00
N135   N     0.20991   0.21106   0.81287   0.00000  Uiso   1.00
N136   N     0.46694   0.54223   0.54851   0.00000  Uiso   1.00
N137   N     0.43108   0.13582   0.51507   0.00000  Uiso   1.00
N138   N     0.31477   0.25338   0.84506   0.00000  Uiso   1.00
C139   C     0.26447   0.97429   0.10121   0.00000  Uiso   1.00
C140   C     0.33970   0.00408   0.08569   0.00000  Uiso   1.00
C141   C     0.37938   0.06396   0.05470   0.00000  Uiso   1.00
C142   C     0.44713   0.08251   0.04499   0.00000  Uiso   1.00
C143   C     0.55983   0.13483   0.01774   0.00000  Uiso   1.00
C144   C     0.22770   0.90196   0.07646   0.00000  Uiso   1.00
C145   C     0.17320   0.87597   0.03773   0.00000  Uiso   1.00
C146   C     0.14666   0.80855   0.02026   0.00000  Uiso   1.00
C147   C     0.08544   0.70230   0.97872   0.00000  Uiso   1.00
C148   C     0.26011   0.96642   0.16741   0.00000  Uiso   1.00
C149   C     0.23284   0.99462   0.20514   0.00000  Uiso   1.00
C150   C     0.23358   0.98146   0.26423   0.00000  Uiso   1.00
C151   C     0.22267   0.97530   0.36390   0.00000  Uiso   1.00
C152   C     0.31423   0.90074   0.13906   0.00000  Uiso   1.00
C153   C     0.36673   0.96413   0.10625   0.00000  Uiso   1.00
C154   C     0.43444   0.98260   0.09658   0.00000  Uiso   1.00
C155   C     0.47421   0.04249   0.06559   0.00000  Uiso   1.00
C156   C     0.25472   0.86201   0.09702   0.00000  Uiso   1.00
C157   C     0.22826   0.79461   0.07961   0.00000  Uiso   1.00
C158   C     0.17374   0.76853   0.04085   0.00000  Uiso   1.00
C159   C     0.28714   0.92648   0.18797   0.00000  Uiso   1.00
C160   C     0.28791   0.91326   0.24701   0.00000  Uiso   1.00
C161   C     0.26065   0.94144   0.28483   0.00000  Uiso   1.00
H162   H     0.24342   0.00538   0.08520   0.00000  Uiso   1.00
H163   H     0.35844   0.09486   0.03880   0.00000  Uiso   1.00
H164   H     0.15229   0.90689   0.02183   0.00000  Uiso   1.00
H165   H     0.21193   0.02553   0.18921   0.00000  Uiso   1.00
H166   H     0.49788   0.17643   0.99640   0.00000  Uiso   1.00
H167   H     0.06318   0.78009   0.96064   0.00000  Uiso   1.00
H168   H     0.18894   0.03025   0.31360   0.00000  Uiso   1.00
H169   H     0.33527   0.86964   0.15506   0.00000  Uiso   1.00
H170   H     0.45534   0.95167   0.11249   0.00000  Uiso   1.00
H171   H     0.24919   0.76371   0.09553   0.00000  Uiso   1.00
H172   H     0.30883   0.88234   0.26291   0.00000  Uiso   1.00
H173   H     0.57652   0.06021   0.05621   0.00000  Uiso   1.00
H174   H     0.14182   0.66387   0.02045   0.00000  Uiso   1.00
H175   H     0.26758   0.91404   0.37341   0.00000  Uiso   1.00
O176   O     0.61452   0.17472   0.99702   0.00000  Uiso   1.00
O177   O     0.04421   0.65474   0.95012   0.00000  Uiso   1.00
O178   O     0.20920   0.98295   0.41319   0.00000  Uiso   1.00
N179   N     0.49991   0.13783   0.01632   0.00000  Uiso   1.00
N180   N     0.09350   0.76728   0.98289   0.00000  Uiso   1.00
N181   N     0.21106   0.00115   0.31287   0.00000  Uiso   1.00
N182   N     0.54223   0.07529   0.04851   0.00000  Uiso   1.00
N183   N     0.13582   0.70474   0.01507   0.00000  Uiso   1.00
N184   N     0.25338   0.93861   0.34506   0.00000  Uiso   1.00
C185   C     0.02571   0.29018   0.10121   0.00000  Uiso   1.00
C186   C     0.99592   0.33562   0.08569   0.00000  Uiso   1.00
C187   C     0.93604   0.31542   0.05470   0.00000  Uiso   1.00
C188   C     0.91749   0.36462   0.04499   0.00000  Uiso   1.00
C189   C     0.86517   0.42500   0.01774   0.00000  Uiso   1.00
C190   C     0.09804   0.32574   0.07646   0.00000  Uiso   1.00
C191   C     0.12403   0.29723   0.03773   0.00000  Uiso   1.00
C192   C     0.19145   0.33812   0.02026   0.00000  Uiso   1.00
C193   C     0.29770   0.38314   0.97872   0.00000  Uiso   1.00
C194   C     0.03358   0.29368   0.16741   0.00000  Uiso   1.00
C195   C     0.00538   0.23822   0.20514   0.00000  Uiso   1.00
C196   C     0.01854   0.25212   0.26423   0.00000  Uiso   1.00
C197   C     0.02470   0.24737   0.36390   0.00000  Uiso   1.00
C198   C     0.09926   0.41349   0.13906   0.00000  Uiso   1.00
C199   C     0.03587   0.40259   0.10625   0.00000  Uiso   1.00
C200   C     0.01740   0.45184   0.09658   0.00000  Uiso   1.00
C201   C     0.95751   0.43172   0.06559   0.00000  Uiso   1.00
C202   C     0.13799   0.39271   0.09702   0.00000  Uiso   1.00
C203   C     0.20539   0.43365   0.07961   0.00000  Uiso   1.00
C204   C     0.23147   0.40521   0.04085   0.00000  Uiso   1.00
C205   C     0.07352   0.36066   0.18797   0.00000  Uiso   1.00
C206   C     0.08674   0.37465   0.24701   0.00000  Uiso   1.00
C207   C     0.05856   0.31922   0.28483   0.00000  Uiso   1.00
H208   H     0.99462   0.23804   0.08520   0.00000  Uiso   1.00
H209   H     0.90514   0.26358   0.03880   0.00000  Uiso   1.00
H210   H     0.09311   0.24540   0.02183   0.00000  Uiso   1.00
H211   H     0.97447   0.18640   0.18921   0.00000  Uiso   1.00
H212   H     0.82357   0.32145   0.99640   0.00000  Uiso   1.00
H213   H     0.21991   0.28309   0.96064   0.00000  Uiso   1.00
H214   H     0.96975   0.15868   0.31360   0.00000  Uiso   1.00
H215   H     0.13036   0.46563   0.15506   0.00000  Uiso   1.00
H216   H     0.04833   0.50367   0.11249   0.00000  Uiso   1.00
H217   H     0.23629   0.48548   0.09553   0.00000  Uiso   1.00
H218   H     0.11766   0.42648   0.26291   0.00000  Uiso   1.00
H219   H     0.93979   0.51631   0.05621   0.00000  Uiso   1.00
H220   H     0.33613   0.47795   0.02045   0.00000  Uiso   1.00
H221   H     0.08596   0.35355   0.37341   0.00000  Uiso   1.00
O222   O     0.82528   0.43980   0.99702   0.00000  Uiso   1.00
O223   O     0.34526   0.38947   0.95012   0.00000  Uiso   1.00
O224   O     0.01705   0.22625   0.41319   0.00000  Uiso   1.00
N225   N     0.86217   0.36209   0.01632   0.00000  Uiso   1.00
N226   N     0.23272   0.32623   0.98289   0.00000  Uiso   1.00
N227   N     0.99885   0.20991   0.31287   0.00000  Uiso   1.00
N228   N     0.92471   0.46694   0.04851   0.00000  Uiso   1.00
N229   N     0.29526   0.43108   0.01507   0.00000  Uiso   1.00
N230   N     0.06139   0.31477   0.34506   0.00000  Uiso   1.00
C231   C     0.70982   0.73553   0.10121   0.00000  Uiso   1.00
C232   C     0.66438   0.66030   0.08569   0.00000  Uiso   1.00
C233   C     0.68458   0.62062   0.05470   0.00000  Uiso   1.00
C234   C     0.63538   0.55287   0.04499   0.00000  Uiso   1.00
C235   C     0.57500   0.44017   0.01774   0.00000  Uiso   1.00
C236   C     0.67426   0.77230   0.07646   0.00000  Uiso   1.00
C237   C     0.70277   0.82680   0.03773   0.00000  Uiso   1.00
C238   C     0.66188   0.85334   0.02026   0.00000  Uiso   1.00
C239   C     0.61686   0.91456   0.97872   0.00000  Uiso   1.00
C240   C     0.70632   0.73989   0.16741   0.00000  Uiso   1.00
C241   C     0.76178   0.76716   0.20514   0.00000  Uiso   1.00
C242   C     0.74788   0.76642   0.26423   0.00000  Uiso   1.00
C243   C     0.75263   0.77733   0.36390   0.00000  Uiso   1.00
C244   C     0.58651   0.68577   0.13906   0.00000  Uiso   1.00
C245   C     0.59741   0.63327   0.10625   0.00000  Uiso   1.00
C246   C     0.54816   0.56556   0.09658   0.00000  Uiso   1.00
C247   C     0.56828   0.52579   0.06559   0.00000  Uiso   1.00
C248   C     0.60729   0.74528   0.09702   0.00000  Uiso   1.00
C249   C     0.56635   0.77174   0.07961   0.00000  Uiso   1.00
C250   C     0.59479   0.82626   0.04085   0.00000  Uiso   1.00
C251   C     0.63934   0.71286   0.18797   0.00000  Uiso   1.00
C252   C     0.62535   0.71209   0.24701   0.00000  Uiso   1.00
C253   C     0.68078   0.73935   0.28483   0.00000  Uiso   1.00
H254   H     0.76196   0.75658   0.08520   0.00000  Uiso   1.00
H255   H     0.73642   0.64156   0.03880   0.00000  Uiso   1.00
H256   H     0.75460   0.84771   0.02183   0.00000  Uiso   1.00
H257   H     0.81360   0.78807   0.18921   0.00000  Uiso   1.00
H258   H     0.67855   0.50212   0.99640   0.00000  Uiso   1.00
H259   H     0.71691   0.93682   0.96064   0.00000  Uiso   1.00
H260   H     0.84132   0.81106   0.31360   0.00000  Uiso   1.00
H261   H     0.53437   0.66473   0.15506   0.00000  Uiso   1.00
H262   H     0.49633   0.54466   0.11249   0.00000  Uiso   1.00
H263   H     0.51452   0.75081   0.09553   0.00000  Uiso   1.00
H264   H     0.57352   0.69117   0.26291   0.00000  Uiso   1.00
H265   H     0.48369   0.42348   0.05621   0.00000  Uiso   1.00
H266   H     0.52205   0.85818   0.02045   0.00000  Uiso   1.00
H267   H     0.64645   0.73242   0.37341   0.00000  Uiso   1.00
O268   O     0.56020   0.38548   0.99702   0.00000  Uiso   1.00
O269   O     0.61053   0.95579   0.95012   0.00000  Uiso   1.00
O270   O     0.77375   0.79080   0.41319   0.00000  Uiso   1.00
N271   N     0.63791   0.50009   0.01632   0.00000  Uiso   1.00
N272   N     0.67377   0.90650   0.98289   0.00000  Uiso   1.00
N273   N     0.79009   0.78894   0.31287   0.00000  Uiso   1.00
N274   N     0.53306   0.45777   0.04851   0.00000  Uiso   1.00
N275   N     0.56892   0.86418   0.01507   0.00000  Uiso   1.00
N276   N     0.68523   0.74662   0.34506   0.00000  Uiso   1.00
C277   C     0.02571   0.73553   0.39879   0.00000  Uiso   1.00
C278   C     0.99592   0.66030   0.41431   0.00000  Uiso   1.00
C279   C     0.93604   0.62062   0.44530   0.00000  Uiso   1.00
C280   C     0.91749   0.55287   0.45501   0.00000  Uiso   1.00
C281   C     0.86517   0.44017   0.48226   0.00000  Uiso   1.00
C282   C     0.09804   0.77230   0.42354   0.00000  Uiso   1.00
C283   C     0.12403   0.82680   0.46227   0.00000  Uiso   1.00
C284   C     0.19145   0.85334   0.47974   0.00000  Uiso   1.00
C285   C     0.29770   0.91456   0.52128   0.00000  Uiso   1.00
C286   C     0.03358   0.73989   0.33259   0.00000  Uiso   1.00
C287   C     0.00538   0.76716   0.29486   0.00000  Uiso   1.00
C288   C     0.01854   0.76642   0.23577   0.00000  Uiso   1.00
C289   C     0.02470   0.77733   0.13610   0.00000  Uiso   1.00
C290   C     0.09926   0.68577   0.36094   0.00000  Uiso   1.00
C291   C     0.03587   0.63327   0.39375   0.00000  Uiso   1.00
C292   C     0.01740   0.56556   0.40342   0.00000  Uiso   1.00
C293   C     0.95751   0.52579   0.43441   0.00000  Uiso   1.00
C294   C     0.13799   0.74528   0.40298   0.00000  Uiso   1.00
C295   C     0.20539   0.77174   0.42039   0.00000  Uiso   1.00
C296   C     0.23147   0.82626   0.45915   0.00000  Uiso   1.00
C297   C     0.07352   0.71286   0.31203   0.00000  Uiso   1.00
C298   C     0.08674   0.71209   0.25299   0.00000  Uiso   1.00
C299   C     0.05856   0.73935   0.21517   0.00000  Uiso   1.00
H300   H     0.99462   0.75658   0.41480   0.00000  Uiso   1.00
H301   H     0.90514   0.64156   0.46120   0.00000  Uiso   1.00
H302   H     0.09311   0.84771   0.47817   0.00000  Uiso   1.00
H303   H     0.97447   0.78807   0.31079   0.00000  Uiso   1.00
H304   H     0.82357   0.50212   0.50360   0.00000  Uiso   1.00
H305   H     0.21991   0.93682   0.53936   0.00000  Uiso   1.00
H306   H     0.96975   0.81106   0.18640   0.00000  Uiso   1.00
H307   H     0.13036   0.66473   0.34494   0.00000  Uiso   1.00
H308   H     0.04833   0.54466   0.38751   0.00000  Uiso   1.00
H309   H     0.23629   0.75081   0.40447   0.00000  Uiso   1.00
H310   H     0.11766   0.69117   0.23709   0.00000  Uiso   1.00
H311   H     0.93979   0.42348   0.44379   0.00000  Uiso   1.00
H312   H     0.33613   0.85818   0.47955   0.00000  Uiso   1.00
H313   H     0.08596   0.73242   0.12659   0.00000  Uiso   1.00
O314   O     0.82528   0.38548   0.50298   0.00000  Uiso   1.00
O315   O     0.34526   0.95579   0.54988   0.00000  Uiso   1.00
O316   O     0.01705   0.79080   0.08681   0.00000  Uiso   1.00
N317   N     0.86217   0.50009   0.48368   0.00000  Uiso   1.00
N318   N     0.23272   0.90650   0.51711   0.00000  Uiso   1.00
N319   N     0.99885   0.78894   0.18713   0.00000  Uiso   1.00
N320   N     0.92471   0.45777   0.45149   0.00000  Uiso   1.00
N321   N     0.29526   0.86418   0.48493   0.00000  Uiso   1.00
N322   N     0.06139   0.74662   0.15494   0.00000  Uiso   1.00
C323   C     0.70982   0.97429   0.39879   0.00000  Uiso   1.00
C324   C     0.66438   0.00408   0.41431   0.00000  Uiso   1.00
C325   C     0.68458   0.06396   0.44530   0.00000  Uiso   1.00
C326   C     0.63538   0.08251   0.45501   0.00000  Uiso   1.00
C327   C     0.57500   0.13483   0.48226   0.00000  Uiso   1.00
C328   C     0.67426   0.90196   0.42354   0.00000  Uiso   1.00
C329   C     0.70277   0.87597   0.46227   0.00000  Uiso   1.00
C330   C     0.66188   0.80855   0.47974   0.00000  Uiso   1.00
C331   C     0.61686   0.70230   0.52128   0.00000  Uiso   1.00
C332   C     0.70632   0.96642   0.33259   0.00000  Uiso   1.00
C333   C     0.76178   0.99462   0.29486   0.00000  Uiso   1.00
C334   C     0.74788   0.98146   0.23577   0.00000  Uiso   1.00
C335   C     0.75263   0.97530   0.13610   0.00000  Uiso   1.00
C336   C     0.58651   0.90074   0.36094   0.00000  Uiso   1.00
C337   C     0.59741   0.96413   0.39375   0.00000  Uiso   1.00
C338   C     0.54816   0.98260   0.40342   0.00000  Uiso   1.00
C339   C     0.56828   0.04249   0.43441   0.00000  Uiso   1.00
C340   C     0.60729   0.86201   0.40298   0.00000  Uiso   1.00
C341   C     0.56635   0.79461   0.42039   0.00000  Uiso   1.00
C342   C     0.59479   0.76853   0.45915   0.00000  Uiso   1.00
C343   C     0.63934   0.92648   0.31203   0.00000  Uiso   1.00
C344   C     0.62535   0.91326   0.25299   0.00000  Uiso   1.00
C345   C     0.68078   0.94144   0.21517   0.00000  Uiso   1.00
H346   H     0.76196   0.00538   0.41480   0.00000  Uiso   1.00
H347   H     0.73642   0.09486   0.46120   0.00000  Uiso   1.00
H348   H     0.75460   0.90689   0.47817   0.00000  Uiso   1.00
H349   H     0.81360   0.02553   0.31079   0.00000  Uiso   1.00
H350   H     0.67855   0.17643   0.50360   0.00000  Uiso   1.00
H351   H     0.71691   0.78009   0.53936   0.00000  Uiso   1.00
H352   H     0.84132   0.03025   0.18640   0.00000  Uiso   1.00
H353   H     0.53437   0.86964   0.34494   0.00000  Uiso   1.00
H354   H     0.49633   0.95167   0.38751   0.00000  Uiso   1.00
H355   H     0.51452   0.76371   0.40447   0.00000  Uiso   1.00
H356   H     0.57352   0.88234   0.23709   0.00000  Uiso   1.00
H357   H     0.48369   0.06021   0.44379   0.00000  Uiso   1.00
H358   H     0.52205   0.66387   0.47955   0.00000  Uiso   1.00
H359   H     0.64645   0.91404   0.12659   0.00000  Uiso   1.00
O360   O     0.56020   0.17472   0.50298   0.00000  Uiso   1.00
O361   O     0.61053   0.65474   0.54988   0.00000  Uiso   1.00
O362   O     0.77375   0.98295   0.08681   0.00000  Uiso   1.00
N363   N     0.63791   0.13783   0.48368   0.00000  Uiso   1.00
N364   N     0.67377   0.76728   0.51711   0.00000  Uiso   1.00
N365   N     0.79009   0.00115   0.18713   0.00000  Uiso   1.00
N366   N     0.53306   0.07529   0.45149   0.00000  Uiso   1.00
N367   N     0.56892   0.70474   0.48493   0.00000  Uiso   1.00
N368   N     0.68523   0.93861   0.15494   0.00000  Uiso   1.00
C369   C     0.26447   0.29018   0.39879   0.00000  Uiso   1.00
C370   C     0.33970   0.33562   0.41431   0.00000  Uiso   1.00
C371   C     0.37938   0.31542   0.44530   0.00000  Uiso   1.00
C372   C     0.44713   0.36462   0.45501   0.00000  Uiso   1.00
C373   C     0.55983   0.42500   0.48226   0.00000  Uiso   1.00
C374   C     0.22770   0.32574   0.42354   0.00000  Uiso   1.00
C375   C     0.17320   0.29723   0.46227   0.00000  Uiso   1.00
C376   C     0.14666   0.33812   0.47974   0.00000  Uiso   1.00
C377   C     0.08544   0.38314   0.52128   0.00000  Uiso   1.00
C378   C     0.26011   0.29368   0.33259   0.00000  Uiso   1.00
C379   C     0.23284   0.23822   0.29486   0.00000  Uiso   1.00
C380   C     0.23358   0.25212   0.23577   0.00000  Uiso   1.00
C381   C     0.22267   0.24737   0.13610   0.00000  Uiso   1.00
C382   C     0.31423   0.41349   0.36094   0.00000  Uiso   1.00
C383   C     0.36673   0.40259   0.39375   0.00000  Uiso   1.00
C384   C     0.43444   0.45184   0.40342   0.00000  Uiso   1.00
C385   C     0.47421   0.43172   0.43441   0.00000  Uiso   1.00
C386   C     0.25472   0.39271   0.40298   0.00000  Uiso   1.00
C387   C     0.22826   0.43365   0.42039   0.00000  Uiso   1.00
C388   C     0.17374   0.40521   0.45915   0.00000  Uiso   1.00
C389   C     0.28714   0.36066   0.31203   0.00000  Uiso   1.00
C390   C     0.28791   0.37465   0.25299   0.00000  Uiso   1.00
C391   C     0.26065   0.31922   0.21517   0.00000  Uiso   1.00
H392   H     0.24342   0.23804   0.41480   0.00000  Uiso   1.00
H393   H     0.35844   0.26358   0.46120   0.00000  Uiso   1.00
H394   H     0.15229   0.24540   0.47817   0.00000  Uiso   1.00
H395   H     0.21193   0.18640   0.31079   0.00000  Uiso   1.00
H396   H     0.49788   0.32145   0.50360   0.00000  Uiso   1.00
H397   H     0.06318   0.28309   0.53936   0.00000  Uiso   1.00
H398   H     0.18894   0.15868   0.18640   0.00000  Uiso   1.00
H399   H     0.33527   0.46563   0.34494   0.00000  Uiso   1.00
H400   H     0.45534   0.50367   0.38751   0.00000  Uiso   1.00
H401   H     0.24919   0.48548   0.40447   0.00000  Uiso   1.00
H402   H     0.30883   0.42648   0.23709   0.00000  Uiso   1.00
H403   H     0.57652   0.51631   0.44379   0.00000  Uiso   1.00
H404   H     0.14182   0.47795   0.47955   0.00000  Uiso   1.00
H405   H     0.26758   0.35355   0.12659   0.00000  Uiso   1.00
O406   O     0.61452   0.43980   0.50298   0.00000  Uiso   1.00
O407   O     0.04421   0.38947   0.54988   0.00000  Uiso   1.00
O408   O     0.20920   0.22625   0.08681   0.00000  Uiso   1.00
N409   N     0.49991   0.36209   0.48368   0.00000  Uiso   1.00
N410   N     0.09350   0.32623   0.51711   0.00000  Uiso   1.00
N411   N     0.21106   0.20991   0.18713   0.00000  Uiso   1.00
N412   N     0.54223   0.46694   0.45149   0.00000  Uiso   1.00
N413   N     0.13582   0.43108   0.48493   0.00000  Uiso   1.00
N414   N     0.25338   0.31477   0.15494   0.00000  Uiso   1.00
C415   C     0.97429   0.26447   0.89879   0.00000  Uiso   1.00
C416   C     0.00408   0.33970   0.91431   0.00000  Uiso   1.00
C417   C     0.06396   0.37938   0.94530   0.00000  Uiso   1.00
C418   C     0.08251   0.44713   0.95501   0.00000  Uiso   1.00
C419   C     0.13483   0.55983   0.98226   0.00000  Uiso   1.00
C420   C     0.90196   0.22770   0.92354   0.00000  Uiso   1.00
C421   C     0.87597   0.17320   0.96227   0.00000  Uiso   1.00
C422   C     0.80855   0.14666   0.97974   0.00000  Uiso   1.00
C423   C     0.70230   0.08544   0.02128   0.00000  Uiso   1.00
C424   C     0.96642   0.26011   0.83259   0.00000  Uiso   1.00
C425   C     0.99462   0.23284   0.79486   0.00000  Uiso   1.00
C426   C     0.98146   0.23358   0.73577   0.00000  Uiso   1.00
C427   C     0.97530   0.22267   0.63610   0.00000  Uiso   1.00
C428   C     0.90074   0.31423   0.86094   0.00000  Uiso   1.00
C429   C     0.96413   0.36673   0.89375   0.00000  Uiso   1.00
C430   C     0.98260   0.43444   0.90342   0.00000  Uiso   1.00
C431   C     0.04249   0.47421   0.93441   0.00000  Uiso   1.00
C432   C     0.86201   0.25472   0.90298   0.00000  Uiso   1.00
C433   C     0.79461   0.22826   0.92039   0.00000  Uiso   1.00
C434   C     0.76853   0.17374   0.95915   0.00000  Uiso   1.00
C435   C     0.92648   0.28714   0.81203   0.00000  Uiso   1.00
C436   C     0.91326   0.28791   0.75299   0.00000  Uiso   1.00
C437   C     0.94144   0.26065   0.71517   0.00000  Uiso   1.00
H438   H     0.00538   0.24342   0.91480   0.00000  Uiso   1.00
H439   H     0.09486   0.35844   0.96120   0.00000  Uiso   1.00
H440   H     0.90689   0.15229   0.97817   0.00000  Uiso   1.00
H441   H     0.02553   0.21193   0.81079   0.00000  Uiso   1.00
H442   H     0.17643   0.49788   0.00360   0.00000  Uiso   1.00
H443   H     0.78009   0.06318   0.03936   0.00000  Uiso   1.00
H444   H     0.03025   0.18894   0.68640   0.00000  Uiso   1.00
H445   H     0.86964   0.33527   0.84494   0.00000  Uiso   1.00
H446   H     0.95167   0.45534   0.88751   0.00000  Uiso   1.00
H447   H     0.76371   0.24919   0.90447   0.00000  Uiso   1.00
H448   H     0.88234   0.30883   0.73709   0.00000  Uiso   1.00
H449   H     0.06021   0.57652   0.94379   0.00000  Uiso   1.00
H450   H     0.66387   0.14182   0.97955   0.00000  Uiso   1.00
H451   H     0.91404   0.26758   0.62659   0.00000  Uiso   1.00
O452   O     0.17472   0.61452   0.00298   0.00000  Uiso   1.00
O453   O     0.65474   0.04421   0.04988   0.00000  Uiso   1.00
O454   O     0.98295   0.20920   0.58681   0.00000  Uiso   1.00
N455   N     0.13783   0.49991   0.98368   0.00000  Uiso   1.00
N456   N     0.76728   0.09350   0.01711   0.00000  Uiso   1.00
N457   N     0.00115   0.21106   0.68713   0.00000  Uiso   1.00
N458   N     0.07529   0.54223   0.95149   0.00000  Uiso   1.00
N459   N     0.70474   0.13582   0.98493   0.00000  Uiso   1.00
N460   N     0.93861   0.25338   0.65494   0.00000  Uiso   1.00
C461   C     0.29018   0.02571   0.89879   0.00000  Uiso   1.00
C462   C     0.33562   0.99592   0.91431   0.00000  Uiso   1.00
C463   C     0.31542   0.93604   0.94530   0.00000  Uiso   1.00
C464   C     0.36462   0.91749   0.95501   0.00000  Uiso   1.00
C465   C     0.42500   0.86517   0.98226   0.00000  Uiso   1.00
C466   C     0.32574   0.09804   0.92354   0.00000  Uiso   1.00
C467   C     0.29723   0.12403   0.96227   0.00000  Uiso   1.00
C468   C     0.33812   0.19145   0.97974   0.00000  Uiso   1.00
C469   C     0.38314   0.29770   0.02128   0.00000  Uiso   1.00
C470   C     0.29368   0.03358   0.83259   0.00000  Uiso   1.00
C471   C     0.23822   0.00538   0.79486   0.00000  Uiso   1.00
C472   C     0.25212   0.01854   0.73577   0.00000  Uiso   1.00
C473   C     0.24737   0.02470   0.63610   0.00000  Uiso   1.00
C474   C     0.41349   0.09926   0.86094   0.00000  Uiso   1.00
C475   C     0.40259   0.03587   0.89375   0.00000  Uiso   1.00
C476   C     0.45184   0.01740   0.90342   0.00000  Uiso   1.00
C477   C     0.43172   0.95751   0.93441   0.00000  Uiso   1.00
C478   C     0.39271   0.13799   0.90298   0.00000  Uiso   1.00
C479   C     0.43365   0.20539   0.92039   0.00000  Uiso   1.00
C480   C     0.40521   0.23147   0.95915   0.00000  Uiso   1.00
C481   C     0.36066   0.07352   0.81203   0.00000  Uiso   1.00
C482   C     0.37465   0.08674   0.75299   0.00000  Uiso   1.00
C483   C     0.31922   0.05856   0.71517   0.00000  Uiso   1.00
H484   H     0.23804   0.99462   0.91480   0.00000  Uiso   1.00
H485   H     0.26358   0.90514   0.96120   0.00000  Uiso   1.00
H486   H     0.24540   0.09311   0.97817   0.00000  Uiso   1.00
H487   H     0.18640   0.97447   0.81079   0.00000  Uiso   1.00
H488   H     0.32145   0.82357   0.00360   0.00000  Uiso   1.00
H489   H     0.28309   0.21991   0.03936   0.00000  Uiso   1.00
H490   H     0.15868   0.96975   0.68640   0.00000  Uiso   1.00
H491   H     0.46563   0.13036   0.84494   0.00000  Uiso   1.00
H492   H     0.50367   0.04833   0.88751   0.00000  Uiso   1.00
H493   H     0.48548   0.23629   0.90447   0.00000  Uiso   1.00
H494   H     0.42648   0.11766   0.73709   0.00000  Uiso   1.00
H495   H     0.51631   0.93979   0.94379   0.00000  Uiso   1.00
H496   H     0.47795   0.33613   0.97955   0.00000  Uiso   1.00
H497   H     0.35355   0.08596   0.62659   0.00000  Uiso   1.00
O498   O     0.43980   0.82528   0.00298   0.00000  Uiso   1.00
O499   O     0.38947   0.34526   0.04988   0.00000  Uiso   1.00
O500   O     0.22625   0.01705   0.58681   0.00000  Uiso   1.00
N501   N     0.36209   0.86217   0.98368   0.00000  Uiso   1.00
N502   N     0.32623   0.23272   0.01711   0.00000  Uiso   1.00
N503   N     0.20991   0.99885   0.68713   0.00000  Uiso   1.00
N504   N     0.46694   0.92471   0.95149   0.00000  Uiso   1.00
N505   N     0.43108   0.29526   0.98493   0.00000  Uiso   1.00
N506   N     0.31477   0.06139   0.65494   0.00000  Uiso   1.00
C507   C     0.73553   0.70982   0.89879   0.00000  Uiso   1.00
C508   C     0.66030   0.66438   0.91431   0.00000  Uiso   1.00
C509   C     0.62062   0.68458   0.94530   0.00000  Uiso   1.00
C510   C     0.55287   0.63538   0.95501   0.00000  Uiso   1.00
C511   C     0.44017   0.57500   0.98226   0.00000  Uiso   1.00
C512   C     0.77230   0.67426   0.92354   0.00000  Uiso   1.00
C513   C     0.82680   0.70277   0.96227   0.00000  Uiso   1.00
C514   C     0.85334   0.66188   0.97974   0.00000  Uiso   1.00
C515   C     0.91456   0.61686   0.02128   0.00000  Uiso   1.00
C516   C     0.73989   0.70632   0.83259   0.00000  Uiso   1.00
C517   C     0.76716   0.76178   0.79486   0.00000  Uiso   1.00
C518   C     0.76642   0.74788   0.73577   0.00000  Uiso   1.00
C519   C     0.77733   0.75263   0.63610   0.00000  Uiso   1.00
C520   C     0.68577   0.58651   0.86094   0.00000  Uiso   1.00
C521   C     0.63327   0.59741   0.89375   0.00000  Uiso   1.00
C522   C     0.56556   0.54816   0.90342   0.00000  Uiso   1.00
C523   C     0.52579   0.56828   0.93441   0.00000  Uiso   1.00
C524   C     0.74528   0.60729   0.90298   0.00000  Uiso   1.00
C525   C     0.77174   0.56635   0.92039   0.00000  Uiso   1.00
C526   C     0.82626   0.59479   0.95915   0.00000  Uiso   1.00
C527   C     0.71286   0.63934   0.81203   0.00000  Uiso   1.00
C528   C     0.71209   0.62535   0.75299   0.00000  Uiso   1.00
C529   C     0.73935   0.68078   0.71517   0.00000  Uiso   1.00
H530   H     0.75658   0.76196   0.91480   0.00000  Uiso   1.00
H531   H     0.64156   0.73642   0.96120   0.00000  Uiso   1.00
H532   H     0.84771   0.75460   0.97817   0.00000  Uiso   1.00
H533   H     0.78807   0.81360   0.81079   0.00000  Uiso   1.00
H534   H     0.50212   0.67855   0.00360   0.00000  Uiso   1.00
H535   H     0.93682   0.71691   0.03936   0.00000  Uiso   1.00
H536   H     0.81106   0.84132   0.68640   0.00000  Uiso   1.00
H537   H     0.66473   0.53437   0.84494   0.00000  Uiso   1.00
H538   H     0.54466   0.49633   0.88751   0.00000  Uiso   1.00
H539   H     0.75081   0.51452   0.90447   0.00000  Uiso   1.00
H540   H     0.69117   0.57352   0.73709   0.00000  Uiso   1.00
H541   H     0.42348   0.48369   0.94379   0.00000  Uiso   1.00
H542   H     0.85818   0.52205   0.97955   0.00000  Uiso   1.00
H543   H     0.73242   0.64645   0.62659   0.00000  Uiso   1.00
O544   O     0.38548   0.56020   0.00298   0.00000  Uiso   1.00
O545   O     0.95579   0.61053   0.04988   0.00000  Uiso   1.00
O546   O     0.79080   0.77375   0.58681   0.00000  Uiso   1.00
N547   N     0.50009   0.63791   0.98368   0.00000  Uiso   1.00
N548   N     0.90650   0.67377   0.01711   0.00000  Uiso   1.00
N549   N     0.78894   0.79009   0.68713   0.00000  Uiso   1.00
N550   N     0.45777   0.53306   0.95149   0.00000  Uiso   1.00
N551   N     0.86418   0.56892   0.98493   0.00000  Uiso   1.00
N552   N     0.74662   0.68523   0.65494   0.00000  Uiso   1.00
