data_job_00486
_audit_creation_date              2018-12-19
_audit_creation_method            'Materials Studio'
_symmetry_space_group_name_H-M    'P1'
_symmetry_Int_Tables_number       1
_symmetry_cell_setting            triclinic
loop_
_symmetry_equiv_pos_as_xyz
  x,y,z
_cell_length_a                    20.4436
_cell_length_b                    14.1961
_cell_length_c                    10.6309
_cell_angle_alpha                 90.0000
_cell_angle_beta                  118.9680
_cell_angle_gamma                 90.0000
loop_
_atom_site_label
_atom_site_type_symbol
_atom_site_fract_x
_atom_site_fract_y
_atom_site_fract_z
_atom_site_U_iso_or_equiv
_atom_site_adp_type
_atom_site_occupancy
C1     C     0.69776   0.83970   0.29897   0.00000  Uiso   1.00
C2     C     0.70378   0.78534   0.18127   0.00000  Uiso   1.00
C3     C     0.73778   0.69824   0.19742   0.00000  Uiso   1.00
C4     C     0.73744   0.66025   0.07676   0.00000  Uiso   1.00
C5     C     0.75188   0.56865   0.91411   0.00000  Uiso   1.00
C6     C     0.73304   0.93574   0.30730   0.00000  Uiso   1.00
C7     C     0.79163   0.97511   0.42942   0.00000  Uiso   1.00
C8     C     0.81592   0.06373   0.41485   0.00000  Uiso   1.00
C9     C     0.87574   0.20566   0.44788   0.00000  Uiso   1.00
C10    C     0.61461   0.85791   0.24181   0.00000  Uiso   1.00
C11    C     0.57362   0.83185   0.30888   0.00000  Uiso   1.00
C12    C     0.49819   0.85497   0.23920   0.00000  Uiso   1.00
C13    C     0.37412   0.87605   0.17055   0.00000  Uiso   1.00
C14    C     0.63669   0.92711   0.05597   0.00000  Uiso   1.00
C15    C     0.67061   0.83282   0.04929   0.00000  Uiso   1.00
C16    C     0.67022   0.79495   0.92857   0.00000  Uiso   1.00
C17    C     0.70421   0.70781   0.94454   0.00000  Uiso   1.00
C18    C     0.69987   0.98322   0.17532   0.00000  Uiso   1.00
C19    C     0.72407   0.07181   0.16057   0.00000  Uiso   1.00
C20    C     0.78269   0.11130   0.28263   0.00000  Uiso   1.00
C21    C     0.58143   0.90539   0.10983   0.00000  Uiso   1.00
C22    C     0.50606   0.92856   0.04003   0.00000  Uiso   1.00
C23    C     0.46496   0.90253   0.10698   0.00000  Uiso   1.00
H24    H     0.72358   0.80274   0.40173   0.00000  Uiso   1.00
H25    H     0.76345   0.66153   0.29958   0.00000  Uiso   1.00
H26    H     0.81729   0.93835   0.53154   0.00000  Uiso   1.00
H27    H     0.59931   0.79511   0.41102   0.00000  Uiso   1.00
H28    H     0.79305   0.52592   0.12814   0.00000  Uiso   1.00
H29    H     0.90655   0.10963   0.61726   0.00000  Uiso   1.00
H30    H     0.44689   0.80759   0.36312   0.00000  Uiso   1.00
H31    H     0.61087   0.96407   0.95321   0.00000  Uiso   1.00
H32    H     0.64455   0.83171   0.82645   0.00000  Uiso   1.00
H33    H     0.69839   0.10854   0.05842   0.00000  Uiso   1.00
H34    H     0.48041   0.96530   0.93790   0.00000  Uiso   1.00
H35    H     0.69655   0.66405   0.74413   0.00000  Uiso   1.00
H36    H     0.81004   0.24777   0.23326   0.00000  Uiso   1.00
H37    H     0.35039   0.94572   0.97911   0.00000  Uiso   1.00
O38    O     0.76901   0.50501   0.86085   0.00000  Uiso   1.00
O39    O     0.91790   0.27083   0.50256   0.00000  Uiso   1.00
O40    O     0.31485   0.87455   0.16914   0.00000  Uiso   1.00
N41    N     0.76570   0.57658   0.05515   0.00000  Uiso   1.00
N42    N     0.87182   0.12232   0.51244   0.00000  Uiso   1.00
N43    N     0.44209   0.83996   0.27486   0.00000  Uiso   1.00
N44    N     0.71378   0.65091   0.84852   0.00000  Uiso   1.00
N45    N     0.81990   0.19664   0.30581   0.00000  Uiso   1.00
N46    N     0.39016   0.91428   0.06823   0.00000  Uiso   1.00
C47    C     0.19776   0.33970   0.29897   0.00000  Uiso   1.00
C48    C     0.20378   0.28534   0.18127   0.00000  Uiso   1.00
C49    C     0.23778   0.19824   0.19742   0.00000  Uiso   1.00
C50    C     0.23744   0.16025   0.07676   0.00000  Uiso   1.00
C51    C     0.25188   0.06865   0.91411   0.00000  Uiso   1.00
C52    C     0.23304   0.43574   0.30730   0.00000  Uiso   1.00
C53    C     0.29163   0.47511   0.42942   0.00000  Uiso   1.00
C54    C     0.31592   0.56373   0.41485   0.00000  Uiso   1.00
C55    C     0.37574   0.70566   0.44788   0.00000  Uiso   1.00
C56    C     0.11461   0.35791   0.24181   0.00000  Uiso   1.00
C57    C     0.07362   0.33185   0.30888   0.00000  Uiso   1.00
C58    C     0.99819   0.35497   0.23920   0.00000  Uiso   1.00
C59    C     0.87412   0.37605   0.17055   0.00000  Uiso   1.00
C60    C     0.13669   0.42711   0.05597   0.00000  Uiso   1.00
C61    C     0.17061   0.33282   0.04929   0.00000  Uiso   1.00
C62    C     0.17022   0.29495   0.92857   0.00000  Uiso   1.00
C63    C     0.20421   0.20781   0.94454   0.00000  Uiso   1.00
C64    C     0.19987   0.48322   0.17532   0.00000  Uiso   1.00
C65    C     0.22407   0.57181   0.16057   0.00000  Uiso   1.00
C66    C     0.28269   0.61130   0.28263   0.00000  Uiso   1.00
C67    C     0.08143   0.40539   0.10983   0.00000  Uiso   1.00
C68    C     0.00606   0.42856   0.04003   0.00000  Uiso   1.00
C69    C     0.96496   0.40253   0.10698   0.00000  Uiso   1.00
H70    H     0.22358   0.30274   0.40173   0.00000  Uiso   1.00
H71    H     0.26345   0.16153   0.29958   0.00000  Uiso   1.00
H72    H     0.31729   0.43835   0.53154   0.00000  Uiso   1.00
H73    H     0.09931   0.29511   0.41102   0.00000  Uiso   1.00
H74    H     0.29305   0.02592   0.12814   0.00000  Uiso   1.00
H75    H     0.40655   0.60963   0.61726   0.00000  Uiso   1.00
H76    H     0.94689   0.30759   0.36312   0.00000  Uiso   1.00
H77    H     0.11087   0.46407   0.95321   0.00000  Uiso   1.00
H78    H     0.14455   0.33171   0.82645   0.00000  Uiso   1.00
H79    H     0.19839   0.60854   0.05842   0.00000  Uiso   1.00
H80    H     0.98041   0.46530   0.93790   0.00000  Uiso   1.00
H81    H     0.19655   0.16405   0.74413   0.00000  Uiso   1.00
H82    H     0.31004   0.74777   0.23326   0.00000  Uiso   1.00
H83    H     0.85039   0.44572   0.97911   0.00000  Uiso   1.00
O84    O     0.26901   0.00501   0.86085   0.00000  Uiso   1.00
O85    O     0.41790   0.77083   0.50256   0.00000  Uiso   1.00
O86    O     0.81485   0.37455   0.16914   0.00000  Uiso   1.00
N87    N     0.26570   0.07658   0.05515   0.00000  Uiso   1.00
N88    N     0.37182   0.62232   0.51244   0.00000  Uiso   1.00
N89    N     0.94209   0.33996   0.27486   0.00000  Uiso   1.00
N90    N     0.21378   0.15091   0.84852   0.00000  Uiso   1.00
N91    N     0.31990   0.69664   0.30581   0.00000  Uiso   1.00
N92    N     0.89016   0.41428   0.06823   0.00000  Uiso   1.00
C93    C     0.69776   0.16030   0.79897   0.00000  Uiso   1.00
C94    C     0.70378   0.21466   0.68127   0.00000  Uiso   1.00
C95    C     0.73778   0.30176   0.69742   0.00000  Uiso   1.00
C96    C     0.73744   0.33975   0.57676   0.00000  Uiso   1.00
C97    C     0.75188   0.43135   0.41411   0.00000  Uiso   1.00
C98    C     0.73304   0.06426   0.80730   0.00000  Uiso   1.00
C99    C     0.79163   0.02489   0.92942   0.00000  Uiso   1.00
C100   C     0.81592   0.93627   0.91485   0.00000  Uiso   1.00
C101   C     0.87574   0.79434   0.94788   0.00000  Uiso   1.00
C102   C     0.61461   0.14209   0.74181   0.00000  Uiso   1.00
C103   C     0.57362   0.16815   0.80888   0.00000  Uiso   1.00
C104   C     0.49819   0.14503   0.73920   0.00000  Uiso   1.00
C105   C     0.37412   0.12395   0.67055   0.00000  Uiso   1.00
C106   C     0.63669   0.07289   0.55597   0.00000  Uiso   1.00
C107   C     0.67061   0.16718   0.54929   0.00000  Uiso   1.00
C108   C     0.67022   0.20505   0.42857   0.00000  Uiso   1.00
C109   C     0.70421   0.29219   0.44454   0.00000  Uiso   1.00
C110   C     0.69987   0.01678   0.67532   0.00000  Uiso   1.00
C111   C     0.72407   0.92819   0.66057   0.00000  Uiso   1.00
C112   C     0.78269   0.88870   0.78263   0.00000  Uiso   1.00
C113   C     0.58143   0.09461   0.60983   0.00000  Uiso   1.00
C114   C     0.50606   0.07144   0.54003   0.00000  Uiso   1.00
C115   C     0.46496   0.09747   0.60698   0.00000  Uiso   1.00
H116   H     0.72358   0.19726   0.90173   0.00000  Uiso   1.00
H117   H     0.76345   0.33847   0.79958   0.00000  Uiso   1.00
H118   H     0.81729   0.06165   0.03154   0.00000  Uiso   1.00
H119   H     0.59931   0.20489   0.91102   0.00000  Uiso   1.00
H120   H     0.79305   0.47408   0.62814   0.00000  Uiso   1.00
H121   H     0.90655   0.89037   0.11726   0.00000  Uiso   1.00
H122   H     0.44689   0.19241   0.86312   0.00000  Uiso   1.00
H123   H     0.61087   0.03593   0.45321   0.00000  Uiso   1.00
H124   H     0.64455   0.16829   0.32645   0.00000  Uiso   1.00
H125   H     0.69839   0.89146   0.55842   0.00000  Uiso   1.00
H126   H     0.48041   0.03470   0.43790   0.00000  Uiso   1.00
H127   H     0.69655   0.33595   0.24413   0.00000  Uiso   1.00
H128   H     0.81004   0.75223   0.73326   0.00000  Uiso   1.00
H129   H     0.35039   0.05428   0.47911   0.00000  Uiso   1.00
O130   O     0.76901   0.49499   0.36085   0.00000  Uiso   1.00
O131   O     0.91790   0.72917   0.00256   0.00000  Uiso   1.00
O132   O     0.31485   0.12545   0.66914   0.00000  Uiso   1.00
N133   N     0.76570   0.42342   0.55515   0.00000  Uiso   1.00
N134   N     0.87182   0.87768   0.01244   0.00000  Uiso   1.00
N135   N     0.44209   0.16004   0.77486   0.00000  Uiso   1.00
N136   N     0.71378   0.34909   0.34852   0.00000  Uiso   1.00
N137   N     0.81990   0.80336   0.80581   0.00000  Uiso   1.00
N138   N     0.39016   0.08572   0.56823   0.00000  Uiso   1.00
C139   C     0.19776   0.66030   0.79897   0.00000  Uiso   1.00
C140   C     0.20378   0.71466   0.68127   0.00000  Uiso   1.00
C141   C     0.23778   0.80176   0.69742   0.00000  Uiso   1.00
C142   C     0.23744   0.83975   0.57676   0.00000  Uiso   1.00
C143   C     0.25188   0.93135   0.41411   0.00000  Uiso   1.00
C144   C     0.23304   0.56426   0.80730   0.00000  Uiso   1.00
C145   C     0.29163   0.52489   0.92942   0.00000  Uiso   1.00
C146   C     0.31592   0.43627   0.91485   0.00000  Uiso   1.00
C147   C     0.37574   0.29434   0.94788   0.00000  Uiso   1.00
C148   C     0.11461   0.64209   0.74181   0.00000  Uiso   1.00
C149   C     0.07362   0.66815   0.80888   0.00000  Uiso   1.00
C150   C     0.99819   0.64503   0.73920   0.00000  Uiso   1.00
C151   C     0.87412   0.62395   0.67055   0.00000  Uiso   1.00
C152   C     0.13669   0.57289   0.55597   0.00000  Uiso   1.00
C153   C     0.17061   0.66718   0.54929   0.00000  Uiso   1.00
C154   C     0.17022   0.70505   0.42857   0.00000  Uiso   1.00
C155   C     0.20421   0.79219   0.44454   0.00000  Uiso   1.00
C156   C     0.19987   0.51678   0.67532   0.00000  Uiso   1.00
C157   C     0.22407   0.42819   0.66057   0.00000  Uiso   1.00
C158   C     0.28269   0.38870   0.78263   0.00000  Uiso   1.00
C159   C     0.08143   0.59461   0.60983   0.00000  Uiso   1.00
C160   C     0.00606   0.57144   0.54003   0.00000  Uiso   1.00
C161   C     0.96496   0.59747   0.60698   0.00000  Uiso   1.00
H162   H     0.22358   0.69726   0.90173   0.00000  Uiso   1.00
H163   H     0.26345   0.83847   0.79958   0.00000  Uiso   1.00
H164   H     0.31729   0.56165   0.03154   0.00000  Uiso   1.00
H165   H     0.09931   0.70489   0.91102   0.00000  Uiso   1.00
H166   H     0.29305   0.97408   0.62814   0.00000  Uiso   1.00
H167   H     0.40655   0.39037   0.11726   0.00000  Uiso   1.00
H168   H     0.94689   0.69241   0.86312   0.00000  Uiso   1.00
H169   H     0.11087   0.53593   0.45321   0.00000  Uiso   1.00
H170   H     0.14455   0.66829   0.32645   0.00000  Uiso   1.00
H171   H     0.19839   0.39146   0.55842   0.00000  Uiso   1.00
H172   H     0.98041   0.53470   0.43790   0.00000  Uiso   1.00
H173   H     0.19655   0.83595   0.24413   0.00000  Uiso   1.00
H174   H     0.31004   0.25223   0.73326   0.00000  Uiso   1.00
H175   H     0.85039   0.55428   0.47911   0.00000  Uiso   1.00
O176   O     0.26901   0.99499   0.36085   0.00000  Uiso   1.00
O177   O     0.41790   0.22917   0.00256   0.00000  Uiso   1.00
O178   O     0.81485   0.62545   0.66914   0.00000  Uiso   1.00
N179   N     0.26570   0.92342   0.55515   0.00000  Uiso   1.00
N180   N     0.37182   0.37768   0.01244   0.00000  Uiso   1.00
N181   N     0.94209   0.66004   0.77486   0.00000  Uiso   1.00
N182   N     0.21378   0.84909   0.34852   0.00000  Uiso   1.00
N183   N     0.31990   0.30336   0.80581   0.00000  Uiso   1.00
N184   N     0.89016   0.58572   0.56823   0.00000  Uiso   1.00
