data_job_04078
_audit_creation_date              2018-12-19
_audit_creation_method            'Materials Studio'
_symmetry_space_group_name_H-M    'P1'
_symmetry_Int_Tables_number       1
_symmetry_cell_setting            triclinic
loop_
_symmetry_equiv_pos_as_xyz
  x,y,z
_cell_length_a                    23.4990
_cell_length_b                    23.4990
_cell_length_c                    12.6969
_cell_angle_alpha                 90.0000
_cell_angle_beta                  90.0000
_cell_angle_gamma                 120.0000
loop_
_atom_site_label
_atom_site_type_symbol
_atom_site_fract_x
_atom_site_fract_y
_atom_site_fract_z
_atom_site_U_iso_or_equiv
_atom_site_adp_type
_atom_site_occupancy
C1     C     0.10740   0.30772   0.30260   0.00000  Uiso   1.00
C2     C     0.17040   0.33677   0.23773   0.00000  Uiso   1.00
C3     C     0.23173   0.35107   0.27469   0.00000  Uiso   1.00
C4     C     0.28320   0.37743   0.20293   0.00000  Uiso   1.00
C5     C     0.38249   0.42079   0.11818   0.00000  Uiso   1.00
C6     C     0.08184   0.35569   0.29237   0.00000  Uiso   1.00
C7     C     0.06870   0.38590   0.37526   0.00000  Uiso   1.00
C8     C     0.04562   0.42819   0.34949   0.00000  Uiso   1.00
C9     C     0.00737   0.50090   0.34957   0.00000  Uiso   1.00
C10    C     0.05787   0.24537   0.24533   0.00000  Uiso   1.00
C11    C     0.02455   0.18281   0.28869   0.00000  Uiso   1.00
C12    C     0.98127   0.13220   0.22332   0.00000  Uiso   1.00
C13    C     0.90580   0.03361   0.15037   0.00000  Uiso   1.00
C14    C     0.08975   0.32910   0.10944   0.00000  Uiso   1.00
C15    C     0.16081   0.34838   0.13282   0.00000  Uiso   1.00
C16    C     0.21220   0.37472   0.06098   0.00000  Uiso   1.00
C17    C     0.27360   0.38906   0.09783   0.00000  Uiso   1.00
C18    C     0.07225   0.36731   0.18746   0.00000  Uiso   1.00
C19    C     0.04918   0.40955   0.16156   0.00000  Uiso   1.00
C20    C     0.03601   0.43982   0.24439   0.00000  Uiso   1.00
C21    C     0.04828   0.25697   0.14041   0.00000  Uiso   1.00
C22    C     0.00503   0.20646   0.07497   0.00000  Uiso   1.00
C23    C     0.97167   0.14384   0.11822   0.00000  Uiso   1.00
H24    H     0.11486   0.29869   0.38428   0.00000  Uiso   1.00
H25    H     0.23913   0.34209   0.35589   0.00000  Uiso   1.00
H26    H     0.07612   0.37690   0.45645   0.00000  Uiso   1.00
H27    H     0.03199   0.17384   0.36988   0.00000  Uiso   1.00
H28    H     0.37268   0.39534   0.27816   0.00000  Uiso   1.00
H29    H     0.02895   0.46874   0.49018   0.00000  Uiso   1.00
H30    H     0.93588   0.04055   0.30764   0.00000  Uiso   1.00
H31    H     0.08228   0.33814   0.02776   0.00000  Uiso   1.00
H32    H     0.20477   0.38370   0.97980   0.00000  Uiso   1.00
H33    H     0.04176   0.41852   0.08036   0.00000  Uiso   1.00
H34    H     0.99762   0.21546   0.99379   0.00000  Uiso   1.00
H35    H     0.34480   0.42912   0.97291   0.00000  Uiso   1.00
H36    H     0.00106   0.50252   0.18494   0.00000  Uiso   1.00
H37    H     0.90799   0.07433   0.00239   0.00000  Uiso   1.00
O38    O     0.43991   0.44151   0.10042   0.00000  Uiso   1.00
O39    O     0.98893   0.53780   0.37860   0.00000  Uiso   1.00
O40    O     0.86683   0.97602   0.13911   0.00000  Uiso   1.00
N41    N     0.34931   0.39703   0.21289   0.00000  Uiso   1.00
N42    N     0.02795   0.46566   0.41113   0.00000  Uiso   1.00
N43    N     0.94092   0.06534   0.24047   0.00000  Uiso   1.00
N44    N     0.33430   0.41520   0.04864   0.00000  Uiso   1.00
N45    N     0.01294   0.48384   0.24687   0.00000  Uiso   1.00
N46    N     0.92591   0.08351   0.07622   0.00000  Uiso   1.00
C47    C     0.69228   0.79968   0.30260   0.00000  Uiso   1.00
C48    C     0.66323   0.83363   0.23773   0.00000  Uiso   1.00
C49    C     0.64893   0.88066   0.27469   0.00000  Uiso   1.00
C50    C     0.62257   0.90577   0.20293   0.00000  Uiso   1.00
C51    C     0.57921   0.96170   0.11818   0.00000  Uiso   1.00
C52    C     0.64431   0.72614   0.29237   0.00000  Uiso   1.00
C53    C     0.61410   0.68280   0.37526   0.00000  Uiso   1.00
C54    C     0.57181   0.61743   0.34949   0.00000  Uiso   1.00
C55    C     0.49910   0.50647   0.34957   0.00000  Uiso   1.00
C56    C     0.75463   0.81250   0.24533   0.00000  Uiso   1.00
C57    C     0.81719   0.84175   0.28869   0.00000  Uiso   1.00
C58    C     0.86780   0.84907   0.22332   0.00000  Uiso   1.00
C59    C     0.96639   0.87219   0.15037   0.00000  Uiso   1.00
C60    C     0.67090   0.76065   0.10944   0.00000  Uiso   1.00
C61    C     0.65162   0.81243   0.13282   0.00000  Uiso   1.00
C62    C     0.62528   0.83748   0.06098   0.00000  Uiso   1.00
C63    C     0.61094   0.88454   0.09783   0.00000  Uiso   1.00
C64    C     0.63269   0.70495   0.18746   0.00000  Uiso   1.00
C65    C     0.59045   0.63962   0.16156   0.00000  Uiso   1.00
C66    C     0.56018   0.59619   0.24439   0.00000  Uiso   1.00
C67    C     0.74303   0.79130   0.14041   0.00000  Uiso   1.00
C68    C     0.79354   0.79857   0.07497   0.00000  Uiso   1.00
C69    C     0.85616   0.82783   0.11822   0.00000  Uiso   1.00
H70    H     0.70131   0.81617   0.38428   0.00000  Uiso   1.00
H71    H     0.65791   0.89705   0.35589   0.00000  Uiso   1.00
H72    H     0.62310   0.69922   0.45645   0.00000  Uiso   1.00
H73    H     0.82616   0.85814   0.36988   0.00000  Uiso   1.00
H74    H     0.60466   0.97734   0.27816   0.00000  Uiso   1.00
H75    H     0.53126   0.56021   0.49018   0.00000  Uiso   1.00
H76    H     0.95945   0.89533   0.30764   0.00000  Uiso   1.00
H77    H     0.66186   0.74414   0.02776   0.00000  Uiso   1.00
H78    H     0.61630   0.82107   0.97980   0.00000  Uiso   1.00
H79    H     0.58148   0.62324   0.08036   0.00000  Uiso   1.00
H80    H     0.78454   0.78216   0.99379   0.00000  Uiso   1.00
H81    H     0.57088   0.91567   0.97291   0.00000  Uiso   1.00
H82    H     0.49748   0.49854   0.18494   0.00000  Uiso   1.00
H83    H     0.92567   0.83366   0.00239   0.00000  Uiso   1.00
O84    O     0.55849   0.99839   0.10042   0.00000  Uiso   1.00
O85    O     0.46220   0.45113   0.37860   0.00000  Uiso   1.00
O86    O     0.02398   0.89081   0.13911   0.00000  Uiso   1.00
N87    N     0.60297   0.95228   0.21289   0.00000  Uiso   1.00
N88    N     0.53434   0.56229   0.41113   0.00000  Uiso   1.00
N89    N     0.93466   0.87558   0.24047   0.00000  Uiso   1.00
N90    N     0.58480   0.91910   0.04864   0.00000  Uiso   1.00
N91    N     0.51616   0.52910   0.24687   0.00000  Uiso   1.00
N92    N     0.91649   0.84240   0.07622   0.00000  Uiso   1.00
C93    C     0.20032   0.89260   0.30260   0.00000  Uiso   1.00
C94    C     0.16637   0.82960   0.23773   0.00000  Uiso   1.00
C95    C     0.11934   0.76827   0.27469   0.00000  Uiso   1.00
C96    C     0.09423   0.71680   0.20293   0.00000  Uiso   1.00
C97    C     0.03830   0.61751   0.11818   0.00000  Uiso   1.00
C98    C     0.27386   0.91816   0.29237   0.00000  Uiso   1.00
C99    C     0.31720   0.93130   0.37526   0.00000  Uiso   1.00
C100   C     0.38257   0.95438   0.34949   0.00000  Uiso   1.00
C101   C     0.49353   0.99263   0.34957   0.00000  Uiso   1.00
C102   C     0.18750   0.94213   0.24533   0.00000  Uiso   1.00
C103   C     0.15825   0.97545   0.28869   0.00000  Uiso   1.00
C104   C     0.15093   0.01873   0.22332   0.00000  Uiso   1.00
C105   C     0.12781   0.09420   0.15037   0.00000  Uiso   1.00
C106   C     0.23935   0.91025   0.10944   0.00000  Uiso   1.00
C107   C     0.18757   0.83919   0.13282   0.00000  Uiso   1.00
C108   C     0.16252   0.78780   0.06098   0.00000  Uiso   1.00
C109   C     0.11546   0.72640   0.09783   0.00000  Uiso   1.00
C110   C     0.29505   0.92775   0.18746   0.00000  Uiso   1.00
C111   C     0.36038   0.95082   0.16156   0.00000  Uiso   1.00
C112   C     0.40381   0.96399   0.24439   0.00000  Uiso   1.00
C113   C     0.20870   0.95172   0.14041   0.00000  Uiso   1.00
C114   C     0.20143   0.99497   0.07497   0.00000  Uiso   1.00
C115   C     0.17217   0.02833   0.11822   0.00000  Uiso   1.00
H116   H     0.18383   0.88514   0.38428   0.00000  Uiso   1.00
H117   H     0.10295   0.76087   0.35589   0.00000  Uiso   1.00
H118   H     0.30078   0.92388   0.45645   0.00000  Uiso   1.00
H119   H     0.14186   0.96801   0.36988   0.00000  Uiso   1.00
H120   H     0.02266   0.62732   0.27816   0.00000  Uiso   1.00
H121   H     0.43979   0.97105   0.49018   0.00000  Uiso   1.00
H122   H     0.10467   0.06412   0.30764   0.00000  Uiso   1.00
H123   H     0.25586   0.91772   0.02776   0.00000  Uiso   1.00
H124   H     0.17893   0.79523   0.97980   0.00000  Uiso   1.00
H125   H     0.37676   0.95824   0.08036   0.00000  Uiso   1.00
H126   H     0.21784   0.00238   0.99379   0.00000  Uiso   1.00
H127   H     0.08433   0.65520   0.97291   0.00000  Uiso   1.00
H128   H     0.50146   0.99894   0.18494   0.00000  Uiso   1.00
H129   H     0.16634   0.09201   0.00239   0.00000  Uiso   1.00
O130   O     0.00161   0.56009   0.10042   0.00000  Uiso   1.00
O131   O     0.54887   0.01107   0.37860   0.00000  Uiso   1.00
O132   O     0.10919   0.13317   0.13911   0.00000  Uiso   1.00
N133   N     0.04772   0.65069   0.21289   0.00000  Uiso   1.00
N134   N     0.43771   0.97205   0.41113   0.00000  Uiso   1.00
N135   N     0.12442   0.05908   0.24047   0.00000  Uiso   1.00
N136   N     0.08090   0.66570   0.04864   0.00000  Uiso   1.00
N137   N     0.47090   0.98706   0.24687   0.00000  Uiso   1.00
N138   N     0.15760   0.07409   0.07622   0.00000  Uiso   1.00
C139   C     0.89260   0.69228   0.69740   0.00000  Uiso   1.00
C140   C     0.82960   0.66323   0.76227   0.00000  Uiso   1.00
C141   C     0.76827   0.64893   0.72531   0.00000  Uiso   1.00
C142   C     0.71680   0.62257   0.79707   0.00000  Uiso   1.00
C143   C     0.61751   0.57921   0.88182   0.00000  Uiso   1.00
C144   C     0.91816   0.64431   0.70763   0.00000  Uiso   1.00
C145   C     0.93130   0.61410   0.62474   0.00000  Uiso   1.00
C146   C     0.95438   0.57181   0.65051   0.00000  Uiso   1.00
C147   C     0.99263   0.49910   0.65043   0.00000  Uiso   1.00
C148   C     0.94213   0.75463   0.75467   0.00000  Uiso   1.00
C149   C     0.97545   0.81719   0.71131   0.00000  Uiso   1.00
C150   C     0.01873   0.86780   0.77668   0.00000  Uiso   1.00
C151   C     0.09420   0.96639   0.84963   0.00000  Uiso   1.00
C152   C     0.91025   0.67090   0.89056   0.00000  Uiso   1.00
C153   C     0.83919   0.65162   0.86718   0.00000  Uiso   1.00
C154   C     0.78780   0.62528   0.93902   0.00000  Uiso   1.00
C155   C     0.72640   0.61094   0.90217   0.00000  Uiso   1.00
C156   C     0.92775   0.63269   0.81254   0.00000  Uiso   1.00
C157   C     0.95082   0.59045   0.83844   0.00000  Uiso   1.00
C158   C     0.96399   0.56018   0.75561   0.00000  Uiso   1.00
C159   C     0.95172   0.74303   0.85959   0.00000  Uiso   1.00
C160   C     0.99497   0.79354   0.92503   0.00000  Uiso   1.00
C161   C     0.02833   0.85616   0.88178   0.00000  Uiso   1.00
H162   H     0.88514   0.70131   0.61572   0.00000  Uiso   1.00
H163   H     0.76087   0.65791   0.64411   0.00000  Uiso   1.00
H164   H     0.92388   0.62310   0.54355   0.00000  Uiso   1.00
H165   H     0.96801   0.82616   0.63012   0.00000  Uiso   1.00
H166   H     0.62732   0.60466   0.72184   0.00000  Uiso   1.00
H167   H     0.97105   0.53126   0.50982   0.00000  Uiso   1.00
H168   H     0.06412   0.95945   0.69236   0.00000  Uiso   1.00
H169   H     0.91772   0.66186   0.97224   0.00000  Uiso   1.00
H170   H     0.79523   0.61630   0.02020   0.00000  Uiso   1.00
H171   H     0.95824   0.58148   0.91964   0.00000  Uiso   1.00
H172   H     0.00238   0.78454   0.00621   0.00000  Uiso   1.00
H173   H     0.65520   0.57088   0.02709   0.00000  Uiso   1.00
H174   H     0.99894   0.49748   0.81506   0.00000  Uiso   1.00
H175   H     0.09201   0.92567   0.99761   0.00000  Uiso   1.00
O176   O     0.56009   0.55849   0.89958   0.00000  Uiso   1.00
O177   O     0.01107   0.46220   0.62140   0.00000  Uiso   1.00
O178   O     0.13317   0.02398   0.86089   0.00000  Uiso   1.00
N179   N     0.65069   0.60297   0.78711   0.00000  Uiso   1.00
N180   N     0.97205   0.53434   0.58887   0.00000  Uiso   1.00
N181   N     0.05908   0.93466   0.75953   0.00000  Uiso   1.00
N182   N     0.66570   0.58480   0.95136   0.00000  Uiso   1.00
N183   N     0.98706   0.51616   0.75313   0.00000  Uiso   1.00
N184   N     0.07409   0.91649   0.92378   0.00000  Uiso   1.00
C185   C     0.30772   0.20032   0.69740   0.00000  Uiso   1.00
C186   C     0.33677   0.16637   0.76227   0.00000  Uiso   1.00
C187   C     0.35107   0.11934   0.72531   0.00000  Uiso   1.00
C188   C     0.37743   0.09423   0.79707   0.00000  Uiso   1.00
C189   C     0.42079   0.03830   0.88182   0.00000  Uiso   1.00
C190   C     0.35569   0.27386   0.70763   0.00000  Uiso   1.00
C191   C     0.38590   0.31720   0.62474   0.00000  Uiso   1.00
C192   C     0.42819   0.38257   0.65051   0.00000  Uiso   1.00
C193   C     0.50090   0.49353   0.65043   0.00000  Uiso   1.00
C194   C     0.24537   0.18750   0.75467   0.00000  Uiso   1.00
C195   C     0.18281   0.15825   0.71131   0.00000  Uiso   1.00
C196   C     0.13220   0.15093   0.77668   0.00000  Uiso   1.00
C197   C     0.03361   0.12781   0.84963   0.00000  Uiso   1.00
C198   C     0.32910   0.23935   0.89056   0.00000  Uiso   1.00
C199   C     0.34838   0.18757   0.86718   0.00000  Uiso   1.00
C200   C     0.37472   0.16252   0.93902   0.00000  Uiso   1.00
C201   C     0.38906   0.11546   0.90217   0.00000  Uiso   1.00
C202   C     0.36731   0.29505   0.81254   0.00000  Uiso   1.00
C203   C     0.40955   0.36038   0.83844   0.00000  Uiso   1.00
C204   C     0.43982   0.40381   0.75561   0.00000  Uiso   1.00
C205   C     0.25697   0.20870   0.85959   0.00000  Uiso   1.00
C206   C     0.20646   0.20143   0.92503   0.00000  Uiso   1.00
C207   C     0.14384   0.17217   0.88178   0.00000  Uiso   1.00
H208   H     0.29869   0.18383   0.61572   0.00000  Uiso   1.00
H209   H     0.34209   0.10295   0.64411   0.00000  Uiso   1.00
H210   H     0.37690   0.30078   0.54355   0.00000  Uiso   1.00
H211   H     0.17384   0.14186   0.63012   0.00000  Uiso   1.00
H212   H     0.39534   0.02266   0.72184   0.00000  Uiso   1.00
H213   H     0.46874   0.43979   0.50982   0.00000  Uiso   1.00
H214   H     0.04055   0.10467   0.69236   0.00000  Uiso   1.00
H215   H     0.33814   0.25586   0.97224   0.00000  Uiso   1.00
H216   H     0.38370   0.17893   0.02020   0.00000  Uiso   1.00
H217   H     0.41852   0.37676   0.91964   0.00000  Uiso   1.00
H218   H     0.21546   0.21784   0.00621   0.00000  Uiso   1.00
H219   H     0.42912   0.08433   0.02709   0.00000  Uiso   1.00
H220   H     0.50252   0.50146   0.81506   0.00000  Uiso   1.00
H221   H     0.07433   0.16634   0.99761   0.00000  Uiso   1.00
O222   O     0.44151   0.00161   0.89958   0.00000  Uiso   1.00
O223   O     0.53780   0.54887   0.62140   0.00000  Uiso   1.00
O224   O     0.97602   0.10919   0.86089   0.00000  Uiso   1.00
N225   N     0.39703   0.04772   0.78711   0.00000  Uiso   1.00
N226   N     0.46566   0.43771   0.58887   0.00000  Uiso   1.00
N227   N     0.06534   0.12442   0.75953   0.00000  Uiso   1.00
N228   N     0.41520   0.08090   0.95136   0.00000  Uiso   1.00
N229   N     0.48384   0.47090   0.75313   0.00000  Uiso   1.00
N230   N     0.08351   0.15760   0.92378   0.00000  Uiso   1.00
C231   C     0.79968   0.10740   0.69740   0.00000  Uiso   1.00
C232   C     0.83363   0.17040   0.76227   0.00000  Uiso   1.00
C233   C     0.88066   0.23173   0.72531   0.00000  Uiso   1.00
C234   C     0.90577   0.28320   0.79707   0.00000  Uiso   1.00
C235   C     0.96170   0.38249   0.88182   0.00000  Uiso   1.00
C236   C     0.72614   0.08184   0.70763   0.00000  Uiso   1.00
C237   C     0.68280   0.06870   0.62474   0.00000  Uiso   1.00
C238   C     0.61743   0.04562   0.65051   0.00000  Uiso   1.00
C239   C     0.50647   0.00737   0.65043   0.00000  Uiso   1.00
C240   C     0.81250   0.05787   0.75467   0.00000  Uiso   1.00
C241   C     0.84175   0.02455   0.71131   0.00000  Uiso   1.00
C242   C     0.84907   0.98127   0.77668   0.00000  Uiso   1.00
C243   C     0.87219   0.90580   0.84963   0.00000  Uiso   1.00
C244   C     0.76065   0.08975   0.89056   0.00000  Uiso   1.00
C245   C     0.81243   0.16081   0.86718   0.00000  Uiso   1.00
C246   C     0.83748   0.21220   0.93902   0.00000  Uiso   1.00
C247   C     0.88454   0.27360   0.90217   0.00000  Uiso   1.00
C248   C     0.70495   0.07225   0.81254   0.00000  Uiso   1.00
C249   C     0.63962   0.04918   0.83844   0.00000  Uiso   1.00
C250   C     0.59619   0.03601   0.75561   0.00000  Uiso   1.00
C251   C     0.79130   0.04828   0.85959   0.00000  Uiso   1.00
C252   C     0.79857   0.00503   0.92503   0.00000  Uiso   1.00
C253   C     0.82783   0.97167   0.88178   0.00000  Uiso   1.00
H254   H     0.81617   0.11486   0.61572   0.00000  Uiso   1.00
H255   H     0.89705   0.23913   0.64411   0.00000  Uiso   1.00
H256   H     0.69922   0.07612   0.54355   0.00000  Uiso   1.00
H257   H     0.85814   0.03199   0.63012   0.00000  Uiso   1.00
H258   H     0.97734   0.37268   0.72184   0.00000  Uiso   1.00
H259   H     0.56021   0.02895   0.50982   0.00000  Uiso   1.00
H260   H     0.89533   0.93588   0.69236   0.00000  Uiso   1.00
H261   H     0.74414   0.08228   0.97224   0.00000  Uiso   1.00
H262   H     0.82107   0.20477   0.02020   0.00000  Uiso   1.00
H263   H     0.62324   0.04176   0.91964   0.00000  Uiso   1.00
H264   H     0.78216   0.99762   0.00621   0.00000  Uiso   1.00
H265   H     0.91567   0.34480   0.02709   0.00000  Uiso   1.00
H266   H     0.49854   0.00106   0.81506   0.00000  Uiso   1.00
H267   H     0.83366   0.90799   0.99761   0.00000  Uiso   1.00
O268   O     0.99839   0.43991   0.89958   0.00000  Uiso   1.00
O269   O     0.45113   0.98893   0.62140   0.00000  Uiso   1.00
O270   O     0.89081   0.86683   0.86089   0.00000  Uiso   1.00
N271   N     0.95228   0.34931   0.78711   0.00000  Uiso   1.00
N272   N     0.56229   0.02795   0.58887   0.00000  Uiso   1.00
N273   N     0.87558   0.94092   0.75953   0.00000  Uiso   1.00
N274   N     0.91910   0.33430   0.95136   0.00000  Uiso   1.00
N275   N     0.52910   0.01294   0.75313   0.00000  Uiso   1.00
N276   N     0.84240   0.92591   0.92378   0.00000  Uiso   1.00
