data_job_04845
_audit_creation_date              2018-12-19
_audit_creation_method            'Materials Studio'
_symmetry_space_group_name_H-M    'P1'
_symmetry_Int_Tables_number       1
_symmetry_cell_setting            triclinic
loop_
_symmetry_equiv_pos_as_xyz
  x,y,z
_cell_length_a                    25.6420
_cell_length_b                    25.6420
_cell_length_c                    7.1664
_cell_angle_alpha                 90.0000
_cell_angle_beta                  90.0000
_cell_angle_gamma                 120.0000
loop_
_atom_site_label
_atom_site_type_symbol
_atom_site_fract_x
_atom_site_fract_y
_atom_site_fract_z
_atom_site_U_iso_or_equiv
_atom_site_adp_type
_atom_site_occupancy
C1     C     0.35459   0.23625   0.49639   0.00000  Uiso   1.00
C2     C     0.29919   0.21985   0.61543   0.00000  Uiso   1.00
C3     C     0.24407   0.21000   0.54974   0.00000  Uiso   1.00
C4     C     0.19903   0.19547   0.68103   0.00000  Uiso   1.00
C5     C     0.11152   0.17072   0.83696   0.00000  Uiso   1.00
C6     C     0.40519   0.29486   0.57694   0.00000  Uiso   1.00
C7     C     0.43920   0.34807   0.47888   0.00000  Uiso   1.00
C8     C     0.48339   0.39668   0.57778   0.00000  Uiso   1.00
C9     C     0.56048   0.48838   0.67391   0.00000  Uiso   1.00
C10    C     0.37176   0.18836   0.53665   0.00000  Uiso   1.00
C11    C     0.37767   0.15203   0.40472   0.00000  Uiso   1.00
C12    C     0.39374   0.11099   0.46969   0.00000  Uiso   1.00
C13    C     0.41891   0.03732   0.50327   0.00000  Uiso   1.00
C14    C     0.37262   0.22796   0.84637   0.00000  Uiso   1.00
C15    C     0.30898   0.21535   0.80552   0.00000  Uiso   1.00
C16    C     0.26401   0.20083   0.93695   0.00000  Uiso   1.00
C17    C     0.20884   0.19096   0.87147   0.00000  Uiso   1.00
C18    C     0.41498   0.29036   0.76703   0.00000  Uiso   1.00
C19    C     0.45914   0.33891   0.86609   0.00000  Uiso   1.00
C20    C     0.49320   0.39218   0.76821   0.00000  Uiso   1.00
C21    C     0.38155   0.18386   0.72675   0.00000  Uiso   1.00
C22    C     0.39761   0.14286   0.79193   0.00000  Uiso   1.00
C23    C     0.40355   0.10648   0.66013   0.00000  Uiso   1.00
H24    H     0.34697   0.23976   0.34840   0.00000  Uiso   1.00
H25    H     0.23651   0.21349   0.40262   0.00000  Uiso   1.00
H26    H     0.43161   0.35154   0.33177   0.00000  Uiso   1.00
H27    H     0.37009   0.15553   0.25763   0.00000  Uiso   1.00
H28    H     0.11837   0.18241   0.54657   0.00000  Uiso   1.00
H29    H     0.52976   0.47349   0.39717   0.00000  Uiso   1.00
H30    H     0.40004   0.06016   0.24081   0.00000  Uiso   1.00
H31    H     0.38024   0.22446   0.99438   0.00000  Uiso   1.00
H32    H     0.27161   0.19735   0.08405   0.00000  Uiso   1.00
H33    H     0.46671   0.33541   0.01319   0.00000  Uiso   1.00
H34    H     0.40519   0.13939   0.93905   0.00000  Uiso   1.00
H35    H     0.14685   0.16931   0.09965   0.00000  Uiso   1.00
H36    H     0.55825   0.46040   0.95024   0.00000  Uiso   1.00
H37    H     0.42852   0.04706   0.79388   0.00000  Uiso   1.00
O38    O     0.06055   0.15832   0.87045   0.00000  Uiso   1.00
O39    O     0.60029   0.54021   0.67442   0.00000  Uiso   1.00
O40    O     0.43009   0.99793   0.46929   0.00000  Uiso   1.00
N41    N     0.13998   0.18303   0.66443   0.00000  Uiso   1.00
N42    N     0.52460   0.45518   0.52475   0.00000  Uiso   1.00
N43    N     0.40333   0.06876   0.37856   0.00000  Uiso   1.00
N44    N     0.15531   0.17599   0.96203   0.00000  Uiso   1.00
N45    N     0.53993   0.44813   0.82235   0.00000  Uiso   1.00
N46    N     0.41866   0.06172   0.67617   0.00000  Uiso   1.00
C47    C     0.76375   0.11834   0.82973   0.00000  Uiso   1.00
C48    C     0.78015   0.07934   0.94876   0.00000  Uiso   1.00
C49    C     0.79000   0.03407   0.88308   0.00000  Uiso   1.00
C50    C     0.80453   0.00356   0.01437   0.00000  Uiso   1.00
C51    C     0.82928   0.94080   0.17029   0.00000  Uiso   1.00
C52    C     0.70514   0.11032   0.91028   0.00000  Uiso   1.00
C53    C     0.65193   0.09112   0.81221   0.00000  Uiso   1.00
C54    C     0.60332   0.08671   0.91111   0.00000  Uiso   1.00
C55    C     0.51162   0.07210   0.00725   0.00000  Uiso   1.00
C56    C     0.81164   0.18339   0.86999   0.00000  Uiso   1.00
C57    C     0.84797   0.22564   0.73805   0.00000  Uiso   1.00
C58    C     0.88901   0.28275   0.80302   0.00000  Uiso   1.00
C59    C     0.96268   0.38159   0.83660   0.00000  Uiso   1.00
C60    C     0.77204   0.14466   0.17971   0.00000  Uiso   1.00
C61    C     0.78465   0.09363   0.13886   0.00000  Uiso   1.00
C62    C     0.79917   0.06318   0.27029   0.00000  Uiso   1.00
C63    C     0.80904   0.01788   0.20480   0.00000  Uiso   1.00
C64    C     0.70964   0.12462   0.10036   0.00000  Uiso   1.00
C65    C     0.66109   0.12023   0.19942   0.00000  Uiso   1.00
C66    C     0.60782   0.10102   0.10155   0.00000  Uiso   1.00
C67    C     0.81614   0.19769   0.06008   0.00000  Uiso   1.00
C68    C     0.85714   0.25475   0.12527   0.00000  Uiso   1.00
C69    C     0.89352   0.29707   0.99346   0.00000  Uiso   1.00
H70    H     0.76024   0.10722   0.68173   0.00000  Uiso   1.00
H71    H     0.78651   0.02302   0.73595   0.00000  Uiso   1.00
H72    H     0.64846   0.08007   0.66510   0.00000  Uiso   1.00
H73    H     0.84447   0.21456   0.59096   0.00000  Uiso   1.00
H74    H     0.81759   0.93596   0.87991   0.00000  Uiso   1.00
H75    H     0.52651   0.05627   0.73050   0.00000  Uiso   1.00
H76    H     0.93984   0.33988   0.57414   0.00000  Uiso   1.00
H77    H     0.77554   0.15578   0.32771   0.00000  Uiso   1.00
H78    H     0.80265   0.07425   0.41738   0.00000  Uiso   1.00
H79    H     0.66459   0.13130   0.34653   0.00000  Uiso   1.00
H80    H     0.86061   0.26579   0.27238   0.00000  Uiso   1.00
H81    H     0.83069   0.97754   0.43298   0.00000  Uiso   1.00
H82    H     0.53960   0.09785   0.28357   0.00000  Uiso   1.00
H83    H     0.95294   0.38146   0.12722   0.00000  Uiso   1.00
O84    O     0.84168   0.90223   0.20379   0.00000  Uiso   1.00
O85    O     0.45979   0.06008   0.00776   0.00000  Uiso   1.00
O86    O     0.00207   0.43216   0.80262   0.00000  Uiso   1.00
N87    N     0.81697   0.95695   0.99776   0.00000  Uiso   1.00
N88    N     0.54482   0.06942   0.85808   0.00000  Uiso   1.00
N89    N     0.93124   0.33457   0.71189   0.00000  Uiso   1.00
N90    N     0.82401   0.97932   0.29537   0.00000  Uiso   1.00
N91    N     0.55187   0.09179   0.15569   0.00000  Uiso   1.00
N92    N     0.93828   0.35694   0.00950   0.00000  Uiso   1.00
C93    C     0.88166   0.64541   0.16306   0.00000  Uiso   1.00
C94    C     0.92066   0.70081   0.28210   0.00000  Uiso   1.00
C95    C     0.96593   0.75593   0.21641   0.00000  Uiso   1.00
C96    C     0.99644   0.80097   0.34770   0.00000  Uiso   1.00
C97    C     0.05920   0.88848   0.50363   0.00000  Uiso   1.00
C98    C     0.88968   0.59481   0.24361   0.00000  Uiso   1.00
C99    C     0.90888   0.56080   0.14555   0.00000  Uiso   1.00
C100   C     0.91329   0.51661   0.24444   0.00000  Uiso   1.00
C101   C     0.92790   0.43952   0.34058   0.00000  Uiso   1.00
C102   C     0.81661   0.62824   0.20332   0.00000  Uiso   1.00
C103   C     0.77436   0.62233   0.07138   0.00000  Uiso   1.00
C104   C     0.71725   0.60626   0.13636   0.00000  Uiso   1.00
C105   C     0.61841   0.58109   0.16994   0.00000  Uiso   1.00
C106   C     0.85534   0.62738   0.51304   0.00000  Uiso   1.00
C107   C     0.90637   0.69102   0.47219   0.00000  Uiso   1.00
C108   C     0.93682   0.73599   0.60362   0.00000  Uiso   1.00
C109   C     0.98212   0.79116   0.53814   0.00000  Uiso   1.00
C110   C     0.87538   0.58502   0.43370   0.00000  Uiso   1.00
C111   C     0.87977   0.54086   0.53276   0.00000  Uiso   1.00
C112   C     0.89898   0.50680   0.43488   0.00000  Uiso   1.00
C113   C     0.80231   0.61845   0.39342   0.00000  Uiso   1.00
C114   C     0.74525   0.60239   0.45860   0.00000  Uiso   1.00
C115   C     0.70293   0.59645   0.32679   0.00000  Uiso   1.00
H116   H     0.89278   0.65303   0.01507   0.00000  Uiso   1.00
H117   H     0.97698   0.76349   0.06929   0.00000  Uiso   1.00
H118   H     0.91993   0.56839   0.99844   0.00000  Uiso   1.00
H119   H     0.78544   0.62991   0.92429   0.00000  Uiso   1.00
H120   H     0.06404   0.88163   0.21324   0.00000  Uiso   1.00
H121   H     0.94373   0.47024   0.06384   0.00000  Uiso   1.00
H122   H     0.66012   0.59996   0.90748   0.00000  Uiso   1.00
H123   H     0.84422   0.61976   0.66104   0.00000  Uiso   1.00
H124   H     0.92575   0.72839   0.75072   0.00000  Uiso   1.00
H125   H     0.86870   0.53329   0.67986   0.00000  Uiso   1.00
H126   H     0.73421   0.59481   0.60571   0.00000  Uiso   1.00
H127   H     0.02246   0.85315   0.76632   0.00000  Uiso   1.00
H128   H     0.90215   0.44175   0.61690   0.00000  Uiso   1.00
H129   H     0.61854   0.57148   0.46055   0.00000  Uiso   1.00
O130   O     0.09777   0.93945   0.53712   0.00000  Uiso   1.00
O131   O     0.93992   0.39971   0.34109   0.00000  Uiso   1.00
O132   O     0.56784   0.56991   0.13596   0.00000  Uiso   1.00
N133   N     0.04305   0.86002   0.33110   0.00000  Uiso   1.00
N134   N     0.93058   0.47540   0.19142   0.00000  Uiso   1.00
N135   N     0.66543   0.59667   0.04523   0.00000  Uiso   1.00
N136   N     0.02068   0.84469   0.62870   0.00000  Uiso   1.00
N137   N     0.90821   0.46007   0.48902   0.00000  Uiso   1.00
N138   N     0.64306   0.58134   0.34283   0.00000  Uiso   1.00
C139   C     0.64541   0.76375   0.49639   0.00000  Uiso   1.00
C140   C     0.70081   0.78015   0.61543   0.00000  Uiso   1.00
C141   C     0.75593   0.79000   0.54974   0.00000  Uiso   1.00
C142   C     0.80097   0.80453   0.68103   0.00000  Uiso   1.00
C143   C     0.88848   0.82928   0.83696   0.00000  Uiso   1.00
C144   C     0.59481   0.70514   0.57694   0.00000  Uiso   1.00
C145   C     0.56080   0.65193   0.47888   0.00000  Uiso   1.00
C146   C     0.51661   0.60332   0.57778   0.00000  Uiso   1.00
C147   C     0.43952   0.51162   0.67391   0.00000  Uiso   1.00
C148   C     0.62824   0.81164   0.53665   0.00000  Uiso   1.00
C149   C     0.62233   0.84797   0.40472   0.00000  Uiso   1.00
C150   C     0.60626   0.88901   0.46969   0.00000  Uiso   1.00
C151   C     0.58109   0.96268   0.50327   0.00000  Uiso   1.00
C152   C     0.62738   0.77204   0.84637   0.00000  Uiso   1.00
C153   C     0.69102   0.78465   0.80552   0.00000  Uiso   1.00
C154   C     0.73599   0.79917   0.93695   0.00000  Uiso   1.00
C155   C     0.79116   0.80904   0.87147   0.00000  Uiso   1.00
C156   C     0.58502   0.70964   0.76703   0.00000  Uiso   1.00
C157   C     0.54086   0.66109   0.86609   0.00000  Uiso   1.00
C158   C     0.50680   0.60782   0.76821   0.00000  Uiso   1.00
C159   C     0.61845   0.81614   0.72675   0.00000  Uiso   1.00
C160   C     0.60239   0.85714   0.79193   0.00000  Uiso   1.00
C161   C     0.59645   0.89352   0.66013   0.00000  Uiso   1.00
H162   H     0.65303   0.76024   0.34840   0.00000  Uiso   1.00
H163   H     0.76349   0.78651   0.40262   0.00000  Uiso   1.00
H164   H     0.56839   0.64846   0.33177   0.00000  Uiso   1.00
H165   H     0.62991   0.84447   0.25763   0.00000  Uiso   1.00
H166   H     0.88163   0.81759   0.54657   0.00000  Uiso   1.00
H167   H     0.47024   0.52651   0.39717   0.00000  Uiso   1.00
H168   H     0.59996   0.93984   0.24081   0.00000  Uiso   1.00
H169   H     0.61976   0.77554   0.99438   0.00000  Uiso   1.00
H170   H     0.72839   0.80265   0.08405   0.00000  Uiso   1.00
H171   H     0.53329   0.66459   0.01319   0.00000  Uiso   1.00
H172   H     0.59481   0.86061   0.93905   0.00000  Uiso   1.00
H173   H     0.85315   0.83069   0.09965   0.00000  Uiso   1.00
H174   H     0.44175   0.53960   0.95024   0.00000  Uiso   1.00
H175   H     0.57148   0.95294   0.79388   0.00000  Uiso   1.00
O176   O     0.93945   0.84168   0.87045   0.00000  Uiso   1.00
O177   O     0.39971   0.45979   0.67442   0.00000  Uiso   1.00
O178   O     0.56991   0.00207   0.46929   0.00000  Uiso   1.00
N179   N     0.86002   0.81697   0.66443   0.00000  Uiso   1.00
N180   N     0.47540   0.54482   0.52475   0.00000  Uiso   1.00
N181   N     0.59667   0.93124   0.37856   0.00000  Uiso   1.00
N182   N     0.84469   0.82401   0.96203   0.00000  Uiso   1.00
N183   N     0.46007   0.55187   0.82235   0.00000  Uiso   1.00
N184   N     0.58134   0.93828   0.67617   0.00000  Uiso   1.00
C185   C     0.23625   0.88166   0.82973   0.00000  Uiso   1.00
C186   C     0.21985   0.92066   0.94876   0.00000  Uiso   1.00
C187   C     0.21000   0.96593   0.88308   0.00000  Uiso   1.00
C188   C     0.19547   0.99644   0.01437   0.00000  Uiso   1.00
C189   C     0.17072   0.05920   0.17029   0.00000  Uiso   1.00
C190   C     0.29486   0.88968   0.91028   0.00000  Uiso   1.00
C191   C     0.34807   0.90888   0.81221   0.00000  Uiso   1.00
C192   C     0.39668   0.91329   0.91111   0.00000  Uiso   1.00
C193   C     0.48838   0.92790   0.00725   0.00000  Uiso   1.00
C194   C     0.18836   0.81661   0.86999   0.00000  Uiso   1.00
C195   C     0.15203   0.77436   0.73805   0.00000  Uiso   1.00
C196   C     0.11099   0.71725   0.80302   0.00000  Uiso   1.00
C197   C     0.03732   0.61841   0.83660   0.00000  Uiso   1.00
C198   C     0.22796   0.85534   0.17971   0.00000  Uiso   1.00
C199   C     0.21535   0.90637   0.13886   0.00000  Uiso   1.00
C200   C     0.20083   0.93682   0.27029   0.00000  Uiso   1.00
C201   C     0.19096   0.98212   0.20480   0.00000  Uiso   1.00
C202   C     0.29036   0.87538   0.10036   0.00000  Uiso   1.00
C203   C     0.33891   0.87977   0.19942   0.00000  Uiso   1.00
C204   C     0.39218   0.89898   0.10155   0.00000  Uiso   1.00
C205   C     0.18386   0.80231   0.06008   0.00000  Uiso   1.00
C206   C     0.14286   0.74525   0.12527   0.00000  Uiso   1.00
C207   C     0.10648   0.70293   0.99346   0.00000  Uiso   1.00
H208   H     0.23976   0.89278   0.68173   0.00000  Uiso   1.00
H209   H     0.21349   0.97698   0.73595   0.00000  Uiso   1.00
H210   H     0.35154   0.91993   0.66510   0.00000  Uiso   1.00
H211   H     0.15553   0.78544   0.59096   0.00000  Uiso   1.00
H212   H     0.18241   0.06404   0.87991   0.00000  Uiso   1.00
H213   H     0.47349   0.94373   0.73050   0.00000  Uiso   1.00
H214   H     0.06016   0.66012   0.57414   0.00000  Uiso   1.00
H215   H     0.22446   0.84422   0.32771   0.00000  Uiso   1.00
H216   H     0.19735   0.92575   0.41738   0.00000  Uiso   1.00
H217   H     0.33541   0.86870   0.34653   0.00000  Uiso   1.00
H218   H     0.13939   0.73421   0.27238   0.00000  Uiso   1.00
H219   H     0.16931   0.02246   0.43298   0.00000  Uiso   1.00
H220   H     0.46040   0.90215   0.28357   0.00000  Uiso   1.00
H221   H     0.04706   0.61854   0.12722   0.00000  Uiso   1.00
O222   O     0.15832   0.09777   0.20379   0.00000  Uiso   1.00
O223   O     0.54021   0.93992   0.00776   0.00000  Uiso   1.00
O224   O     0.99793   0.56784   0.80262   0.00000  Uiso   1.00
N225   N     0.18303   0.04305   0.99776   0.00000  Uiso   1.00
N226   N     0.45518   0.93058   0.85808   0.00000  Uiso   1.00
N227   N     0.06876   0.66543   0.71189   0.00000  Uiso   1.00
N228   N     0.17599   0.02068   0.29537   0.00000  Uiso   1.00
N229   N     0.44813   0.90821   0.15569   0.00000  Uiso   1.00
N230   N     0.06172   0.64306   0.00950   0.00000  Uiso   1.00
C231   C     0.11834   0.35459   0.16306   0.00000  Uiso   1.00
C232   C     0.07934   0.29919   0.28210   0.00000  Uiso   1.00
C233   C     0.03407   0.24407   0.21641   0.00000  Uiso   1.00
C234   C     0.00356   0.19903   0.34770   0.00000  Uiso   1.00
C235   C     0.94080   0.11152   0.50363   0.00000  Uiso   1.00
C236   C     0.11032   0.40519   0.24361   0.00000  Uiso   1.00
C237   C     0.09112   0.43920   0.14555   0.00000  Uiso   1.00
C238   C     0.08671   0.48339   0.24444   0.00000  Uiso   1.00
C239   C     0.07210   0.56048   0.34058   0.00000  Uiso   1.00
C240   C     0.18339   0.37176   0.20332   0.00000  Uiso   1.00
C241   C     0.22564   0.37767   0.07138   0.00000  Uiso   1.00
C242   C     0.28275   0.39374   0.13636   0.00000  Uiso   1.00
C243   C     0.38159   0.41891   0.16994   0.00000  Uiso   1.00
C244   C     0.14466   0.37262   0.51304   0.00000  Uiso   1.00
C245   C     0.09363   0.30898   0.47219   0.00000  Uiso   1.00
C246   C     0.06318   0.26401   0.60362   0.00000  Uiso   1.00
C247   C     0.01788   0.20884   0.53814   0.00000  Uiso   1.00
C248   C     0.12462   0.41498   0.43370   0.00000  Uiso   1.00
C249   C     0.12023   0.45914   0.53276   0.00000  Uiso   1.00
C250   C     0.10102   0.49320   0.43488   0.00000  Uiso   1.00
C251   C     0.19769   0.38155   0.39342   0.00000  Uiso   1.00
C252   C     0.25475   0.39761   0.45860   0.00000  Uiso   1.00
C253   C     0.29707   0.40355   0.32679   0.00000  Uiso   1.00
H254   H     0.10722   0.34697   0.01507   0.00000  Uiso   1.00
H255   H     0.02302   0.23651   0.06929   0.00000  Uiso   1.00
H256   H     0.08007   0.43161   0.99844   0.00000  Uiso   1.00
H257   H     0.21456   0.37009   0.92429   0.00000  Uiso   1.00
H258   H     0.93596   0.11837   0.21324   0.00000  Uiso   1.00
H259   H     0.05627   0.52976   0.06384   0.00000  Uiso   1.00
H260   H     0.33988   0.40004   0.90748   0.00000  Uiso   1.00
H261   H     0.15578   0.38024   0.66104   0.00000  Uiso   1.00
H262   H     0.07425   0.27161   0.75072   0.00000  Uiso   1.00
H263   H     0.13130   0.46671   0.67986   0.00000  Uiso   1.00
H264   H     0.26579   0.40519   0.60571   0.00000  Uiso   1.00
H265   H     0.97754   0.14685   0.76632   0.00000  Uiso   1.00
H266   H     0.09785   0.55825   0.61690   0.00000  Uiso   1.00
H267   H     0.38146   0.42852   0.46055   0.00000  Uiso   1.00
O268   O     0.90223   0.06055   0.53712   0.00000  Uiso   1.00
O269   O     0.06008   0.60029   0.34109   0.00000  Uiso   1.00
O270   O     0.43216   0.43009   0.13596   0.00000  Uiso   1.00
N271   N     0.95695   0.13998   0.33110   0.00000  Uiso   1.00
N272   N     0.06942   0.52460   0.19142   0.00000  Uiso   1.00
N273   N     0.33457   0.40333   0.04523   0.00000  Uiso   1.00
N274   N     0.97932   0.15531   0.62870   0.00000  Uiso   1.00
N275   N     0.09179   0.53993   0.48902   0.00000  Uiso   1.00
N276   N     0.35694   0.41866   0.34283   0.00000  Uiso   1.00
