data_job_01138
_audit_creation_date              2018-12-19
_audit_creation_method            'Materials Studio'
_symmetry_space_group_name_H-M    'P1'
_symmetry_Int_Tables_number       1
_symmetry_cell_setting            triclinic
loop_
_symmetry_equiv_pos_as_xyz
  x,y,z
_cell_length_a                    11.7663
_cell_length_b                    12.7980
_cell_length_c                    32.4407
_cell_angle_alpha                 90.0000
_cell_angle_beta                  90.0000
_cell_angle_gamma                 90.0000
loop_
_atom_site_label
_atom_site_type_symbol
_atom_site_fract_x
_atom_site_fract_y
_atom_site_fract_z
_atom_site_U_iso_or_equiv
_atom_site_adp_type
_atom_site_occupancy
C1     C     0.02841   0.18400   0.34367   0.00000  Uiso   1.00
C2     C     0.14787   0.15622   0.35823   0.00000  Uiso   1.00
C3     C     0.24849   0.19006   0.34035   0.00000  Uiso   1.00
C4     C     0.34903   0.15593   0.35825   0.00000  Uiso   1.00
C5     C     0.53455   0.12273   0.37560   0.00000  Uiso   1.00
C6     C     0.96847   0.08033   0.33567   0.00000  Uiso   1.00
C7     C     0.91823   0.05037   0.29881   0.00000  Uiso   1.00
C8     C     0.86773   0.95236   0.29772   0.00000  Uiso   1.00
C9     C     0.77465   0.80136   0.28004   0.00000  Uiso   1.00
C10    C     0.96864   0.23268   0.38069   0.00000  Uiso   1.00
C11    C     0.91852   0.33081   0.38169   0.00000  Uiso   1.00
C12    C     0.86814   0.36105   0.41851   0.00000  Uiso   1.00
C13    C     0.77533   0.44660   0.47074   0.00000  Uiso   1.00
C14    C     0.02804   0.06321   0.40728   0.00000  Uiso   1.00
C15    C     0.14767   0.09061   0.39278   0.00000  Uiso   1.00
C16    C     0.24808   0.05642   0.41072   0.00000  Uiso   1.00
C17    C     0.34883   0.09021   0.39286   0.00000  Uiso   1.00
C18    C     0.96826   0.01472   0.37021   0.00000  Uiso   1.00
C19    C     0.91782   0.91673   0.36918   0.00000  Uiso   1.00
C20    C     0.86753   0.88663   0.33233   0.00000  Uiso   1.00
C21    C     0.96844   0.16707   0.41524   0.00000  Uiso   1.00
C22    C     0.91811   0.19716   0.45206   0.00000  Uiso   1.00
C23    C     0.86793   0.29532   0.45312   0.00000  Uiso   1.00
H24    H     0.02857   0.23508   0.31677   0.00000  Uiso   1.00
H25    H     0.24861   0.24083   0.31361   0.00000  Uiso   1.00
H26    H     0.91839   0.10117   0.27208   0.00000  Uiso   1.00
H27    H     0.91869   0.38155   0.35495   0.00000  Uiso   1.00
H28    H     0.49249   0.21824   0.32533   0.00000  Uiso   1.00
H29    H     0.79617   0.92377   0.23776   0.00000  Uiso   1.00
H30    H     0.79679   0.51502   0.41251   0.00000  Uiso   1.00
H31    H     0.02788   0.01213   0.43417   0.00000  Uiso   1.00
H32    H     0.24790   0.00565   0.43746   0.00000  Uiso   1.00
H33    H     0.91767   0.86598   0.39592   0.00000  Uiso   1.00
H34    H     0.91797   0.14637   0.47879   0.00000  Uiso   1.00
H35    H     0.49190   0.02736   0.42585   0.00000  Uiso   1.00
H36    H     0.79558   0.73288   0.33828   0.00000  Uiso   1.00
H37    H     0.79621   0.32414   0.51303   0.00000  Uiso   1.00
O38    O     0.63694   0.12253   0.37562   0.00000  Uiso   1.00
O39    O     0.72338   0.73620   0.26074   0.00000  Uiso   1.00
O40    O     0.72420   0.51191   0.49001   0.00000  Uiso   1.00
N41    N     0.46216   0.17422   0.34854   0.00000  Uiso   1.00
N42    N     0.81115   0.89890   0.26667   0.00000  Uiso   1.00
N43    N     0.81171   0.45166   0.43004   0.00000  Uiso   1.00
N44    N     0.46184   0.07151   0.40263   0.00000  Uiso   1.00
N45    N     0.81084   0.79618   0.32076   0.00000  Uiso   1.00
N46    N     0.81139   0.34895   0.48413   0.00000  Uiso   1.00
C47    C     0.47159   0.31600   0.84367   0.00000  Uiso   1.00
C48    C     0.35213   0.34378   0.85823   0.00000  Uiso   1.00
C49    C     0.25151   0.30994   0.84035   0.00000  Uiso   1.00
C50    C     0.15097   0.34407   0.85825   0.00000  Uiso   1.00
C51    C     0.96545   0.37727   0.87560   0.00000  Uiso   1.00
C52    C     0.53153   0.41967   0.83567   0.00000  Uiso   1.00
C53    C     0.58177   0.44963   0.79881   0.00000  Uiso   1.00
C54    C     0.63227   0.54764   0.79772   0.00000  Uiso   1.00
C55    C     0.72535   0.69864   0.78004   0.00000  Uiso   1.00
C56    C     0.53136   0.26732   0.88069   0.00000  Uiso   1.00
C57    C     0.58148   0.16919   0.88169   0.00000  Uiso   1.00
C58    C     0.63186   0.13895   0.91851   0.00000  Uiso   1.00
C59    C     0.72467   0.05340   0.97074   0.00000  Uiso   1.00
C60    C     0.47196   0.43679   0.90728   0.00000  Uiso   1.00
C61    C     0.35233   0.40939   0.89278   0.00000  Uiso   1.00
C62    C     0.25192   0.44358   0.91072   0.00000  Uiso   1.00
C63    C     0.15117   0.40979   0.89286   0.00000  Uiso   1.00
C64    C     0.53174   0.48528   0.87021   0.00000  Uiso   1.00
C65    C     0.58218   0.58327   0.86918   0.00000  Uiso   1.00
C66    C     0.63247   0.61337   0.83233   0.00000  Uiso   1.00
C67    C     0.53156   0.33293   0.91524   0.00000  Uiso   1.00
C68    C     0.58189   0.30284   0.95206   0.00000  Uiso   1.00
C69    C     0.63207   0.20468   0.95312   0.00000  Uiso   1.00
H70    H     0.47143   0.26492   0.81677   0.00000  Uiso   1.00
H71    H     0.25139   0.25917   0.81361   0.00000  Uiso   1.00
H72    H     0.58161   0.39883   0.77208   0.00000  Uiso   1.00
H73    H     0.58131   0.11845   0.85495   0.00000  Uiso   1.00
H74    H     0.00751   0.28176   0.82533   0.00000  Uiso   1.00
H75    H     0.70383   0.57623   0.73776   0.00000  Uiso   1.00
H76    H     0.70321   0.98498   0.91251   0.00000  Uiso   1.00
H77    H     0.47212   0.48787   0.93417   0.00000  Uiso   1.00
H78    H     0.25210   0.49435   0.93746   0.00000  Uiso   1.00
H79    H     0.58233   0.63402   0.89592   0.00000  Uiso   1.00
H80    H     0.58203   0.35363   0.97879   0.00000  Uiso   1.00
H81    H     0.00810   0.47264   0.92585   0.00000  Uiso   1.00
H82    H     0.70442   0.76712   0.83828   0.00000  Uiso   1.00
H83    H     0.70379   0.17586   0.01303   0.00000  Uiso   1.00
O84    O     0.86306   0.37747   0.87562   0.00000  Uiso   1.00
O85    O     0.77662   0.76380   0.76074   0.00000  Uiso   1.00
O86    O     0.77580   0.98809   0.99001   0.00000  Uiso   1.00
N87    N     0.03784   0.32578   0.84854   0.00000  Uiso   1.00
N88    N     0.68885   0.60110   0.76667   0.00000  Uiso   1.00
N89    N     0.68829   0.04834   0.93004   0.00000  Uiso   1.00
N90    N     0.03816   0.42849   0.90263   0.00000  Uiso   1.00
N91    N     0.68916   0.70382   0.82076   0.00000  Uiso   1.00
N92    N     0.68861   0.15105   0.98413   0.00000  Uiso   1.00
C93    C     0.97159   0.18400   0.15633   0.00000  Uiso   1.00
C94    C     0.85213   0.15622   0.14177   0.00000  Uiso   1.00
C95    C     0.75151   0.19006   0.15965   0.00000  Uiso   1.00
C96    C     0.65097   0.15593   0.14175   0.00000  Uiso   1.00
C97    C     0.46545   0.12273   0.12440   0.00000  Uiso   1.00
C98    C     0.03153   0.08033   0.16433   0.00000  Uiso   1.00
C99    C     0.08177   0.05037   0.20119   0.00000  Uiso   1.00
C100   C     0.13227   0.95236   0.20228   0.00000  Uiso   1.00
C101   C     0.22535   0.80136   0.21996   0.00000  Uiso   1.00
C102   C     0.03136   0.23268   0.11931   0.00000  Uiso   1.00
C103   C     0.08148   0.33081   0.11831   0.00000  Uiso   1.00
C104   C     0.13186   0.36105   0.08149   0.00000  Uiso   1.00
C105   C     0.22467   0.44660   0.02926   0.00000  Uiso   1.00
C106   C     0.97196   0.06321   0.09272   0.00000  Uiso   1.00
C107   C     0.85233   0.09061   0.10722   0.00000  Uiso   1.00
C108   C     0.75192   0.05642   0.08928   0.00000  Uiso   1.00
C109   C     0.65117   0.09021   0.10714   0.00000  Uiso   1.00
C110   C     0.03174   0.01472   0.12979   0.00000  Uiso   1.00
C111   C     0.08218   0.91673   0.13082   0.00000  Uiso   1.00
C112   C     0.13247   0.88663   0.16767   0.00000  Uiso   1.00
C113   C     0.03156   0.16707   0.08476   0.00000  Uiso   1.00
C114   C     0.08189   0.19716   0.04794   0.00000  Uiso   1.00
C115   C     0.13207   0.29532   0.04688   0.00000  Uiso   1.00
H116   H     0.97143   0.23508   0.18323   0.00000  Uiso   1.00
H117   H     0.75139   0.24083   0.18639   0.00000  Uiso   1.00
H118   H     0.08161   0.10117   0.22792   0.00000  Uiso   1.00
H119   H     0.08131   0.38155   0.14505   0.00000  Uiso   1.00
H120   H     0.50751   0.21824   0.17467   0.00000  Uiso   1.00
H121   H     0.20383   0.92377   0.26224   0.00000  Uiso   1.00
H122   H     0.20321   0.51502   0.08749   0.00000  Uiso   1.00
H123   H     0.97212   0.01213   0.06583   0.00000  Uiso   1.00
H124   H     0.75210   0.00565   0.06254   0.00000  Uiso   1.00
H125   H     0.08233   0.86598   0.10408   0.00000  Uiso   1.00
H126   H     0.08203   0.14637   0.02121   0.00000  Uiso   1.00
H127   H     0.50810   0.02736   0.07415   0.00000  Uiso   1.00
H128   H     0.20442   0.73288   0.16172   0.00000  Uiso   1.00
H129   H     0.20379   0.32414   0.98697   0.00000  Uiso   1.00
O130   O     0.36306   0.12253   0.12438   0.00000  Uiso   1.00
O131   O     0.27662   0.73620   0.23926   0.00000  Uiso   1.00
O132   O     0.27580   0.51191   0.00999   0.00000  Uiso   1.00
N133   N     0.53784   0.17422   0.15146   0.00000  Uiso   1.00
N134   N     0.18885   0.89890   0.23333   0.00000  Uiso   1.00
N135   N     0.18829   0.45166   0.06996   0.00000  Uiso   1.00
N136   N     0.53816   0.07151   0.09737   0.00000  Uiso   1.00
N137   N     0.18916   0.79618   0.17924   0.00000  Uiso   1.00
N138   N     0.18861   0.34895   0.01587   0.00000  Uiso   1.00
C139   C     0.52841   0.31600   0.65633   0.00000  Uiso   1.00
C140   C     0.64787   0.34378   0.64177   0.00000  Uiso   1.00
C141   C     0.74849   0.30994   0.65965   0.00000  Uiso   1.00
C142   C     0.84903   0.34407   0.64175   0.00000  Uiso   1.00
C143   C     0.03455   0.37727   0.62440   0.00000  Uiso   1.00
C144   C     0.46847   0.41967   0.66433   0.00000  Uiso   1.00
C145   C     0.41823   0.44963   0.70119   0.00000  Uiso   1.00
C146   C     0.36773   0.54764   0.70228   0.00000  Uiso   1.00
C147   C     0.27465   0.69864   0.71996   0.00000  Uiso   1.00
C148   C     0.46864   0.26732   0.61931   0.00000  Uiso   1.00
C149   C     0.41852   0.16919   0.61831   0.00000  Uiso   1.00
C150   C     0.36814   0.13895   0.58149   0.00000  Uiso   1.00
C151   C     0.27533   0.05340   0.52926   0.00000  Uiso   1.00
C152   C     0.52804   0.43679   0.59272   0.00000  Uiso   1.00
C153   C     0.64767   0.40939   0.60722   0.00000  Uiso   1.00
C154   C     0.74808   0.44358   0.58928   0.00000  Uiso   1.00
C155   C     0.84883   0.40979   0.60714   0.00000  Uiso   1.00
C156   C     0.46826   0.48528   0.62979   0.00000  Uiso   1.00
C157   C     0.41782   0.58327   0.63082   0.00000  Uiso   1.00
C158   C     0.36753   0.61337   0.66767   0.00000  Uiso   1.00
C159   C     0.46844   0.33293   0.58476   0.00000  Uiso   1.00
C160   C     0.41811   0.30284   0.54794   0.00000  Uiso   1.00
C161   C     0.36793   0.20468   0.54688   0.00000  Uiso   1.00
H162   H     0.52857   0.26492   0.68323   0.00000  Uiso   1.00
H163   H     0.74861   0.25917   0.68639   0.00000  Uiso   1.00
H164   H     0.41839   0.39883   0.72792   0.00000  Uiso   1.00
H165   H     0.41869   0.11845   0.64505   0.00000  Uiso   1.00
H166   H     0.99249   0.28176   0.67467   0.00000  Uiso   1.00
H167   H     0.29617   0.57623   0.76224   0.00000  Uiso   1.00
H168   H     0.29679   0.98498   0.58749   0.00000  Uiso   1.00
H169   H     0.52788   0.48787   0.56583   0.00000  Uiso   1.00
H170   H     0.74790   0.49435   0.56254   0.00000  Uiso   1.00
H171   H     0.41767   0.63402   0.60408   0.00000  Uiso   1.00
H172   H     0.41797   0.35363   0.52121   0.00000  Uiso   1.00
H173   H     0.99190   0.47264   0.57415   0.00000  Uiso   1.00
H174   H     0.29558   0.76712   0.66172   0.00000  Uiso   1.00
H175   H     0.29621   0.17586   0.48697   0.00000  Uiso   1.00
O176   O     0.13694   0.37747   0.62438   0.00000  Uiso   1.00
O177   O     0.22338   0.76380   0.73926   0.00000  Uiso   1.00
O178   O     0.22420   0.98809   0.50999   0.00000  Uiso   1.00
N179   N     0.96216   0.32578   0.65146   0.00000  Uiso   1.00
N180   N     0.31115   0.60110   0.73333   0.00000  Uiso   1.00
N181   N     0.31171   0.04834   0.56996   0.00000  Uiso   1.00
N182   N     0.96184   0.42849   0.59737   0.00000  Uiso   1.00
N183   N     0.31084   0.70382   0.67924   0.00000  Uiso   1.00
N184   N     0.31139   0.15105   0.51587   0.00000  Uiso   1.00
C185   C     0.97159   0.81600   0.65633   0.00000  Uiso   1.00
C186   C     0.85213   0.84378   0.64177   0.00000  Uiso   1.00
C187   C     0.75151   0.80994   0.65965   0.00000  Uiso   1.00
C188   C     0.65097   0.84407   0.64175   0.00000  Uiso   1.00
C189   C     0.46545   0.87727   0.62440   0.00000  Uiso   1.00
C190   C     0.03153   0.91967   0.66433   0.00000  Uiso   1.00
C191   C     0.08177   0.94963   0.70119   0.00000  Uiso   1.00
C192   C     0.13227   0.04764   0.70228   0.00000  Uiso   1.00
C193   C     0.22535   0.19864   0.71996   0.00000  Uiso   1.00
C194   C     0.03136   0.76732   0.61931   0.00000  Uiso   1.00
C195   C     0.08148   0.66919   0.61831   0.00000  Uiso   1.00
C196   C     0.13186   0.63895   0.58149   0.00000  Uiso   1.00
C197   C     0.22467   0.55340   0.52926   0.00000  Uiso   1.00
C198   C     0.97196   0.93679   0.59272   0.00000  Uiso   1.00
C199   C     0.85233   0.90939   0.60722   0.00000  Uiso   1.00
C200   C     0.75192   0.94358   0.58928   0.00000  Uiso   1.00
C201   C     0.65117   0.90979   0.60714   0.00000  Uiso   1.00
C202   C     0.03174   0.98528   0.62979   0.00000  Uiso   1.00
C203   C     0.08218   0.08327   0.63082   0.00000  Uiso   1.00
C204   C     0.13247   0.11337   0.66767   0.00000  Uiso   1.00
C205   C     0.03156   0.83293   0.58476   0.00000  Uiso   1.00
C206   C     0.08189   0.80284   0.54794   0.00000  Uiso   1.00
C207   C     0.13207   0.70468   0.54688   0.00000  Uiso   1.00
H208   H     0.97143   0.76492   0.68323   0.00000  Uiso   1.00
H209   H     0.75139   0.75917   0.68639   0.00000  Uiso   1.00
H210   H     0.08161   0.89883   0.72792   0.00000  Uiso   1.00
H211   H     0.08131   0.61845   0.64505   0.00000  Uiso   1.00
H212   H     0.50751   0.78176   0.67467   0.00000  Uiso   1.00
H213   H     0.20383   0.07623   0.76224   0.00000  Uiso   1.00
H214   H     0.20321   0.48498   0.58749   0.00000  Uiso   1.00
H215   H     0.97212   0.98787   0.56583   0.00000  Uiso   1.00
H216   H     0.75210   0.99435   0.56254   0.00000  Uiso   1.00
H217   H     0.08233   0.13402   0.60408   0.00000  Uiso   1.00
H218   H     0.08203   0.85363   0.52121   0.00000  Uiso   1.00
H219   H     0.50810   0.97264   0.57415   0.00000  Uiso   1.00
H220   H     0.20442   0.26712   0.66172   0.00000  Uiso   1.00
H221   H     0.20379   0.67586   0.48697   0.00000  Uiso   1.00
O222   O     0.36306   0.87747   0.62438   0.00000  Uiso   1.00
O223   O     0.27662   0.26380   0.73926   0.00000  Uiso   1.00
O224   O     0.27580   0.48809   0.50999   0.00000  Uiso   1.00
N225   N     0.53784   0.82578   0.65146   0.00000  Uiso   1.00
N226   N     0.18885   0.10110   0.73333   0.00000  Uiso   1.00
N227   N     0.18829   0.54834   0.56996   0.00000  Uiso   1.00
N228   N     0.53816   0.92849   0.59737   0.00000  Uiso   1.00
N229   N     0.18916   0.20382   0.67924   0.00000  Uiso   1.00
N230   N     0.18861   0.65105   0.51587   0.00000  Uiso   1.00
C231   C     0.52841   0.68400   0.15633   0.00000  Uiso   1.00
C232   C     0.64787   0.65622   0.14177   0.00000  Uiso   1.00
C233   C     0.74849   0.69006   0.15965   0.00000  Uiso   1.00
C234   C     0.84903   0.65593   0.14175   0.00000  Uiso   1.00
C235   C     0.03455   0.62273   0.12440   0.00000  Uiso   1.00
C236   C     0.46847   0.58033   0.16433   0.00000  Uiso   1.00
C237   C     0.41823   0.55037   0.20119   0.00000  Uiso   1.00
C238   C     0.36773   0.45236   0.20228   0.00000  Uiso   1.00
C239   C     0.27465   0.30136   0.21996   0.00000  Uiso   1.00
C240   C     0.46864   0.73268   0.11931   0.00000  Uiso   1.00
C241   C     0.41852   0.83081   0.11831   0.00000  Uiso   1.00
C242   C     0.36814   0.86105   0.08149   0.00000  Uiso   1.00
C243   C     0.27533   0.94660   0.02926   0.00000  Uiso   1.00
C244   C     0.52804   0.56321   0.09272   0.00000  Uiso   1.00
C245   C     0.64767   0.59061   0.10722   0.00000  Uiso   1.00
C246   C     0.74808   0.55642   0.08928   0.00000  Uiso   1.00
C247   C     0.84883   0.59021   0.10714   0.00000  Uiso   1.00
C248   C     0.46826   0.51472   0.12979   0.00000  Uiso   1.00
C249   C     0.41782   0.41673   0.13082   0.00000  Uiso   1.00
C250   C     0.36753   0.38663   0.16767   0.00000  Uiso   1.00
C251   C     0.46844   0.66707   0.08476   0.00000  Uiso   1.00
C252   C     0.41811   0.69716   0.04794   0.00000  Uiso   1.00
C253   C     0.36793   0.79532   0.04688   0.00000  Uiso   1.00
H254   H     0.52857   0.73508   0.18323   0.00000  Uiso   1.00
H255   H     0.74861   0.74083   0.18639   0.00000  Uiso   1.00
H256   H     0.41839   0.60117   0.22792   0.00000  Uiso   1.00
H257   H     0.41869   0.88155   0.14505   0.00000  Uiso   1.00
H258   H     0.99249   0.71824   0.17467   0.00000  Uiso   1.00
H259   H     0.29617   0.42377   0.26224   0.00000  Uiso   1.00
H260   H     0.29679   0.01502   0.08749   0.00000  Uiso   1.00
H261   H     0.52788   0.51213   0.06583   0.00000  Uiso   1.00
H262   H     0.74790   0.50565   0.06254   0.00000  Uiso   1.00
H263   H     0.41767   0.36598   0.10408   0.00000  Uiso   1.00
H264   H     0.41797   0.64637   0.02121   0.00000  Uiso   1.00
H265   H     0.99190   0.52736   0.07415   0.00000  Uiso   1.00
H266   H     0.29558   0.23288   0.16172   0.00000  Uiso   1.00
H267   H     0.29621   0.82414   0.98697   0.00000  Uiso   1.00
O268   O     0.13694   0.62253   0.12438   0.00000  Uiso   1.00
O269   O     0.22338   0.23620   0.23926   0.00000  Uiso   1.00
O270   O     0.22420   0.01191   0.00999   0.00000  Uiso   1.00
N271   N     0.96216   0.67422   0.15146   0.00000  Uiso   1.00
N272   N     0.31115   0.39890   0.23333   0.00000  Uiso   1.00
N273   N     0.31171   0.95166   0.06996   0.00000  Uiso   1.00
N274   N     0.96184   0.57151   0.09737   0.00000  Uiso   1.00
N275   N     0.31084   0.29618   0.17924   0.00000  Uiso   1.00
N276   N     0.31139   0.84895   0.01587   0.00000  Uiso   1.00
C277   C     0.02841   0.81600   0.84367   0.00000  Uiso   1.00
C278   C     0.14787   0.84378   0.85823   0.00000  Uiso   1.00
C279   C     0.24849   0.80994   0.84035   0.00000  Uiso   1.00
C280   C     0.34903   0.84407   0.85825   0.00000  Uiso   1.00
C281   C     0.53455   0.87727   0.87560   0.00000  Uiso   1.00
C282   C     0.96847   0.91967   0.83567   0.00000  Uiso   1.00
C283   C     0.91823   0.94963   0.79881   0.00000  Uiso   1.00
C284   C     0.86773   0.04764   0.79772   0.00000  Uiso   1.00
C285   C     0.77465   0.19864   0.78004   0.00000  Uiso   1.00
C286   C     0.96864   0.76732   0.88069   0.00000  Uiso   1.00
C287   C     0.91852   0.66919   0.88169   0.00000  Uiso   1.00
C288   C     0.86814   0.63895   0.91851   0.00000  Uiso   1.00
C289   C     0.77533   0.55340   0.97074   0.00000  Uiso   1.00
C290   C     0.02804   0.93679   0.90728   0.00000  Uiso   1.00
C291   C     0.14767   0.90939   0.89278   0.00000  Uiso   1.00
C292   C     0.24808   0.94358   0.91072   0.00000  Uiso   1.00
C293   C     0.34883   0.90979   0.89286   0.00000  Uiso   1.00
C294   C     0.96826   0.98528   0.87021   0.00000  Uiso   1.00
C295   C     0.91782   0.08327   0.86918   0.00000  Uiso   1.00
C296   C     0.86753   0.11337   0.83233   0.00000  Uiso   1.00
C297   C     0.96844   0.83293   0.91524   0.00000  Uiso   1.00
C298   C     0.91811   0.80284   0.95206   0.00000  Uiso   1.00
C299   C     0.86793   0.70468   0.95312   0.00000  Uiso   1.00
H300   H     0.02857   0.76492   0.81677   0.00000  Uiso   1.00
H301   H     0.24861   0.75917   0.81361   0.00000  Uiso   1.00
H302   H     0.91839   0.89883   0.77208   0.00000  Uiso   1.00
H303   H     0.91869   0.61845   0.85495   0.00000  Uiso   1.00
H304   H     0.49249   0.78176   0.82533   0.00000  Uiso   1.00
H305   H     0.79617   0.07623   0.73776   0.00000  Uiso   1.00
H306   H     0.79679   0.48498   0.91251   0.00000  Uiso   1.00
H307   H     0.02788   0.98787   0.93417   0.00000  Uiso   1.00
H308   H     0.24790   0.99435   0.93746   0.00000  Uiso   1.00
H309   H     0.91767   0.13402   0.89592   0.00000  Uiso   1.00
H310   H     0.91797   0.85363   0.97879   0.00000  Uiso   1.00
H311   H     0.49190   0.97264   0.92585   0.00000  Uiso   1.00
H312   H     0.79558   0.26712   0.83828   0.00000  Uiso   1.00
H313   H     0.79621   0.67586   0.01303   0.00000  Uiso   1.00
O314   O     0.63694   0.87747   0.87562   0.00000  Uiso   1.00
O315   O     0.72338   0.26380   0.76074   0.00000  Uiso   1.00
O316   O     0.72420   0.48809   0.99001   0.00000  Uiso   1.00
N317   N     0.46216   0.82578   0.84854   0.00000  Uiso   1.00
N318   N     0.81115   0.10110   0.76667   0.00000  Uiso   1.00
N319   N     0.81171   0.54834   0.93004   0.00000  Uiso   1.00
N320   N     0.46184   0.92849   0.90263   0.00000  Uiso   1.00
N321   N     0.81084   0.20382   0.82076   0.00000  Uiso   1.00
N322   N     0.81139   0.65105   0.98413   0.00000  Uiso   1.00
C323   C     0.47159   0.68400   0.34367   0.00000  Uiso   1.00
C324   C     0.35213   0.65622   0.35823   0.00000  Uiso   1.00
C325   C     0.25151   0.69006   0.34035   0.00000  Uiso   1.00
C326   C     0.15097   0.65593   0.35825   0.00000  Uiso   1.00
C327   C     0.96545   0.62273   0.37560   0.00000  Uiso   1.00
C328   C     0.53153   0.58033   0.33567   0.00000  Uiso   1.00
C329   C     0.58177   0.55037   0.29881   0.00000  Uiso   1.00
C330   C     0.63227   0.45236   0.29772   0.00000  Uiso   1.00
C331   C     0.72535   0.30136   0.28004   0.00000  Uiso   1.00
C332   C     0.53136   0.73268   0.38069   0.00000  Uiso   1.00
C333   C     0.58148   0.83081   0.38169   0.00000  Uiso   1.00
C334   C     0.63186   0.86105   0.41851   0.00000  Uiso   1.00
C335   C     0.72467   0.94660   0.47074   0.00000  Uiso   1.00
C336   C     0.47196   0.56321   0.40728   0.00000  Uiso   1.00
C337   C     0.35233   0.59061   0.39278   0.00000  Uiso   1.00
C338   C     0.25192   0.55642   0.41072   0.00000  Uiso   1.00
C339   C     0.15117   0.59021   0.39286   0.00000  Uiso   1.00
C340   C     0.53174   0.51472   0.37021   0.00000  Uiso   1.00
C341   C     0.58218   0.41673   0.36918   0.00000  Uiso   1.00
C342   C     0.63247   0.38663   0.33233   0.00000  Uiso   1.00
C343   C     0.53156   0.66707   0.41524   0.00000  Uiso   1.00
C344   C     0.58189   0.69716   0.45206   0.00000  Uiso   1.00
C345   C     0.63207   0.79532   0.45312   0.00000  Uiso   1.00
H346   H     0.47143   0.73508   0.31677   0.00000  Uiso   1.00
H347   H     0.25139   0.74083   0.31361   0.00000  Uiso   1.00
H348   H     0.58161   0.60117   0.27208   0.00000  Uiso   1.00
H349   H     0.58131   0.88155   0.35495   0.00000  Uiso   1.00
H350   H     0.00751   0.71824   0.32533   0.00000  Uiso   1.00
H351   H     0.70383   0.42377   0.23776   0.00000  Uiso   1.00
H352   H     0.70321   0.01502   0.41251   0.00000  Uiso   1.00
H353   H     0.47212   0.51213   0.43417   0.00000  Uiso   1.00
H354   H     0.25210   0.50565   0.43746   0.00000  Uiso   1.00
H355   H     0.58233   0.36598   0.39592   0.00000  Uiso   1.00
H356   H     0.58203   0.64637   0.47879   0.00000  Uiso   1.00
H357   H     0.00810   0.52736   0.42585   0.00000  Uiso   1.00
H358   H     0.70442   0.23288   0.33828   0.00000  Uiso   1.00
H359   H     0.70379   0.82414   0.51303   0.00000  Uiso   1.00
O360   O     0.86306   0.62253   0.37562   0.00000  Uiso   1.00
O361   O     0.77662   0.23620   0.26074   0.00000  Uiso   1.00
O362   O     0.77580   0.01191   0.49001   0.00000  Uiso   1.00
N363   N     0.03784   0.67422   0.34854   0.00000  Uiso   1.00
N364   N     0.68885   0.39890   0.26667   0.00000  Uiso   1.00
N365   N     0.68829   0.95166   0.43004   0.00000  Uiso   1.00
N366   N     0.03816   0.57151   0.40263   0.00000  Uiso   1.00
N367   N     0.68916   0.29618   0.32076   0.00000  Uiso   1.00
N368   N     0.68861   0.84895   0.48413   0.00000  Uiso   1.00
