data_job_04812
_audit_creation_date              2018-12-19
_audit_creation_method            'Materials Studio'
_symmetry_space_group_name_H-M    'P1'
_symmetry_Int_Tables_number       1
_symmetry_cell_setting            triclinic
loop_
_symmetry_equiv_pos_as_xyz
  x,y,z
_cell_length_a                    28.3305
_cell_length_b                    17.0651
_cell_length_c                    12.5287
_cell_angle_alpha                 90.0000
_cell_angle_beta                  90.0000
_cell_angle_gamma                 90.0000
loop_
_atom_site_label
_atom_site_type_symbol
_atom_site_fract_x
_atom_site_fract_y
_atom_site_fract_z
_atom_site_U_iso_or_equiv
_atom_site_adp_type
_atom_site_occupancy
C1     C     0.31036   0.76592   0.90585   0.00000  Uiso   1.00
C2     C     0.29682   0.85083   0.92825   0.00000  Uiso   1.00
C3     C     0.25173   0.88209   0.92056   0.00000  Uiso   1.00
C4     C     0.24665   0.96110   0.94437   0.00000  Uiso   1.00
C5     C     0.21975   0.08595   0.97449   0.00000  Uiso   1.00
C6     C     0.34875   0.76894   0.82064   0.00000  Uiso   1.00
C7     C     0.34732   0.73134   0.72247   0.00000  Uiso   1.00
C8     C     0.38596   0.74140   0.65570   0.00000  Uiso   1.00
C9     C     0.43970   0.73907   0.51877   0.00000  Uiso   1.00
C10    C     0.33428   0.73606   0.00701   0.00000  Uiso   1.00
C11    C     0.32069   0.67080   0.06553   0.00000  Uiso   1.00
C12    C     0.34716   0.65317   0.15566   0.00000  Uiso   1.00
C13    C     0.37843   0.59979   0.30809   0.00000  Uiso   1.00
C14    C     0.38153   0.85065   0.96183   0.00000  Uiso   1.00
C15    C     0.33548   0.89685   0.95865   0.00000  Uiso   1.00
C16    C     0.33047   0.97583   0.98249   0.00000  Uiso   1.00
C17    C     0.28537   0.00720   0.97484   0.00000  Uiso   1.00
C18    C     0.38741   0.81496   0.85104   0.00000  Uiso   1.00
C19    C     0.42606   0.82508   0.78440   0.00000  Uiso   1.00
C20    C     0.42469   0.78750   0.68616   0.00000  Uiso   1.00
C21    C     0.37294   0.78208   0.03742   0.00000  Uiso   1.00
C22    C     0.39943   0.76455   0.12747   0.00000  Uiso   1.00
C23    C     0.38589   0.69928   0.18612   0.00000  Uiso   1.00
H24    H     0.28026   0.73009   0.88217   0.00000  Uiso   1.00
H25    H     0.22182   0.84646   0.89702   0.00000  Uiso   1.00
H26    H     0.31740   0.69572   0.69897   0.00000  Uiso   1.00
H27    H     0.29078   0.63520   0.04198   0.00000  Uiso   1.00
H28    H     0.17407   0.99578   0.92685   0.00000  Uiso   1.00
H29    H     0.37562   0.67792   0.50926   0.00000  Uiso   1.00
H30    H     0.31948   0.55029   0.23256   0.00000  Uiso   1.00
H31    H     0.41163   0.88648   0.98550   0.00000  Uiso   1.00
H32    H     0.36039   0.01143   0.00602   0.00000  Uiso   1.00
H33    H     0.45597   0.86069   0.80796   0.00000  Uiso   1.00
H34    H     0.42934   0.80017   0.15097   0.00000  Uiso   1.00
H35    H     0.28654   0.12967   0.01531   0.00000  Uiso   1.00
H36    H     0.48809   0.81181   0.59772   0.00000  Uiso   1.00
H37    H     0.43194   0.68419   0.32103   0.00000  Uiso   1.00
O38    O     0.19423   0.14211   0.98268   0.00000  Uiso   1.00
O39    O     0.45866   0.72507   0.43483   0.00000  Uiso   1.00
O40    O     0.38500   0.55764   0.38378   0.00000  Uiso   1.00
N41    N     0.20757   0.01014   0.94487   0.00000  Uiso   1.00
N42    N     0.39600   0.71297   0.55444   0.00000  Uiso   1.00
N43    N     0.34352   0.59364   0.23066   0.00000  Uiso   1.00
N44    N     0.26809   0.08219   0.99248   0.00000  Uiso   1.00
N45    N     0.45652   0.78501   0.60205   0.00000  Uiso   1.00
N46    N     0.40404   0.66569   0.27826   0.00000  Uiso   1.00
C47    C     0.31101   0.09810   0.59998   0.00000  Uiso   1.00
C48    C     0.29740   0.01319   0.57786   0.00000  Uiso   1.00
C49    C     0.25232   0.98195   0.58615   0.00000  Uiso   1.00
C50    C     0.24717   0.90293   0.56250   0.00000  Uiso   1.00
C51    C     0.22017   0.77807   0.53288   0.00000  Uiso   1.00
C52    C     0.34960   0.09513   0.68472   0.00000  Uiso   1.00
C53    C     0.34842   0.13280   0.78286   0.00000  Uiso   1.00
C54    C     0.38722   0.12276   0.84916   0.00000  Uiso   1.00
C55    C     0.44129   0.12517   0.98542   0.00000  Uiso   1.00
C56    C     0.33469   0.12788   0.49849   0.00000  Uiso   1.00
C57    C     0.32097   0.19311   0.44005   0.00000  Uiso   1.00
C58    C     0.34722   0.21066   0.34957   0.00000  Uiso   1.00
C59    C     0.37813   0.26393   0.19669   0.00000  Uiso   1.00
C60    C     0.38202   0.01331   0.54323   0.00000  Uiso   1.00
C61    C     0.33597   0.96713   0.54703   0.00000  Uiso   1.00
C62    C     0.33089   0.88813   0.52336   0.00000  Uiso   1.00
C63    C     0.28581   0.85679   0.53161   0.00000  Uiso   1.00
C64    C     0.38818   0.04907   0.65390   0.00000  Uiso   1.00
C65    C     0.42699   0.03898   0.72007   0.00000  Uiso   1.00
C66    C     0.42586   0.07662   0.81828   0.00000  Uiso   1.00
C67    C     0.37326   0.08183   0.46766   0.00000  Uiso   1.00
C68    C     0.39954   0.09929   0.37726   0.00000  Uiso   1.00
C69    C     0.38586   0.16452   0.31870   0.00000  Uiso   1.00
H70    H     0.28098   0.13396   0.62399   0.00000  Uiso   1.00
H71    H     0.22248   0.01762   0.61002   0.00000  Uiso   1.00
H72    H     0.31856   0.16844   0.80669   0.00000  Uiso   1.00
H73    H     0.29112   0.22874   0.46393   0.00000  Uiso   1.00
H74    H     0.17463   0.86830   0.58097   0.00000  Uiso   1.00
H75    H     0.37725   0.18635   0.99565   0.00000  Uiso   1.00
H76    H     0.31937   0.31351   0.27289   0.00000  Uiso   1.00
H77    H     0.41206   0.97745   0.51923   0.00000  Uiso   1.00
H78    H     0.36075   0.85251   0.49951   0.00000  Uiso   1.00
H79    H     0.45684   0.00334   0.69618   0.00000  Uiso   1.00
H80    H     0.42939   0.06363   0.35343   0.00000  Uiso   1.00
H81    H     0.28686   0.73429   0.49128   0.00000  Uiso   1.00
H82    H     0.48947   0.05235   0.90596   0.00000  Uiso   1.00
H83    H     0.43159   0.17949   0.18320   0.00000  Uiso   1.00
O84    O     0.19463   0.72193   0.52507   0.00000  Uiso   1.00
O85    O     0.46045   0.13921   0.06910   0.00000  Uiso   1.00
O86    O     0.38452   0.30602   0.12086   0.00000  Uiso   1.00
N87    N     0.20808   0.85391   0.56255   0.00000  Uiso   1.00
N88    N     0.39751   0.15126   0.95025   0.00000  Uiso   1.00
N89    N     0.34341   0.27015   0.27455   0.00000  Uiso   1.00
N90    N     0.26847   0.78180   0.51428   0.00000  Uiso   1.00
N91    N     0.45790   0.07915   0.90199   0.00000  Uiso   1.00
N92    N     0.40380   0.19804   0.22629   0.00000  Uiso   1.00
C93    C     0.68964   0.23408   0.40585   0.00000  Uiso   1.00
C94    C     0.70318   0.14917   0.42825   0.00000  Uiso   1.00
C95    C     0.74827   0.11791   0.42056   0.00000  Uiso   1.00
C96    C     0.75335   0.03890   0.44437   0.00000  Uiso   1.00
C97    C     0.78025   0.91405   0.47449   0.00000  Uiso   1.00
C98    C     0.65125   0.23106   0.32064   0.00000  Uiso   1.00
C99    C     0.65268   0.26866   0.22247   0.00000  Uiso   1.00
C100   C     0.61404   0.25860   0.15570   0.00000  Uiso   1.00
C101   C     0.56030   0.26093   0.01877   0.00000  Uiso   1.00
C102   C     0.66572   0.26394   0.50701   0.00000  Uiso   1.00
C103   C     0.67931   0.32920   0.56553   0.00000  Uiso   1.00
C104   C     0.65284   0.34683   0.65566   0.00000  Uiso   1.00
C105   C     0.62157   0.40021   0.80809   0.00000  Uiso   1.00
C106   C     0.61847   0.14935   0.46183   0.00000  Uiso   1.00
C107   C     0.66452   0.10315   0.45865   0.00000  Uiso   1.00
C108   C     0.66953   0.02417   0.48249   0.00000  Uiso   1.00
C109   C     0.71463   0.99280   0.47484   0.00000  Uiso   1.00
C110   C     0.61259   0.18504   0.35104   0.00000  Uiso   1.00
C111   C     0.57394   0.17492   0.28440   0.00000  Uiso   1.00
C112   C     0.57531   0.21250   0.18616   0.00000  Uiso   1.00
C113   C     0.62706   0.21792   0.53742   0.00000  Uiso   1.00
C114   C     0.60057   0.23545   0.62747   0.00000  Uiso   1.00
C115   C     0.61411   0.30072   0.68612   0.00000  Uiso   1.00
H116   H     0.71974   0.26991   0.38217   0.00000  Uiso   1.00
H117   H     0.77818   0.15354   0.39702   0.00000  Uiso   1.00
H118   H     0.68260   0.30428   0.19897   0.00000  Uiso   1.00
H119   H     0.70922   0.36480   0.54198   0.00000  Uiso   1.00
H120   H     0.82593   0.00422   0.42685   0.00000  Uiso   1.00
H121   H     0.62438   0.32208   0.00926   0.00000  Uiso   1.00
H122   H     0.68052   0.44971   0.73256   0.00000  Uiso   1.00
H123   H     0.58837   0.11352   0.48550   0.00000  Uiso   1.00
H124   H     0.63961   0.98857   0.50602   0.00000  Uiso   1.00
H125   H     0.54403   0.13931   0.30796   0.00000  Uiso   1.00
H126   H     0.57066   0.19983   0.65097   0.00000  Uiso   1.00
H127   H     0.71346   0.87033   0.51531   0.00000  Uiso   1.00
H128   H     0.51191   0.18819   0.09772   0.00000  Uiso   1.00
H129   H     0.56806   0.31581   0.82103   0.00000  Uiso   1.00
O130   O     0.80577   0.85789   0.48268   0.00000  Uiso   1.00
O131   O     0.54134   0.27493   0.93483   0.00000  Uiso   1.00
O132   O     0.61500   0.44236   0.88378   0.00000  Uiso   1.00
N133   N     0.79243   0.98986   0.44487   0.00000  Uiso   1.00
N134   N     0.60400   0.28703   0.05444   0.00000  Uiso   1.00
N135   N     0.65648   0.40636   0.73066   0.00000  Uiso   1.00
N136   N     0.73191   0.91781   0.49248   0.00000  Uiso   1.00
N137   N     0.54348   0.21499   0.10205   0.00000  Uiso   1.00
N138   N     0.59596   0.33431   0.77826   0.00000  Uiso   1.00
C139   C     0.68899   0.90190   0.09998   0.00000  Uiso   1.00
C140   C     0.70260   0.98681   0.07786   0.00000  Uiso   1.00
C141   C     0.74768   0.01805   0.08615   0.00000  Uiso   1.00
C142   C     0.75283   0.09707   0.06250   0.00000  Uiso   1.00
C143   C     0.77983   0.22193   0.03288   0.00000  Uiso   1.00
C144   C     0.65040   0.90487   0.18472   0.00000  Uiso   1.00
C145   C     0.65158   0.86720   0.28286   0.00000  Uiso   1.00
C146   C     0.61278   0.87724   0.34916   0.00000  Uiso   1.00
C147   C     0.55871   0.87483   0.48542   0.00000  Uiso   1.00
C148   C     0.66531   0.87212   0.99849   0.00000  Uiso   1.00
C149   C     0.67903   0.80689   0.94005   0.00000  Uiso   1.00
C150   C     0.65278   0.78934   0.84957   0.00000  Uiso   1.00
C151   C     0.62187   0.73607   0.69669   0.00000  Uiso   1.00
C152   C     0.61798   0.98669   0.04323   0.00000  Uiso   1.00
C153   C     0.66403   0.03287   0.04703   0.00000  Uiso   1.00
C154   C     0.66911   0.11187   0.02336   0.00000  Uiso   1.00
C155   C     0.71419   0.14321   0.03161   0.00000  Uiso   1.00
C156   C     0.61182   0.95093   0.15390   0.00000  Uiso   1.00
C157   C     0.57301   0.96102   0.22007   0.00000  Uiso   1.00
C158   C     0.57414   0.92338   0.31828   0.00000  Uiso   1.00
C159   C     0.62674   0.91817   0.96766   0.00000  Uiso   1.00
C160   C     0.60046   0.90071   0.87726   0.00000  Uiso   1.00
C161   C     0.61414   0.83548   0.81870   0.00000  Uiso   1.00
H162   H     0.71902   0.86604   0.12399   0.00000  Uiso   1.00
H163   H     0.77752   0.98238   0.11002   0.00000  Uiso   1.00
H164   H     0.68144   0.83156   0.30669   0.00000  Uiso   1.00
H165   H     0.70888   0.77126   0.96393   0.00000  Uiso   1.00
H166   H     0.82537   0.13170   0.08097   0.00000  Uiso   1.00
H167   H     0.62275   0.81365   0.49565   0.00000  Uiso   1.00
H168   H     0.68063   0.68649   0.77289   0.00000  Uiso   1.00
H169   H     0.58794   0.02255   0.01923   0.00000  Uiso   1.00
H170   H     0.63925   0.14749   0.99951   0.00000  Uiso   1.00
H171   H     0.54316   0.99666   0.19618   0.00000  Uiso   1.00
H172   H     0.57061   0.93637   0.85343   0.00000  Uiso   1.00
H173   H     0.71314   0.26571   0.99128   0.00000  Uiso   1.00
H174   H     0.51053   0.94765   0.40596   0.00000  Uiso   1.00
H175   H     0.56841   0.82051   0.68320   0.00000  Uiso   1.00
O176   O     0.80537   0.27807   0.02507   0.00000  Uiso   1.00
O177   O     0.53955   0.86079   0.56910   0.00000  Uiso   1.00
O178   O     0.61548   0.69398   0.62086   0.00000  Uiso   1.00
N179   N     0.79192   0.14609   0.06255   0.00000  Uiso   1.00
N180   N     0.60249   0.84874   0.45025   0.00000  Uiso   1.00
N181   N     0.65659   0.72985   0.77455   0.00000  Uiso   1.00
N182   N     0.73153   0.21820   0.01428   0.00000  Uiso   1.00
N183   N     0.54210   0.92085   0.40199   0.00000  Uiso   1.00
N184   N     0.59620   0.80196   0.72629   0.00000  Uiso   1.00
C185   C     0.81036   0.73408   0.90585   0.00000  Uiso   1.00
C186   C     0.79682   0.64917   0.92825   0.00000  Uiso   1.00
C187   C     0.75173   0.61791   0.92056   0.00000  Uiso   1.00
C188   C     0.74665   0.53890   0.94437   0.00000  Uiso   1.00
C189   C     0.71975   0.41405   0.97449   0.00000  Uiso   1.00
C190   C     0.84875   0.73106   0.82064   0.00000  Uiso   1.00
C191   C     0.84732   0.76866   0.72247   0.00000  Uiso   1.00
C192   C     0.88596   0.75860   0.65570   0.00000  Uiso   1.00
C193   C     0.93970   0.76093   0.51877   0.00000  Uiso   1.00
C194   C     0.83428   0.76394   0.00701   0.00000  Uiso   1.00
C195   C     0.82069   0.82920   0.06553   0.00000  Uiso   1.00
C196   C     0.84716   0.84683   0.15566   0.00000  Uiso   1.00
C197   C     0.87843   0.90021   0.30809   0.00000  Uiso   1.00
C198   C     0.88153   0.64935   0.96183   0.00000  Uiso   1.00
C199   C     0.83548   0.60315   0.95865   0.00000  Uiso   1.00
C200   C     0.83047   0.52417   0.98249   0.00000  Uiso   1.00
C201   C     0.78537   0.49280   0.97484   0.00000  Uiso   1.00
C202   C     0.88741   0.68504   0.85104   0.00000  Uiso   1.00
C203   C     0.92606   0.67492   0.78440   0.00000  Uiso   1.00
C204   C     0.92469   0.71250   0.68616   0.00000  Uiso   1.00
C205   C     0.87294   0.71792   0.03742   0.00000  Uiso   1.00
C206   C     0.89943   0.73545   0.12747   0.00000  Uiso   1.00
C207   C     0.88589   0.80072   0.18612   0.00000  Uiso   1.00
H208   H     0.78026   0.76991   0.88217   0.00000  Uiso   1.00
H209   H     0.72182   0.65354   0.89702   0.00000  Uiso   1.00
H210   H     0.81740   0.80428   0.69897   0.00000  Uiso   1.00
H211   H     0.79078   0.86480   0.04198   0.00000  Uiso   1.00
H212   H     0.67407   0.50422   0.92685   0.00000  Uiso   1.00
H213   H     0.87562   0.82208   0.50926   0.00000  Uiso   1.00
H214   H     0.81948   0.94971   0.23256   0.00000  Uiso   1.00
H215   H     0.91163   0.61352   0.98550   0.00000  Uiso   1.00
H216   H     0.86039   0.48857   0.00602   0.00000  Uiso   1.00
H217   H     0.95597   0.63931   0.80796   0.00000  Uiso   1.00
H218   H     0.92934   0.69983   0.15097   0.00000  Uiso   1.00
H219   H     0.78654   0.37033   0.01531   0.00000  Uiso   1.00
H220   H     0.98809   0.68819   0.59772   0.00000  Uiso   1.00
H221   H     0.93194   0.81581   0.32103   0.00000  Uiso   1.00
O222   O     0.69423   0.35789   0.98268   0.00000  Uiso   1.00
O223   O     0.95866   0.77493   0.43483   0.00000  Uiso   1.00
O224   O     0.88500   0.94236   0.38378   0.00000  Uiso   1.00
N225   N     0.70757   0.48986   0.94487   0.00000  Uiso   1.00
N226   N     0.89600   0.78703   0.55444   0.00000  Uiso   1.00
N227   N     0.84352   0.90636   0.23066   0.00000  Uiso   1.00
N228   N     0.76809   0.41781   0.99248   0.00000  Uiso   1.00
N229   N     0.95652   0.71499   0.60205   0.00000  Uiso   1.00
N230   N     0.90404   0.83431   0.27826   0.00000  Uiso   1.00
C231   C     0.81101   0.40190   0.59998   0.00000  Uiso   1.00
C232   C     0.79740   0.48681   0.57786   0.00000  Uiso   1.00
C233   C     0.75232   0.51805   0.58615   0.00000  Uiso   1.00
C234   C     0.74717   0.59707   0.56250   0.00000  Uiso   1.00
C235   C     0.72017   0.72193   0.53288   0.00000  Uiso   1.00
C236   C     0.84960   0.40487   0.68472   0.00000  Uiso   1.00
C237   C     0.84842   0.36720   0.78286   0.00000  Uiso   1.00
C238   C     0.88722   0.37724   0.84916   0.00000  Uiso   1.00
C239   C     0.94129   0.37483   0.98542   0.00000  Uiso   1.00
C240   C     0.83469   0.37212   0.49849   0.00000  Uiso   1.00
C241   C     0.82097   0.30689   0.44005   0.00000  Uiso   1.00
C242   C     0.84722   0.28934   0.34957   0.00000  Uiso   1.00
C243   C     0.87813   0.23607   0.19669   0.00000  Uiso   1.00
C244   C     0.88202   0.48669   0.54323   0.00000  Uiso   1.00
C245   C     0.83597   0.53287   0.54703   0.00000  Uiso   1.00
C246   C     0.83089   0.61187   0.52336   0.00000  Uiso   1.00
C247   C     0.78581   0.64321   0.53161   0.00000  Uiso   1.00
C248   C     0.88818   0.45093   0.65390   0.00000  Uiso   1.00
C249   C     0.92699   0.46102   0.72007   0.00000  Uiso   1.00
C250   C     0.92586   0.42338   0.81828   0.00000  Uiso   1.00
C251   C     0.87326   0.41817   0.46766   0.00000  Uiso   1.00
C252   C     0.89954   0.40071   0.37726   0.00000  Uiso   1.00
C253   C     0.88586   0.33548   0.31870   0.00000  Uiso   1.00
H254   H     0.78098   0.36604   0.62399   0.00000  Uiso   1.00
H255   H     0.72248   0.48238   0.61002   0.00000  Uiso   1.00
H256   H     0.81856   0.33156   0.80669   0.00000  Uiso   1.00
H257   H     0.79112   0.27126   0.46393   0.00000  Uiso   1.00
H258   H     0.67463   0.63170   0.58097   0.00000  Uiso   1.00
H259   H     0.87725   0.31365   0.99565   0.00000  Uiso   1.00
H260   H     0.81937   0.18649   0.27289   0.00000  Uiso   1.00
H261   H     0.91206   0.52255   0.51923   0.00000  Uiso   1.00
H262   H     0.86075   0.64749   0.49951   0.00000  Uiso   1.00
H263   H     0.95684   0.49666   0.69618   0.00000  Uiso   1.00
H264   H     0.92939   0.43637   0.35343   0.00000  Uiso   1.00
H265   H     0.78686   0.76571   0.49128   0.00000  Uiso   1.00
H266   H     0.98947   0.44765   0.90596   0.00000  Uiso   1.00
H267   H     0.93159   0.32051   0.18320   0.00000  Uiso   1.00
O268   O     0.69463   0.77807   0.52507   0.00000  Uiso   1.00
O269   O     0.96045   0.36079   0.06910   0.00000  Uiso   1.00
O270   O     0.88452   0.19398   0.12086   0.00000  Uiso   1.00
N271   N     0.70808   0.64609   0.56255   0.00000  Uiso   1.00
N272   N     0.89751   0.34874   0.95025   0.00000  Uiso   1.00
N273   N     0.84341   0.22985   0.27455   0.00000  Uiso   1.00
N274   N     0.76847   0.71820   0.51428   0.00000  Uiso   1.00
N275   N     0.95790   0.42085   0.90199   0.00000  Uiso   1.00
N276   N     0.90380   0.30196   0.22629   0.00000  Uiso   1.00
C277   C     0.18964   0.26592   0.40585   0.00000  Uiso   1.00
C278   C     0.20318   0.35083   0.42825   0.00000  Uiso   1.00
C279   C     0.24827   0.38209   0.42056   0.00000  Uiso   1.00
C280   C     0.25335   0.46110   0.44437   0.00000  Uiso   1.00
C281   C     0.28025   0.58595   0.47449   0.00000  Uiso   1.00
C282   C     0.15125   0.26894   0.32064   0.00000  Uiso   1.00
C283   C     0.15268   0.23134   0.22247   0.00000  Uiso   1.00
C284   C     0.11404   0.24140   0.15570   0.00000  Uiso   1.00
C285   C     0.06030   0.23907   0.01877   0.00000  Uiso   1.00
C286   C     0.16572   0.23606   0.50701   0.00000  Uiso   1.00
C287   C     0.17931   0.17080   0.56553   0.00000  Uiso   1.00
C288   C     0.15284   0.15317   0.65566   0.00000  Uiso   1.00
C289   C     0.12157   0.09979   0.80809   0.00000  Uiso   1.00
C290   C     0.11847   0.35065   0.46183   0.00000  Uiso   1.00
C291   C     0.16452   0.39685   0.45865   0.00000  Uiso   1.00
C292   C     0.16953   0.47583   0.48249   0.00000  Uiso   1.00
C293   C     0.21463   0.50720   0.47484   0.00000  Uiso   1.00
C294   C     0.11259   0.31496   0.35104   0.00000  Uiso   1.00
C295   C     0.07394   0.32508   0.28440   0.00000  Uiso   1.00
C296   C     0.07531   0.28750   0.18616   0.00000  Uiso   1.00
C297   C     0.12706   0.28208   0.53742   0.00000  Uiso   1.00
C298   C     0.10057   0.26455   0.62747   0.00000  Uiso   1.00
C299   C     0.11411   0.19928   0.68612   0.00000  Uiso   1.00
H300   H     0.21974   0.23009   0.38217   0.00000  Uiso   1.00
H301   H     0.27818   0.34646   0.39702   0.00000  Uiso   1.00
H302   H     0.18260   0.19572   0.19897   0.00000  Uiso   1.00
H303   H     0.20922   0.13520   0.54198   0.00000  Uiso   1.00
H304   H     0.32593   0.49578   0.42685   0.00000  Uiso   1.00
H305   H     0.12438   0.17792   0.00926   0.00000  Uiso   1.00
H306   H     0.18052   0.05029   0.73256   0.00000  Uiso   1.00
H307   H     0.08837   0.38648   0.48550   0.00000  Uiso   1.00
H308   H     0.13961   0.51143   0.50602   0.00000  Uiso   1.00
H309   H     0.04403   0.36069   0.30796   0.00000  Uiso   1.00
H310   H     0.07066   0.30017   0.65097   0.00000  Uiso   1.00
H311   H     0.21346   0.62967   0.51531   0.00000  Uiso   1.00
H312   H     0.01191   0.31181   0.09772   0.00000  Uiso   1.00
H313   H     0.06806   0.18419   0.82103   0.00000  Uiso   1.00
O314   O     0.30577   0.64211   0.48268   0.00000  Uiso   1.00
O315   O     0.04134   0.22507   0.93483   0.00000  Uiso   1.00
O316   O     0.11500   0.05764   0.88378   0.00000  Uiso   1.00
N317   N     0.29243   0.51014   0.44487   0.00000  Uiso   1.00
N318   N     0.10400   0.21297   0.05444   0.00000  Uiso   1.00
N319   N     0.15648   0.09364   0.73066   0.00000  Uiso   1.00
N320   N     0.23191   0.58219   0.49248   0.00000  Uiso   1.00
N321   N     0.04348   0.28501   0.10205   0.00000  Uiso   1.00
N322   N     0.09596   0.16569   0.77826   0.00000  Uiso   1.00
C323   C     0.18899   0.59810   0.09998   0.00000  Uiso   1.00
C324   C     0.20260   0.51319   0.07786   0.00000  Uiso   1.00
C325   C     0.24768   0.48195   0.08615   0.00000  Uiso   1.00
C326   C     0.25283   0.40293   0.06250   0.00000  Uiso   1.00
C327   C     0.27983   0.27807   0.03288   0.00000  Uiso   1.00
C328   C     0.15040   0.59513   0.18472   0.00000  Uiso   1.00
C329   C     0.15158   0.63280   0.28286   0.00000  Uiso   1.00
C330   C     0.11278   0.62276   0.34916   0.00000  Uiso   1.00
C331   C     0.05871   0.62517   0.48542   0.00000  Uiso   1.00
C332   C     0.16531   0.62788   0.99849   0.00000  Uiso   1.00
C333   C     0.17903   0.69311   0.94005   0.00000  Uiso   1.00
C334   C     0.15278   0.71066   0.84957   0.00000  Uiso   1.00
C335   C     0.12187   0.76393   0.69669   0.00000  Uiso   1.00
C336   C     0.11798   0.51331   0.04323   0.00000  Uiso   1.00
C337   C     0.16403   0.46713   0.04703   0.00000  Uiso   1.00
C338   C     0.16911   0.38813   0.02336   0.00000  Uiso   1.00
C339   C     0.21419   0.35679   0.03161   0.00000  Uiso   1.00
C340   C     0.11182   0.54907   0.15390   0.00000  Uiso   1.00
C341   C     0.07301   0.53898   0.22007   0.00000  Uiso   1.00
C342   C     0.07414   0.57662   0.31828   0.00000  Uiso   1.00
C343   C     0.12674   0.58183   0.96766   0.00000  Uiso   1.00
C344   C     0.10046   0.59929   0.87726   0.00000  Uiso   1.00
C345   C     0.11414   0.66452   0.81870   0.00000  Uiso   1.00
H346   H     0.21902   0.63396   0.12399   0.00000  Uiso   1.00
H347   H     0.27752   0.51762   0.11002   0.00000  Uiso   1.00
H348   H     0.18144   0.66844   0.30669   0.00000  Uiso   1.00
H349   H     0.20888   0.72874   0.96393   0.00000  Uiso   1.00
H350   H     0.32537   0.36830   0.08097   0.00000  Uiso   1.00
H351   H     0.12275   0.68635   0.49565   0.00000  Uiso   1.00
H352   H     0.18063   0.81351   0.77289   0.00000  Uiso   1.00
H353   H     0.08794   0.47745   0.01923   0.00000  Uiso   1.00
H354   H     0.13925   0.35251   0.99951   0.00000  Uiso   1.00
H355   H     0.04316   0.50334   0.19618   0.00000  Uiso   1.00
H356   H     0.07061   0.56363   0.85343   0.00000  Uiso   1.00
H357   H     0.21314   0.23429   0.99128   0.00000  Uiso   1.00
H358   H     0.01053   0.55235   0.40596   0.00000  Uiso   1.00
H359   H     0.06841   0.67949   0.68320   0.00000  Uiso   1.00
O360   O     0.30537   0.22193   0.02507   0.00000  Uiso   1.00
O361   O     0.03955   0.63921   0.56910   0.00000  Uiso   1.00
O362   O     0.11548   0.80602   0.62086   0.00000  Uiso   1.00
N363   N     0.29192   0.35391   0.06255   0.00000  Uiso   1.00
N364   N     0.10249   0.65126   0.45025   0.00000  Uiso   1.00
N365   N     0.15659   0.77015   0.77455   0.00000  Uiso   1.00
N366   N     0.23153   0.28180   0.01428   0.00000  Uiso   1.00
N367   N     0.04210   0.57915   0.40199   0.00000  Uiso   1.00
N368   N     0.09620   0.69804   0.72629   0.00000  Uiso   1.00
