data_job_00748
_audit_creation_date              2018-12-19
_audit_creation_method            'Materials Studio'
_symmetry_space_group_name_H-M    'P1'
_symmetry_Int_Tables_number       1
_symmetry_cell_setting            triclinic
loop_
_symmetry_equiv_pos_as_xyz
  x,y,z
_cell_length_a                    18.1706
_cell_length_b                    12.0608
_cell_length_c                    30.5516
_cell_angle_alpha                 90.0000
_cell_angle_beta                  136.5962
_cell_angle_gamma                 90.0000
loop_
_atom_site_label
_atom_site_type_symbol
_atom_site_fract_x
_atom_site_fract_y
_atom_site_fract_z
_atom_site_U_iso_or_equiv
_atom_site_adp_type
_atom_site_occupancy
C1     C     0.01119   0.50115   0.17440   0.00000  Uiso   1.00
C2     C     0.12679   0.53338   0.21448   0.00000  Uiso   1.00
C3     C     0.21689   0.49189   0.27437   0.00000  Uiso   1.00
C4     C     0.31554   0.53190   0.30320   0.00000  Uiso   1.00
C5     C     0.49380   0.57002   0.37001   0.00000  Uiso   1.00
C6     C     0.95297   0.60895   0.15994   0.00000  Uiso   1.00
C7     C     0.89691   0.63099   0.17396   0.00000  Uiso   1.00
C8     C     0.84923   0.73461   0.15687   0.00000  Uiso   1.00
C9     C     0.75756   0.89002   0.13896   0.00000  Uiso   1.00
C10    C     0.96407   0.46037   0.11090   0.00000  Uiso   1.00
C11    C     0.91732   0.35750   0.08369   0.00000  Uiso   1.00
C12    C     0.87896   0.33603   0.02531   0.00000  Uiso   1.00
C13    C     0.80453   0.26076   0.93126   0.00000  Uiso   1.00
C14    C     0.02617   0.64597   0.11911   0.00000  Uiso   1.00
C15    C     0.13492   0.61204   0.18444   0.00000  Uiso   1.00
C16    C     0.23346   0.65212   0.21319   0.00000  Uiso   1.00
C17    C     0.32369   0.61070   0.27311   0.00000  Uiso   1.00
C18    C     0.96110   0.68761   0.12990   0.00000  Uiso   1.00
C19    C     0.91349   0.79121   0.11278   0.00000  Uiso   1.00
C20    C     0.85738   0.81341   0.12678   0.00000  Uiso   1.00
C21    C     0.97221   0.53903   0.08087   0.00000  Uiso   1.00
C22    C     0.93390   0.51772   0.02251   0.00000  Uiso   1.00
C23    C     0.88711   0.41484   0.99522   0.00000  Uiso   1.00
H24    H     0.00485   0.43991   0.19779   0.00000  Uiso   1.00
H25    H     0.21055   0.43102   0.29760   0.00000  Uiso   1.00
H26    H     0.89062   0.57009   0.19720   0.00000  Uiso   1.00
H27    H     0.91103   0.29665   0.10695   0.00000  Uiso   1.00
H28    H     0.44221   0.45589   0.39503   0.00000  Uiso   1.00
H29    H     0.76758   0.74912   0.18331   0.00000  Uiso   1.00
H30    H     0.81061   0.17250   0.99299   0.00000  Uiso   1.00
H31    H     0.03250   0.70721   0.09572   0.00000  Uiso   1.00
H32    H     0.23974   0.71299   0.18993   0.00000  Uiso   1.00
H33    H     0.91980   0.85206   0.08954   0.00000  Uiso   1.00
H34    H     0.94021   0.57861   0.99928   0.00000  Uiso   1.00
H35    H     0.46589   0.68475   0.30764   0.00000  Uiso   1.00
H36    H     0.79125   0.97797   0.09592   0.00000  Uiso   1.00
H37    H     0.83430   0.40135   0.90560   0.00000  Uiso   1.00
O38    O     0.58987   0.56933   0.41517   0.00000  Uiso   1.00
O39    O     0.70476   0.95401   0.13739   0.00000  Uiso   1.00
O40    O     0.76124   0.19750   0.88769   0.00000  Uiso   1.00
N41    N     0.41934   0.50894   0.36153   0.00000  Uiso   1.00
N42    N     0.78862   0.78310   0.16359   0.00000  Uiso   1.00
N43    N     0.82883   0.24402   0.98565   0.00000  Uiso   1.00
N44    N     0.43209   0.63209   0.31451   0.00000  Uiso   1.00
N45    N     0.80136   0.90624   0.11657   0.00000  Uiso   1.00
N46    N     0.84157   0.36716   0.93863   0.00000  Uiso   1.00
C47    C     0.51119   0.00115   0.17440   0.00000  Uiso   1.00
C48    C     0.62679   0.03338   0.21448   0.00000  Uiso   1.00
C49    C     0.71689   0.99189   0.27437   0.00000  Uiso   1.00
C50    C     0.81554   0.03190   0.30320   0.00000  Uiso   1.00
C51    C     0.99380   0.07002   0.37001   0.00000  Uiso   1.00
C52    C     0.45297   0.10895   0.15994   0.00000  Uiso   1.00
C53    C     0.39691   0.13099   0.17396   0.00000  Uiso   1.00
C54    C     0.34923   0.23461   0.15687   0.00000  Uiso   1.00
C55    C     0.25756   0.39002   0.13896   0.00000  Uiso   1.00
C56    C     0.46407   0.96037   0.11090   0.00000  Uiso   1.00
C57    C     0.41732   0.85750   0.08369   0.00000  Uiso   1.00
C58    C     0.37896   0.83603   0.02531   0.00000  Uiso   1.00
C59    C     0.30453   0.76076   0.93126   0.00000  Uiso   1.00
C60    C     0.52617   0.14597   0.11911   0.00000  Uiso   1.00
C61    C     0.63492   0.11204   0.18444   0.00000  Uiso   1.00
C62    C     0.73346   0.15212   0.21319   0.00000  Uiso   1.00
C63    C     0.82369   0.11070   0.27311   0.00000  Uiso   1.00
C64    C     0.46110   0.18761   0.12990   0.00000  Uiso   1.00
C65    C     0.41349   0.29121   0.11278   0.00000  Uiso   1.00
C66    C     0.35738   0.31341   0.12678   0.00000  Uiso   1.00
C67    C     0.47221   0.03903   0.08087   0.00000  Uiso   1.00
C68    C     0.43390   0.01772   0.02251   0.00000  Uiso   1.00
C69    C     0.38711   0.91484   0.99522   0.00000  Uiso   1.00
H70    H     0.50485   0.93991   0.19779   0.00000  Uiso   1.00
H71    H     0.71055   0.93102   0.29760   0.00000  Uiso   1.00
H72    H     0.39062   0.07009   0.19720   0.00000  Uiso   1.00
H73    H     0.41103   0.79665   0.10695   0.00000  Uiso   1.00
H74    H     0.94221   0.95589   0.39503   0.00000  Uiso   1.00
H75    H     0.26758   0.24912   0.18331   0.00000  Uiso   1.00
H76    H     0.31061   0.67250   0.99299   0.00000  Uiso   1.00
H77    H     0.53250   0.20721   0.09572   0.00000  Uiso   1.00
H78    H     0.73974   0.21299   0.18993   0.00000  Uiso   1.00
H79    H     0.41980   0.35206   0.08954   0.00000  Uiso   1.00
H80    H     0.44021   0.07861   0.99928   0.00000  Uiso   1.00
H81    H     0.96589   0.18475   0.30764   0.00000  Uiso   1.00
H82    H     0.29125   0.47797   0.09592   0.00000  Uiso   1.00
H83    H     0.33430   0.90135   0.90560   0.00000  Uiso   1.00
O84    O     0.08987   0.06933   0.41517   0.00000  Uiso   1.00
O85    O     0.20476   0.45401   0.13739   0.00000  Uiso   1.00
O86    O     0.26124   0.69750   0.88769   0.00000  Uiso   1.00
N87    N     0.91934   0.00894   0.36153   0.00000  Uiso   1.00
N88    N     0.28862   0.28310   0.16359   0.00000  Uiso   1.00
N89    N     0.32883   0.74402   0.98565   0.00000  Uiso   1.00
N90    N     0.93209   0.13209   0.31451   0.00000  Uiso   1.00
N91    N     0.30136   0.40624   0.11657   0.00000  Uiso   1.00
N92    N     0.34157   0.86716   0.93863   0.00000  Uiso   1.00
C93    C     0.98881   0.50115   0.32560   0.00000  Uiso   1.00
C94    C     0.87321   0.53338   0.28552   0.00000  Uiso   1.00
C95    C     0.78311   0.49189   0.22563   0.00000  Uiso   1.00
C96    C     0.68446   0.53190   0.19680   0.00000  Uiso   1.00
C97    C     0.50620   0.57002   0.12999   0.00000  Uiso   1.00
C98    C     0.04703   0.60895   0.34006   0.00000  Uiso   1.00
C99    C     0.10309   0.63099   0.32604   0.00000  Uiso   1.00
C100   C     0.15077   0.73461   0.34313   0.00000  Uiso   1.00
C101   C     0.24244   0.89002   0.36104   0.00000  Uiso   1.00
C102   C     0.03593   0.46037   0.38910   0.00000  Uiso   1.00
C103   C     0.08268   0.35750   0.41631   0.00000  Uiso   1.00
C104   C     0.12104   0.33603   0.47469   0.00000  Uiso   1.00
C105   C     0.19547   0.26076   0.56874   0.00000  Uiso   1.00
C106   C     0.97383   0.64597   0.38089   0.00000  Uiso   1.00
C107   C     0.86508   0.61204   0.31556   0.00000  Uiso   1.00
C108   C     0.76654   0.65212   0.28681   0.00000  Uiso   1.00
C109   C     0.67631   0.61070   0.22689   0.00000  Uiso   1.00
C110   C     0.03890   0.68761   0.37010   0.00000  Uiso   1.00
C111   C     0.08651   0.79121   0.38722   0.00000  Uiso   1.00
C112   C     0.14262   0.81341   0.37322   0.00000  Uiso   1.00
C113   C     0.02779   0.53903   0.41913   0.00000  Uiso   1.00
C114   C     0.06610   0.51772   0.47749   0.00000  Uiso   1.00
C115   C     0.11289   0.41484   0.50478   0.00000  Uiso   1.00
H116   H     0.99515   0.43991   0.30221   0.00000  Uiso   1.00
H117   H     0.78945   0.43102   0.20240   0.00000  Uiso   1.00
H118   H     0.10938   0.57009   0.30280   0.00000  Uiso   1.00
H119   H     0.08897   0.29665   0.39305   0.00000  Uiso   1.00
H120   H     0.55779   0.45589   0.10497   0.00000  Uiso   1.00
H121   H     0.23242   0.74912   0.31669   0.00000  Uiso   1.00
H122   H     0.18939   0.17250   0.50701   0.00000  Uiso   1.00
H123   H     0.96750   0.70721   0.40428   0.00000  Uiso   1.00
H124   H     0.76026   0.71299   0.31007   0.00000  Uiso   1.00
H125   H     0.08020   0.85206   0.41046   0.00000  Uiso   1.00
H126   H     0.05979   0.57861   0.50072   0.00000  Uiso   1.00
H127   H     0.53411   0.68475   0.19236   0.00000  Uiso   1.00
H128   H     0.20875   0.97797   0.40408   0.00000  Uiso   1.00
H129   H     0.16570   0.40135   0.59440   0.00000  Uiso   1.00
O130   O     0.41013   0.56933   0.08483   0.00000  Uiso   1.00
O131   O     0.29524   0.95401   0.36261   0.00000  Uiso   1.00
O132   O     0.23876   0.19750   0.61231   0.00000  Uiso   1.00
N133   N     0.58066   0.50894   0.13847   0.00000  Uiso   1.00
N134   N     0.21138   0.78310   0.33641   0.00000  Uiso   1.00
N135   N     0.17117   0.24402   0.51435   0.00000  Uiso   1.00
N136   N     0.56791   0.63209   0.18549   0.00000  Uiso   1.00
N137   N     0.19864   0.90624   0.38343   0.00000  Uiso   1.00
N138   N     0.15843   0.36716   0.56137   0.00000  Uiso   1.00
C139   C     0.48881   0.00115   0.32560   0.00000  Uiso   1.00
C140   C     0.37321   0.03338   0.28552   0.00000  Uiso   1.00
C141   C     0.28311   0.99189   0.22563   0.00000  Uiso   1.00
C142   C     0.18446   0.03190   0.19680   0.00000  Uiso   1.00
C143   C     0.00620   0.07002   0.12999   0.00000  Uiso   1.00
C144   C     0.54703   0.10895   0.34006   0.00000  Uiso   1.00
C145   C     0.60309   0.13099   0.32604   0.00000  Uiso   1.00
C146   C     0.65077   0.23461   0.34313   0.00000  Uiso   1.00
C147   C     0.74244   0.39002   0.36104   0.00000  Uiso   1.00
C148   C     0.53593   0.96037   0.38910   0.00000  Uiso   1.00
C149   C     0.58268   0.85750   0.41631   0.00000  Uiso   1.00
C150   C     0.62104   0.83603   0.47469   0.00000  Uiso   1.00
C151   C     0.69547   0.76076   0.56874   0.00000  Uiso   1.00
C152   C     0.47383   0.14597   0.38089   0.00000  Uiso   1.00
C153   C     0.36508   0.11204   0.31556   0.00000  Uiso   1.00
C154   C     0.26654   0.15212   0.28681   0.00000  Uiso   1.00
C155   C     0.17631   0.11070   0.22689   0.00000  Uiso   1.00
C156   C     0.53890   0.18761   0.37010   0.00000  Uiso   1.00
C157   C     0.58651   0.29121   0.38722   0.00000  Uiso   1.00
C158   C     0.64262   0.31341   0.37322   0.00000  Uiso   1.00
C159   C     0.52779   0.03903   0.41913   0.00000  Uiso   1.00
C160   C     0.56610   0.01772   0.47749   0.00000  Uiso   1.00
C161   C     0.61289   0.91484   0.50478   0.00000  Uiso   1.00
H162   H     0.49515   0.93991   0.30221   0.00000  Uiso   1.00
H163   H     0.28945   0.93102   0.20240   0.00000  Uiso   1.00
H164   H     0.60938   0.07009   0.30280   0.00000  Uiso   1.00
H165   H     0.58897   0.79665   0.39305   0.00000  Uiso   1.00
H166   H     0.05779   0.95589   0.10497   0.00000  Uiso   1.00
H167   H     0.73242   0.24912   0.31669   0.00000  Uiso   1.00
H168   H     0.68939   0.67250   0.50701   0.00000  Uiso   1.00
H169   H     0.46750   0.20721   0.40428   0.00000  Uiso   1.00
H170   H     0.26026   0.21299   0.31007   0.00000  Uiso   1.00
H171   H     0.58020   0.35206   0.41046   0.00000  Uiso   1.00
H172   H     0.55979   0.07861   0.50072   0.00000  Uiso   1.00
H173   H     0.03411   0.18475   0.19236   0.00000  Uiso   1.00
H174   H     0.70875   0.47797   0.40408   0.00000  Uiso   1.00
H175   H     0.66570   0.90135   0.59440   0.00000  Uiso   1.00
O176   O     0.91013   0.06933   0.08483   0.00000  Uiso   1.00
O177   O     0.79524   0.45401   0.36261   0.00000  Uiso   1.00
O178   O     0.73876   0.69750   0.61231   0.00000  Uiso   1.00
N179   N     0.08066   0.00894   0.13847   0.00000  Uiso   1.00
N180   N     0.71138   0.28310   0.33641   0.00000  Uiso   1.00
N181   N     0.67117   0.74402   0.51435   0.00000  Uiso   1.00
N182   N     0.06791   0.13209   0.18549   0.00000  Uiso   1.00
N183   N     0.69864   0.40624   0.38343   0.00000  Uiso   1.00
N184   N     0.65843   0.86716   0.56137   0.00000  Uiso   1.00
C185   C     0.98881   0.49885   0.82560   0.00000  Uiso   1.00
C186   C     0.87321   0.46662   0.78552   0.00000  Uiso   1.00
C187   C     0.78311   0.50811   0.72563   0.00000  Uiso   1.00
C188   C     0.68446   0.46810   0.69680   0.00000  Uiso   1.00
C189   C     0.50620   0.42998   0.62999   0.00000  Uiso   1.00
C190   C     0.04703   0.39105   0.84006   0.00000  Uiso   1.00
C191   C     0.10309   0.36901   0.82604   0.00000  Uiso   1.00
C192   C     0.15077   0.26539   0.84313   0.00000  Uiso   1.00
C193   C     0.24244   0.10998   0.86104   0.00000  Uiso   1.00
C194   C     0.03593   0.53963   0.88910   0.00000  Uiso   1.00
C195   C     0.08268   0.64250   0.91631   0.00000  Uiso   1.00
C196   C     0.12104   0.66397   0.97469   0.00000  Uiso   1.00
C197   C     0.19547   0.73924   0.06874   0.00000  Uiso   1.00
C198   C     0.97383   0.35403   0.88089   0.00000  Uiso   1.00
C199   C     0.86508   0.38796   0.81556   0.00000  Uiso   1.00
C200   C     0.76654   0.34788   0.78681   0.00000  Uiso   1.00
C201   C     0.67631   0.38930   0.72689   0.00000  Uiso   1.00
C202   C     0.03890   0.31239   0.87010   0.00000  Uiso   1.00
C203   C     0.08651   0.20879   0.88722   0.00000  Uiso   1.00
C204   C     0.14262   0.18659   0.87322   0.00000  Uiso   1.00
C205   C     0.02779   0.46097   0.91913   0.00000  Uiso   1.00
C206   C     0.06610   0.48228   0.97749   0.00000  Uiso   1.00
C207   C     0.11289   0.58516   0.00478   0.00000  Uiso   1.00
H208   H     0.99515   0.56009   0.80221   0.00000  Uiso   1.00
H209   H     0.78945   0.56898   0.70240   0.00000  Uiso   1.00
H210   H     0.10938   0.42991   0.80280   0.00000  Uiso   1.00
H211   H     0.08897   0.70335   0.89305   0.00000  Uiso   1.00
H212   H     0.55779   0.54411   0.60497   0.00000  Uiso   1.00
H213   H     0.23242   0.25088   0.81669   0.00000  Uiso   1.00
H214   H     0.18939   0.82750   0.00701   0.00000  Uiso   1.00
H215   H     0.96750   0.29279   0.90428   0.00000  Uiso   1.00
H216   H     0.76026   0.28701   0.81007   0.00000  Uiso   1.00
H217   H     0.08020   0.14794   0.91046   0.00000  Uiso   1.00
H218   H     0.05979   0.42139   0.00072   0.00000  Uiso   1.00
H219   H     0.53411   0.31525   0.69236   0.00000  Uiso   1.00
H220   H     0.20875   0.02203   0.90408   0.00000  Uiso   1.00
H221   H     0.16570   0.59865   0.09440   0.00000  Uiso   1.00
O222   O     0.41013   0.43067   0.58483   0.00000  Uiso   1.00
O223   O     0.29524   0.04599   0.86261   0.00000  Uiso   1.00
O224   O     0.23876   0.80250   0.11231   0.00000  Uiso   1.00
N225   N     0.58066   0.49106   0.63847   0.00000  Uiso   1.00
N226   N     0.21138   0.21690   0.83641   0.00000  Uiso   1.00
N227   N     0.17117   0.75598   0.01435   0.00000  Uiso   1.00
N228   N     0.56791   0.36791   0.68549   0.00000  Uiso   1.00
N229   N     0.19864   0.09376   0.88343   0.00000  Uiso   1.00
N230   N     0.15843   0.63284   0.06137   0.00000  Uiso   1.00
C231   C     0.48881   0.99885   0.82560   0.00000  Uiso   1.00
C232   C     0.37321   0.96662   0.78552   0.00000  Uiso   1.00
C233   C     0.28311   0.00811   0.72563   0.00000  Uiso   1.00
C234   C     0.18446   0.96810   0.69680   0.00000  Uiso   1.00
C235   C     0.00620   0.92998   0.62999   0.00000  Uiso   1.00
C236   C     0.54703   0.89105   0.84006   0.00000  Uiso   1.00
C237   C     0.60309   0.86901   0.82604   0.00000  Uiso   1.00
C238   C     0.65077   0.76539   0.84313   0.00000  Uiso   1.00
C239   C     0.74244   0.60998   0.86104   0.00000  Uiso   1.00
C240   C     0.53593   0.03963   0.88910   0.00000  Uiso   1.00
C241   C     0.58268   0.14250   0.91631   0.00000  Uiso   1.00
C242   C     0.62104   0.16397   0.97469   0.00000  Uiso   1.00
C243   C     0.69547   0.23924   0.06874   0.00000  Uiso   1.00
C244   C     0.47383   0.85403   0.88089   0.00000  Uiso   1.00
C245   C     0.36508   0.88796   0.81556   0.00000  Uiso   1.00
C246   C     0.26654   0.84788   0.78681   0.00000  Uiso   1.00
C247   C     0.17631   0.88930   0.72689   0.00000  Uiso   1.00
C248   C     0.53890   0.81239   0.87010   0.00000  Uiso   1.00
C249   C     0.58651   0.70879   0.88722   0.00000  Uiso   1.00
C250   C     0.64262   0.68659   0.87322   0.00000  Uiso   1.00
C251   C     0.52779   0.96097   0.91913   0.00000  Uiso   1.00
C252   C     0.56610   0.98228   0.97749   0.00000  Uiso   1.00
C253   C     0.61289   0.08516   0.00478   0.00000  Uiso   1.00
H254   H     0.49515   0.06009   0.80221   0.00000  Uiso   1.00
H255   H     0.28945   0.06898   0.70240   0.00000  Uiso   1.00
H256   H     0.60938   0.92991   0.80280   0.00000  Uiso   1.00
H257   H     0.58897   0.20335   0.89305   0.00000  Uiso   1.00
H258   H     0.05779   0.04411   0.60497   0.00000  Uiso   1.00
H259   H     0.73242   0.75088   0.81669   0.00000  Uiso   1.00
H260   H     0.68939   0.32750   0.00701   0.00000  Uiso   1.00
H261   H     0.46750   0.79279   0.90428   0.00000  Uiso   1.00
H262   H     0.26026   0.78701   0.81007   0.00000  Uiso   1.00
H263   H     0.58020   0.64794   0.91046   0.00000  Uiso   1.00
H264   H     0.55979   0.92139   0.00072   0.00000  Uiso   1.00
H265   H     0.03411   0.81525   0.69236   0.00000  Uiso   1.00
H266   H     0.70875   0.52203   0.90408   0.00000  Uiso   1.00
H267   H     0.66570   0.09865   0.09440   0.00000  Uiso   1.00
O268   O     0.91013   0.93067   0.58483   0.00000  Uiso   1.00
O269   O     0.79524   0.54599   0.86261   0.00000  Uiso   1.00
O270   O     0.73876   0.30250   0.11231   0.00000  Uiso   1.00
N271   N     0.08066   0.99106   0.63847   0.00000  Uiso   1.00
N272   N     0.71138   0.71690   0.83641   0.00000  Uiso   1.00
N273   N     0.67117   0.25598   0.01435   0.00000  Uiso   1.00
N274   N     0.06791   0.86791   0.68549   0.00000  Uiso   1.00
N275   N     0.69864   0.59376   0.88343   0.00000  Uiso   1.00
N276   N     0.65843   0.13284   0.06137   0.00000  Uiso   1.00
C277   C     0.01119   0.49885   0.67440   0.00000  Uiso   1.00
C278   C     0.12679   0.46662   0.71448   0.00000  Uiso   1.00
C279   C     0.21689   0.50811   0.77437   0.00000  Uiso   1.00
C280   C     0.31554   0.46810   0.80320   0.00000  Uiso   1.00
C281   C     0.49380   0.42998   0.87001   0.00000  Uiso   1.00
C282   C     0.95297   0.39105   0.65994   0.00000  Uiso   1.00
C283   C     0.89691   0.36901   0.67396   0.00000  Uiso   1.00
C284   C     0.84923   0.26539   0.65687   0.00000  Uiso   1.00
C285   C     0.75756   0.10998   0.63896   0.00000  Uiso   1.00
C286   C     0.96407   0.53963   0.61090   0.00000  Uiso   1.00
C287   C     0.91732   0.64250   0.58369   0.00000  Uiso   1.00
C288   C     0.87896   0.66397   0.52531   0.00000  Uiso   1.00
C289   C     0.80453   0.73924   0.43126   0.00000  Uiso   1.00
C290   C     0.02617   0.35403   0.61911   0.00000  Uiso   1.00
C291   C     0.13492   0.38796   0.68444   0.00000  Uiso   1.00
C292   C     0.23346   0.34788   0.71319   0.00000  Uiso   1.00
C293   C     0.32369   0.38930   0.77311   0.00000  Uiso   1.00
C294   C     0.96110   0.31239   0.62990   0.00000  Uiso   1.00
C295   C     0.91349   0.20879   0.61278   0.00000  Uiso   1.00
C296   C     0.85738   0.18659   0.62678   0.00000  Uiso   1.00
C297   C     0.97221   0.46097   0.58087   0.00000  Uiso   1.00
C298   C     0.93390   0.48228   0.52251   0.00000  Uiso   1.00
C299   C     0.88711   0.58516   0.49522   0.00000  Uiso   1.00
H300   H     0.00485   0.56009   0.69779   0.00000  Uiso   1.00
H301   H     0.21055   0.56898   0.79760   0.00000  Uiso   1.00
H302   H     0.89062   0.42991   0.69720   0.00000  Uiso   1.00
H303   H     0.91103   0.70335   0.60695   0.00000  Uiso   1.00
H304   H     0.44221   0.54411   0.89503   0.00000  Uiso   1.00
H305   H     0.76758   0.25088   0.68331   0.00000  Uiso   1.00
H306   H     0.81061   0.82750   0.49299   0.00000  Uiso   1.00
H307   H     0.03250   0.29279   0.59572   0.00000  Uiso   1.00
H308   H     0.23974   0.28701   0.68993   0.00000  Uiso   1.00
H309   H     0.91980   0.14794   0.58954   0.00000  Uiso   1.00
H310   H     0.94021   0.42139   0.49928   0.00000  Uiso   1.00
H311   H     0.46589   0.31525   0.80764   0.00000  Uiso   1.00
H312   H     0.79125   0.02203   0.59592   0.00000  Uiso   1.00
H313   H     0.83430   0.59865   0.40560   0.00000  Uiso   1.00
O314   O     0.58987   0.43067   0.91517   0.00000  Uiso   1.00
O315   O     0.70476   0.04599   0.63739   0.00000  Uiso   1.00
O316   O     0.76124   0.80250   0.38769   0.00000  Uiso   1.00
N317   N     0.41934   0.49106   0.86153   0.00000  Uiso   1.00
N318   N     0.78862   0.21690   0.66359   0.00000  Uiso   1.00
N319   N     0.82883   0.75598   0.48565   0.00000  Uiso   1.00
N320   N     0.43209   0.36791   0.81451   0.00000  Uiso   1.00
N321   N     0.80136   0.09376   0.61657   0.00000  Uiso   1.00
N322   N     0.84157   0.63284   0.43863   0.00000  Uiso   1.00
C323   C     0.51119   0.99885   0.67440   0.00000  Uiso   1.00
C324   C     0.62679   0.96662   0.71448   0.00000  Uiso   1.00
C325   C     0.71689   0.00811   0.77437   0.00000  Uiso   1.00
C326   C     0.81554   0.96810   0.80320   0.00000  Uiso   1.00
C327   C     0.99380   0.92998   0.87001   0.00000  Uiso   1.00
C328   C     0.45297   0.89105   0.65994   0.00000  Uiso   1.00
C329   C     0.39691   0.86901   0.67396   0.00000  Uiso   1.00
C330   C     0.34923   0.76539   0.65687   0.00000  Uiso   1.00
C331   C     0.25756   0.60998   0.63896   0.00000  Uiso   1.00
C332   C     0.46407   0.03963   0.61090   0.00000  Uiso   1.00
C333   C     0.41732   0.14250   0.58369   0.00000  Uiso   1.00
C334   C     0.37896   0.16397   0.52531   0.00000  Uiso   1.00
C335   C     0.30453   0.23924   0.43126   0.00000  Uiso   1.00
C336   C     0.52617   0.85403   0.61911   0.00000  Uiso   1.00
C337   C     0.63492   0.88796   0.68444   0.00000  Uiso   1.00
C338   C     0.73346   0.84788   0.71319   0.00000  Uiso   1.00
C339   C     0.82369   0.88930   0.77311   0.00000  Uiso   1.00
C340   C     0.46110   0.81239   0.62990   0.00000  Uiso   1.00
C341   C     0.41349   0.70879   0.61278   0.00000  Uiso   1.00
C342   C     0.35738   0.68659   0.62678   0.00000  Uiso   1.00
C343   C     0.47221   0.96097   0.58087   0.00000  Uiso   1.00
C344   C     0.43390   0.98228   0.52251   0.00000  Uiso   1.00
C345   C     0.38711   0.08516   0.49522   0.00000  Uiso   1.00
H346   H     0.50485   0.06009   0.69779   0.00000  Uiso   1.00
H347   H     0.71055   0.06898   0.79760   0.00000  Uiso   1.00
H348   H     0.39062   0.92991   0.69720   0.00000  Uiso   1.00
H349   H     0.41103   0.20335   0.60695   0.00000  Uiso   1.00
H350   H     0.94221   0.04411   0.89503   0.00000  Uiso   1.00
H351   H     0.26758   0.75088   0.68331   0.00000  Uiso   1.00
H352   H     0.31061   0.32750   0.49299   0.00000  Uiso   1.00
H353   H     0.53250   0.79279   0.59572   0.00000  Uiso   1.00
H354   H     0.73974   0.78701   0.68993   0.00000  Uiso   1.00
H355   H     0.41980   0.64794   0.58954   0.00000  Uiso   1.00
H356   H     0.44021   0.92139   0.49928   0.00000  Uiso   1.00
H357   H     0.96589   0.81525   0.80764   0.00000  Uiso   1.00
H358   H     0.29125   0.52203   0.59592   0.00000  Uiso   1.00
H359   H     0.33430   0.09865   0.40560   0.00000  Uiso   1.00
O360   O     0.08987   0.93067   0.91517   0.00000  Uiso   1.00
O361   O     0.20476   0.54599   0.63739   0.00000  Uiso   1.00
O362   O     0.26124   0.30250   0.38769   0.00000  Uiso   1.00
N363   N     0.91934   0.99106   0.86153   0.00000  Uiso   1.00
N364   N     0.28862   0.71690   0.66359   0.00000  Uiso   1.00
N365   N     0.32883   0.25598   0.48565   0.00000  Uiso   1.00
N366   N     0.93209   0.86791   0.81451   0.00000  Uiso   1.00
N367   N     0.30136   0.59376   0.61657   0.00000  Uiso   1.00
N368   N     0.34157   0.13284   0.43863   0.00000  Uiso   1.00
