data_job_03188
_audit_creation_date              2018-12-19
_audit_creation_method            'Materials Studio'
_symmetry_space_group_name_H-M    'P1'
_symmetry_Int_Tables_number       1
_symmetry_cell_setting            triclinic
loop_
_symmetry_equiv_pos_as_xyz
  x,y,z
_cell_length_a                    11.6102
_cell_length_b                    11.6102
_cell_length_c                    33.1147
_cell_angle_alpha                 90.0000
_cell_angle_beta                  90.0000
_cell_angle_gamma                 120.0000
loop_
_atom_site_label
_atom_site_type_symbol
_atom_site_fract_x
_atom_site_fract_y
_atom_site_fract_z
_atom_site_U_iso_or_equiv
_atom_site_adp_type
_atom_site_occupancy
C1     C     0.02233   0.19185   0.55396   0.00000  Uiso   1.00
C2     C     0.16358   0.30995   0.55196   0.00000  Uiso   1.00
C3     C     0.27926   0.30485   0.55793   0.00000  Uiso   1.00
C4     C     0.39876   0.42386   0.55482   0.00000  Uiso   1.00
C5     C     0.61755   0.58905   0.55307   0.00000  Uiso   1.00
C6     C     0.94967   0.22804   0.58538   0.00000  Uiso   1.00
C7     C     0.88548   0.15406   0.61945   0.00000  Uiso   1.00
C8     C     0.82489   0.20411   0.64447   0.00000  Uiso   1.00
C9     C     0.71150   0.24208   0.69460   0.00000  Uiso   1.00
C10    C     0.95820   0.18860   0.51347   0.00000  Uiso   1.00
C11    C     0.90114   0.08144   0.48709   0.00000  Uiso   1.00
C12    C     0.84770   0.09828   0.45157   0.00000  Uiso   1.00
C13    C     0.74754   0.07501   0.39004   0.00000  Uiso   1.00
C14    C     0.02885   0.41228   0.53781   0.00000  Uiso   1.00
C15    C     0.16712   0.42968   0.54319   0.00000  Uiso   1.00
C16    C     0.28647   0.54873   0.54006   0.00000  Uiso   1.00
C17    C     0.40231   0.54380   0.54603   0.00000  Uiso   1.00
C18    C     0.95321   0.34777   0.57661   0.00000  Uiso   1.00
C19    C     0.89270   0.39794   0.60158   0.00000  Uiso   1.00
C20    C     0.82844   0.32405   0.63569   0.00000  Uiso   1.00
C21    C     0.96174   0.30833   0.50470   0.00000  Uiso   1.00
C22    C     0.90836   0.32533   0.46922   0.00000  Uiso   1.00
C23    C     0.85124   0.21822   0.44278   0.00000  Uiso   1.00
H24    H     0.01957   0.09863   0.56079   0.00000  Uiso   1.00
H25    H     0.27648   0.21218   0.56473   0.00000  Uiso   1.00
H26    H     0.88275   0.06140   0.62623   0.00000  Uiso   1.00
H27    H     0.89841   0.98881   0.49388   0.00000  Uiso   1.00
H28    H     0.56287   0.39087   0.56523   0.00000  Uiso   1.00
H29    H     0.73264   0.07293   0.69492   0.00000  Uiso   1.00
H30    H     0.76566   0.91984   0.41584   0.00000  Uiso   1.00
H31    H     0.03160   0.50549   0.53098   0.00000  Uiso   1.00
H32    H     0.28918   0.64137   0.53328   0.00000  Uiso   1.00
H33    H     0.89545   0.49059   0.59478   0.00000  Uiso   1.00
H34    H     0.91112   0.41799   0.46244   0.00000  Uiso   1.00
H35    H     0.57318   0.73922   0.53971   0.00000  Uiso   1.00
H36    H     0.74294   0.42127   0.66939   0.00000  Uiso   1.00
H37    H     0.77597   0.26819   0.39031   0.00000  Uiso   1.00
O38    O     0.73725   0.64709   0.55453   0.00000  Uiso   1.00
O39    O     0.64799   0.22995   0.72467   0.00000  Uiso   1.00
O40    O     0.69133   0.02911   0.35852   0.00000  Uiso   1.00
N41    N     0.52995   0.45420   0.55890   0.00000  Uiso   1.00
N42    N     0.75375   0.15696   0.68015   0.00000  Uiso   1.00
N43    N     0.78459   0.01382   0.41924   0.00000  Uiso   1.00
N44    N     0.53550   0.64165   0.54517   0.00000  Uiso   1.00
N45    N     0.75930   0.34440   0.66642   0.00000  Uiso   1.00
N46    N     0.79014   0.20126   0.40551   0.00000  Uiso   1.00
C47    C     0.80815   0.83048   0.22063   0.00000  Uiso   1.00
C48    C     0.69005   0.85363   0.21863   0.00000  Uiso   1.00
C49    C     0.69515   0.97441   0.22460   0.00000  Uiso   1.00
C50    C     0.57614   0.97490   0.22149   0.00000  Uiso   1.00
C51    C     0.41095   0.02850   0.21974   0.00000  Uiso   1.00
C52    C     0.77196   0.72163   0.25205   0.00000  Uiso   1.00
C53    C     0.84594   0.73143   0.28612   0.00000  Uiso   1.00
C54    C     0.79589   0.62079   0.31114   0.00000  Uiso   1.00
C55    C     0.75792   0.46942   0.36126   0.00000  Uiso   1.00
C56    C     0.81140   0.76960   0.18014   0.00000  Uiso   1.00
C57    C     0.91856   0.81969   0.15375   0.00000  Uiso   1.00
C58    C     0.90172   0.74942   0.11823   0.00000  Uiso   1.00
C59    C     0.92499   0.67253   0.05671   0.00000  Uiso   1.00
C60    C     0.58772   0.61657   0.20447   0.00000  Uiso   1.00
C61    C     0.57032   0.73744   0.20985   0.00000  Uiso   1.00
C62    C     0.45127   0.73774   0.20673   0.00000  Uiso   1.00
C63    C     0.45620   0.85850   0.21270   0.00000  Uiso   1.00
C64    C     0.65223   0.60545   0.24328   0.00000  Uiso   1.00
C65    C     0.60206   0.49476   0.26825   0.00000  Uiso   1.00
C66    C     0.67595   0.50439   0.30235   0.00000  Uiso   1.00
C67    C     0.69167   0.65341   0.17137   0.00000  Uiso   1.00
C68    C     0.67467   0.58303   0.13588   0.00000  Uiso   1.00
C69    C     0.78178   0.63302   0.10945   0.00000  Uiso   1.00
H70    H     0.90137   0.92093   0.22746   0.00000  Uiso   1.00
H71    H     0.78782   0.06430   0.23139   0.00000  Uiso   1.00
H72    H     0.93860   0.82135   0.29290   0.00000  Uiso   1.00
H73    H     0.01119   0.90961   0.16055   0.00000  Uiso   1.00
H74    H     0.60913   0.17200   0.23190   0.00000  Uiso   1.00
H75    H     0.92707   0.65971   0.36158   0.00000  Uiso   1.00
H76    H     0.08016   0.84582   0.08250   0.00000  Uiso   1.00
H77    H     0.49451   0.52611   0.19765   0.00000  Uiso   1.00
H78    H     0.35863   0.64782   0.19994   0.00000  Uiso   1.00
H79    H     0.50941   0.40486   0.26145   0.00000  Uiso   1.00
H80    H     0.58201   0.49313   0.12910   0.00000  Uiso   1.00
H81    H     0.26078   0.83396   0.20638   0.00000  Uiso   1.00
H82    H     0.57873   0.32167   0.33606   0.00000  Uiso   1.00
H83    H     0.73181   0.50778   0.05698   0.00000  Uiso   1.00
O84    O     0.35291   0.09016   0.22120   0.00000  Uiso   1.00
O85    O     0.77005   0.41804   0.39134   0.00000  Uiso   1.00
O86    O     0.97089   0.66222   0.02519   0.00000  Uiso   1.00
N87    N     0.54580   0.07575   0.22557   0.00000  Uiso   1.00
N88    N     0.84304   0.59679   0.34682   0.00000  Uiso   1.00
N89    N     0.98618   0.77077   0.08591   0.00000  Uiso   1.00
N90    N     0.35835   0.89385   0.21184   0.00000  Uiso   1.00
N91    N     0.65560   0.41490   0.33309   0.00000  Uiso   1.00
N92    N     0.79874   0.58888   0.07217   0.00000  Uiso   1.00
C93    C     0.16952   0.97767   0.88729   0.00000  Uiso   1.00
C94    C     0.14637   0.83642   0.88529   0.00000  Uiso   1.00
C95    C     0.02559   0.72074   0.89127   0.00000  Uiso   1.00
C96    C     0.02510   0.60124   0.88816   0.00000  Uiso   1.00
C97    C     0.97150   0.38245   0.88640   0.00000  Uiso   1.00
C98    C     0.27837   0.05033   0.91871   0.00000  Uiso   1.00
C99    C     0.26857   0.11452   0.95279   0.00000  Uiso   1.00
C100   C     0.37921   0.17511   0.97781   0.00000  Uiso   1.00
C101   C     0.53058   0.28850   0.02793   0.00000  Uiso   1.00
C102   C     0.23040   0.04180   0.84681   0.00000  Uiso   1.00
C103   C     0.18031   0.09886   0.82042   0.00000  Uiso   1.00
C104   C     0.25058   0.15230   0.78490   0.00000  Uiso   1.00
C105   C     0.32747   0.25246   0.72337   0.00000  Uiso   1.00
C106   C     0.38343   0.97115   0.87114   0.00000  Uiso   1.00
C107   C     0.26256   0.83288   0.87652   0.00000  Uiso   1.00
C108   C     0.26226   0.71353   0.87340   0.00000  Uiso   1.00
C109   C     0.14150   0.59769   0.87937   0.00000  Uiso   1.00
C110   C     0.39455   0.04679   0.90994   0.00000  Uiso   1.00
C111   C     0.50524   0.10730   0.93492   0.00000  Uiso   1.00
C112   C     0.49561   0.17156   0.96902   0.00000  Uiso   1.00
C113   C     0.34659   0.03826   0.83803   0.00000  Uiso   1.00
C114   C     0.41697   0.09164   0.80255   0.00000  Uiso   1.00
C115   C     0.36698   0.14876   0.77611   0.00000  Uiso   1.00
H116   H     0.07907   0.98043   0.89412   0.00000  Uiso   1.00
H117   H     0.93570   0.72352   0.89806   0.00000  Uiso   1.00
H118   H     0.17865   0.11725   0.95957   0.00000  Uiso   1.00
H119   H     0.09039   0.10159   0.82722   0.00000  Uiso   1.00
H120   H     0.82800   0.43713   0.89857   0.00000  Uiso   1.00
H121   H     0.34029   0.26736   0.02825   0.00000  Uiso   1.00
H122   H     0.15418   0.23434   0.74917   0.00000  Uiso   1.00
H123   H     0.47389   0.96840   0.86431   0.00000  Uiso   1.00
H124   H     0.35218   0.71082   0.86661   0.00000  Uiso   1.00
H125   H     0.59514   0.10455   0.92812   0.00000  Uiso   1.00
H126   H     0.50687   0.08888   0.79577   0.00000  Uiso   1.00
H127   H     0.16604   0.42682   0.87304   0.00000  Uiso   1.00
H128   H     0.67833   0.25706   0.00273   0.00000  Uiso   1.00
H129   H     0.49222   0.22403   0.72365   0.00000  Uiso   1.00
O130   O     0.90984   0.26275   0.88787   0.00000  Uiso   1.00
O131   O     0.58196   0.35201   0.05800   0.00000  Uiso   1.00
O132   O     0.33778   0.30867   0.69186   0.00000  Uiso   1.00
N133   N     0.92425   0.47005   0.89224   0.00000  Uiso   1.00
N134   N     0.40321   0.24625   0.01349   0.00000  Uiso   1.00
N135   N     0.22923   0.21541   0.75258   0.00000  Uiso   1.00
N136   N     0.10615   0.46450   0.87850   0.00000  Uiso   1.00
N137   N     0.58510   0.24070   0.99975   0.00000  Uiso   1.00
N138   N     0.41112   0.20986   0.73884   0.00000  Uiso   1.00
C139   C     0.19185   0.02233   0.44604   0.00000  Uiso   1.00
C140   C     0.30995   0.16358   0.44804   0.00000  Uiso   1.00
C141   C     0.30485   0.27926   0.44207   0.00000  Uiso   1.00
C142   C     0.42386   0.39876   0.44518   0.00000  Uiso   1.00
C143   C     0.58905   0.61755   0.44693   0.00000  Uiso   1.00
C144   C     0.22804   0.94967   0.41462   0.00000  Uiso   1.00
C145   C     0.15406   0.88548   0.38055   0.00000  Uiso   1.00
C146   C     0.20411   0.82489   0.35553   0.00000  Uiso   1.00
C147   C     0.24208   0.71150   0.30540   0.00000  Uiso   1.00
C148   C     0.18860   0.95820   0.48653   0.00000  Uiso   1.00
C149   C     0.08144   0.90114   0.51291   0.00000  Uiso   1.00
C150   C     0.09828   0.84770   0.54843   0.00000  Uiso   1.00
C151   C     0.07501   0.74754   0.60996   0.00000  Uiso   1.00
C152   C     0.41228   0.02885   0.46219   0.00000  Uiso   1.00
C153   C     0.42968   0.16712   0.45681   0.00000  Uiso   1.00
C154   C     0.54873   0.28647   0.45994   0.00000  Uiso   1.00
C155   C     0.54380   0.40231   0.45397   0.00000  Uiso   1.00
C156   C     0.34777   0.95321   0.42339   0.00000  Uiso   1.00
C157   C     0.39794   0.89270   0.39842   0.00000  Uiso   1.00
C158   C     0.32405   0.82844   0.36431   0.00000  Uiso   1.00
C159   C     0.30833   0.96174   0.49530   0.00000  Uiso   1.00
C160   C     0.32533   0.90836   0.53078   0.00000  Uiso   1.00
C161   C     0.21822   0.85124   0.55722   0.00000  Uiso   1.00
H162   H     0.09863   0.01957   0.43921   0.00000  Uiso   1.00
H163   H     0.21218   0.27648   0.43527   0.00000  Uiso   1.00
H164   H     0.06140   0.88275   0.37377   0.00000  Uiso   1.00
H165   H     0.98881   0.89841   0.50612   0.00000  Uiso   1.00
H166   H     0.39087   0.56287   0.43477   0.00000  Uiso   1.00
H167   H     0.07293   0.73264   0.30508   0.00000  Uiso   1.00
H168   H     0.91984   0.76566   0.58416   0.00000  Uiso   1.00
H169   H     0.50549   0.03160   0.46902   0.00000  Uiso   1.00
H170   H     0.64137   0.28918   0.46672   0.00000  Uiso   1.00
H171   H     0.49059   0.89545   0.40522   0.00000  Uiso   1.00
H172   H     0.41799   0.91112   0.53756   0.00000  Uiso   1.00
H173   H     0.73922   0.57318   0.46029   0.00000  Uiso   1.00
H174   H     0.42127   0.74294   0.33061   0.00000  Uiso   1.00
H175   H     0.26819   0.77597   0.60969   0.00000  Uiso   1.00
O176   O     0.64709   0.73725   0.44547   0.00000  Uiso   1.00
O177   O     0.22995   0.64799   0.27533   0.00000  Uiso   1.00
O178   O     0.02911   0.69133   0.64148   0.00000  Uiso   1.00
N179   N     0.45420   0.52995   0.44110   0.00000  Uiso   1.00
N180   N     0.15696   0.75375   0.31985   0.00000  Uiso   1.00
N181   N     0.01382   0.78459   0.58076   0.00000  Uiso   1.00
N182   N     0.64165   0.53550   0.45483   0.00000  Uiso   1.00
N183   N     0.34440   0.75930   0.33358   0.00000  Uiso   1.00
N184   N     0.20126   0.79014   0.59449   0.00000  Uiso   1.00
C185   C     0.83048   0.80815   0.77937   0.00000  Uiso   1.00
C186   C     0.85363   0.69005   0.78137   0.00000  Uiso   1.00
C187   C     0.97441   0.69515   0.77540   0.00000  Uiso   1.00
C188   C     0.97490   0.57614   0.77851   0.00000  Uiso   1.00
C189   C     0.02850   0.41095   0.78026   0.00000  Uiso   1.00
C190   C     0.72163   0.77196   0.74795   0.00000  Uiso   1.00
C191   C     0.73143   0.84594   0.71388   0.00000  Uiso   1.00
C192   C     0.62079   0.79589   0.68886   0.00000  Uiso   1.00
C193   C     0.46942   0.75792   0.63874   0.00000  Uiso   1.00
C194   C     0.76960   0.81140   0.81986   0.00000  Uiso   1.00
C195   C     0.81969   0.91856   0.84625   0.00000  Uiso   1.00
C196   C     0.74942   0.90172   0.88177   0.00000  Uiso   1.00
C197   C     0.67253   0.92499   0.94329   0.00000  Uiso   1.00
C198   C     0.61657   0.58772   0.79553   0.00000  Uiso   1.00
C199   C     0.73744   0.57032   0.79015   0.00000  Uiso   1.00
C200   C     0.73774   0.45127   0.79327   0.00000  Uiso   1.00
C201   C     0.85850   0.45620   0.78730   0.00000  Uiso   1.00
C202   C     0.60545   0.65223   0.75672   0.00000  Uiso   1.00
C203   C     0.49476   0.60206   0.73175   0.00000  Uiso   1.00
C204   C     0.50439   0.67595   0.69765   0.00000  Uiso   1.00
C205   C     0.65341   0.69167   0.82863   0.00000  Uiso   1.00
C206   C     0.58303   0.67467   0.86412   0.00000  Uiso   1.00
C207   C     0.63302   0.78178   0.89055   0.00000  Uiso   1.00
H208   H     0.92093   0.90137   0.77254   0.00000  Uiso   1.00
H209   H     0.06430   0.78782   0.76861   0.00000  Uiso   1.00
H210   H     0.82135   0.93860   0.70710   0.00000  Uiso   1.00
H211   H     0.90961   0.01119   0.83945   0.00000  Uiso   1.00
H212   H     0.17200   0.60913   0.76810   0.00000  Uiso   1.00
H213   H     0.65971   0.92707   0.63842   0.00000  Uiso   1.00
H214   H     0.84582   0.08016   0.91750   0.00000  Uiso   1.00
H215   H     0.52611   0.49451   0.80235   0.00000  Uiso   1.00
H216   H     0.64782   0.35863   0.80006   0.00000  Uiso   1.00
H217   H     0.40486   0.50941   0.73855   0.00000  Uiso   1.00
H218   H     0.49313   0.58201   0.87090   0.00000  Uiso   1.00
H219   H     0.83396   0.26078   0.79362   0.00000  Uiso   1.00
H220   H     0.32167   0.57873   0.66394   0.00000  Uiso   1.00
H221   H     0.50778   0.73181   0.94302   0.00000  Uiso   1.00
O222   O     0.09016   0.35291   0.77880   0.00000  Uiso   1.00
O223   O     0.41804   0.77005   0.60866   0.00000  Uiso   1.00
O224   O     0.66222   0.97089   0.97481   0.00000  Uiso   1.00
N225   N     0.07575   0.54580   0.77443   0.00000  Uiso   1.00
N226   N     0.59679   0.84304   0.65318   0.00000  Uiso   1.00
N227   N     0.77077   0.98618   0.91409   0.00000  Uiso   1.00
N228   N     0.89385   0.35835   0.78816   0.00000  Uiso   1.00
N229   N     0.41490   0.65560   0.66691   0.00000  Uiso   1.00
N230   N     0.58888   0.79874   0.92783   0.00000  Uiso   1.00
C231   C     0.97767   0.16952   0.11271   0.00000  Uiso   1.00
C232   C     0.83642   0.14637   0.11471   0.00000  Uiso   1.00
C233   C     0.72074   0.02559   0.10873   0.00000  Uiso   1.00
C234   C     0.60124   0.02510   0.11184   0.00000  Uiso   1.00
C235   C     0.38245   0.97150   0.11360   0.00000  Uiso   1.00
C236   C     0.05033   0.27837   0.08129   0.00000  Uiso   1.00
C237   C     0.11452   0.26857   0.04721   0.00000  Uiso   1.00
C238   C     0.17511   0.37921   0.02219   0.00000  Uiso   1.00
C239   C     0.28850   0.53058   0.97207   0.00000  Uiso   1.00
C240   C     0.04180   0.23040   0.15319   0.00000  Uiso   1.00
C241   C     0.09886   0.18031   0.17958   0.00000  Uiso   1.00
C242   C     0.15230   0.25058   0.21510   0.00000  Uiso   1.00
C243   C     0.25246   0.32747   0.27663   0.00000  Uiso   1.00
C244   C     0.97115   0.38343   0.12886   0.00000  Uiso   1.00
C245   C     0.83288   0.26256   0.12348   0.00000  Uiso   1.00
C246   C     0.71353   0.26226   0.12660   0.00000  Uiso   1.00
C247   C     0.59769   0.14150   0.12063   0.00000  Uiso   1.00
C248   C     0.04679   0.39455   0.09006   0.00000  Uiso   1.00
C249   C     0.10730   0.50524   0.06508   0.00000  Uiso   1.00
C250   C     0.17156   0.49561   0.03098   0.00000  Uiso   1.00
C251   C     0.03826   0.34659   0.16197   0.00000  Uiso   1.00
C252   C     0.09164   0.41697   0.19745   0.00000  Uiso   1.00
C253   C     0.14876   0.36698   0.22389   0.00000  Uiso   1.00
H254   H     0.98043   0.07907   0.10588   0.00000  Uiso   1.00
H255   H     0.72352   0.93570   0.10194   0.00000  Uiso   1.00
H256   H     0.11725   0.17865   0.04043   0.00000  Uiso   1.00
H257   H     0.10159   0.09039   0.17278   0.00000  Uiso   1.00
H258   H     0.43713   0.82800   0.10143   0.00000  Uiso   1.00
H259   H     0.26736   0.34029   0.97175   0.00000  Uiso   1.00
H260   H     0.23434   0.15418   0.25083   0.00000  Uiso   1.00
H261   H     0.96840   0.47389   0.13569   0.00000  Uiso   1.00
H262   H     0.71082   0.35218   0.13339   0.00000  Uiso   1.00
H263   H     0.10455   0.59514   0.07188   0.00000  Uiso   1.00
H264   H     0.08888   0.50687   0.20423   0.00000  Uiso   1.00
H265   H     0.42682   0.16604   0.12696   0.00000  Uiso   1.00
H266   H     0.25706   0.67833   0.99727   0.00000  Uiso   1.00
H267   H     0.22403   0.49222   0.27635   0.00000  Uiso   1.00
O268   O     0.26275   0.90984   0.11213   0.00000  Uiso   1.00
O269   O     0.35201   0.58196   0.94200   0.00000  Uiso   1.00
O270   O     0.30867   0.33778   0.30814   0.00000  Uiso   1.00
N271   N     0.47005   0.92425   0.10776   0.00000  Uiso   1.00
N272   N     0.24625   0.40321   0.98651   0.00000  Uiso   1.00
N273   N     0.21541   0.22923   0.24742   0.00000  Uiso   1.00
N274   N     0.46450   0.10615   0.12150   0.00000  Uiso   1.00
N275   N     0.24070   0.58510   0.00025   0.00000  Uiso   1.00
N276   N     0.20986   0.41112   0.26116   0.00000  Uiso   1.00
