data_job_02654
_audit_creation_date              2018-12-19
_audit_creation_method            'Materials Studio'
_symmetry_space_group_name_H-M    'P1'
_symmetry_Int_Tables_number       1
_symmetry_cell_setting            triclinic
loop_
_symmetry_equiv_pos_as_xyz
  x,y,z
_cell_length_a                    20.4100
_cell_length_b                    14.2818
_cell_length_c                    21.4321
_cell_angle_alpha                 90.0000
_cell_angle_beta                  33.6503
_cell_angle_gamma                 90.0000
loop_
_atom_site_label
_atom_site_type_symbol
_atom_site_fract_x
_atom_site_fract_y
_atom_site_fract_z
_atom_site_U_iso_or_equiv
_atom_site_adp_type
_atom_site_occupancy
C1     C     0.76801   0.68893   0.71981   0.00000  Uiso   1.00
C2     C     0.83742   0.63055   0.71178   0.00000  Uiso   1.00
C3     C     0.83562   0.53362   0.71772   0.00000  Uiso   1.00
C4     C     0.90531   0.49344   0.70860   0.00000  Uiso   1.00
C5     C     0.00253   0.39443   0.69840   0.00000  Uiso   1.00
C6     C     0.69448   0.75750   0.81643   0.00000  Uiso   1.00
C7     C     0.57250   0.76733   0.91036   0.00000  Uiso   1.00
C8     C     0.52187   0.83403   0.98933   0.00000  Uiso   1.00
C9     C     0.39719   0.93218   0.14156   0.00000  Uiso   1.00
C10    C     0.85914   0.74796   0.61289   0.00000  Uiso   1.00
C11    C     0.87560   0.74978   0.53568   0.00000  Uiso   1.00
C12    C     0.96358   0.80845   0.44329   0.00000  Uiso   1.00
C13    C     0.09456   0.89178   0.27949   0.00000  Uiso   1.00
C14    C     0.89497   0.78992   0.69304   0.00000  Uiso   1.00
C15    C     0.90637   0.68540   0.69724   0.00000  Uiso   1.00
C16    C     0.97608   0.64535   0.68810   0.00000  Uiso   1.00
C17    C     0.97439   0.54838   0.69403   0.00000  Uiso   1.00
C18    C     0.76343   0.81235   0.80189   0.00000  Uiso   1.00
C19    C     0.71296   0.87906   0.88074   0.00000  Uiso   1.00
C20    C     0.59095   0.88898   0.97476   0.00000  Uiso   1.00
C21    C     0.92810   0.80280   0.59834   0.00000  Uiso   1.00
C22    C     0.01606   0.86150   0.50606   0.00000  Uiso   1.00
C23    C     0.03265   0.86340   0.42873   0.00000  Uiso   1.00
H24    H     0.71432   0.64624   0.73114   0.00000  Uiso   1.00
H25    H     0.78224   0.49120   0.72899   0.00000  Uiso   1.00
H26    H     0.51917   0.72488   0.92158   0.00000  Uiso   1.00
H27    H     0.82222   0.70732   0.54697   0.00000  Uiso   1.00
H28    H     0.88791   0.34351   0.72023   0.00000  Uiso   1.00
H29    H     0.33321   0.83626   0.12631   0.00000  Uiso   1.00
H30    H     0.97225   0.79923   0.33636   0.00000  Uiso   1.00
H31    H     0.94865   0.83262   0.68172   0.00000  Uiso   1.00
H32    H     0.02943   0.68781   0.67685   0.00000  Uiso   1.00
H33    H     0.76635   0.92149   0.86945   0.00000  Uiso   1.00
H34    H     0.06940   0.90393   0.49483   0.00000  Uiso   1.00
H35    H     0.08853   0.50308   0.67792   0.00000  Uiso   1.00
H36    H     0.53384   0.99584   0.08400   0.00000  Uiso   1.00
H37    H     0.17288   0.95881   0.29405   0.00000  Uiso   1.00
O38    O     0.03710   0.32467   0.69680   0.00000  Uiso   1.00
O39    O     0.30937   0.97115   0.22955   0.00000  Uiso   1.00
O40    O     0.14777   0.92257   0.19315   0.00000  Uiso   1.00
N41    N     0.92406   0.40094   0.71092   0.00000  Uiso   1.00
N42    N     0.40545   0.86162   0.09059   0.00000  Uiso   1.00
N43    N     0.00287   0.82702   0.35206   0.00000  Uiso   1.00
N44    N     0.03202   0.48680   0.68815   0.00000  Uiso   1.00
N45    N     0.51341   0.94748   0.06782   0.00000  Uiso   1.00
N46    N     0.11083   0.91289   0.32930   0.00000  Uiso   1.00
C47    C     0.23199   0.18893   0.78019   0.00000  Uiso   1.00
C48    C     0.16258   0.13055   0.78822   0.00000  Uiso   1.00
C49    C     0.16438   0.03362   0.78228   0.00000  Uiso   1.00
C50    C     0.09469   0.99344   0.79140   0.00000  Uiso   1.00
C51    C     0.99747   0.89443   0.80160   0.00000  Uiso   1.00
C52    C     0.30552   0.25750   0.68357   0.00000  Uiso   1.00
C53    C     0.42750   0.26733   0.58964   0.00000  Uiso   1.00
C54    C     0.47813   0.33403   0.51067   0.00000  Uiso   1.00
C55    C     0.60281   0.43218   0.35844   0.00000  Uiso   1.00
C56    C     0.14086   0.24796   0.88711   0.00000  Uiso   1.00
C57    C     0.12440   0.24978   0.96432   0.00000  Uiso   1.00
C58    C     0.03642   0.30845   0.05671   0.00000  Uiso   1.00
C59    C     0.90544   0.39178   0.22051   0.00000  Uiso   1.00
C60    C     0.10503   0.28992   0.80696   0.00000  Uiso   1.00
C61    C     0.09363   0.18540   0.80276   0.00000  Uiso   1.00
C62    C     0.02392   0.14535   0.81190   0.00000  Uiso   1.00
C63    C     0.02561   0.04838   0.80597   0.00000  Uiso   1.00
C64    C     0.23657   0.31235   0.69811   0.00000  Uiso   1.00
C65    C     0.28704   0.37906   0.61926   0.00000  Uiso   1.00
C66    C     0.40905   0.38898   0.52524   0.00000  Uiso   1.00
C67    C     0.07190   0.30280   0.90166   0.00000  Uiso   1.00
C68    C     0.98394   0.36150   0.99394   0.00000  Uiso   1.00
C69    C     0.96735   0.36340   0.07127   0.00000  Uiso   1.00
H70    H     0.28568   0.14624   0.76886   0.00000  Uiso   1.00
H71    H     0.21776   0.99120   0.77101   0.00000  Uiso   1.00
H72    H     0.48083   0.22488   0.57842   0.00000  Uiso   1.00
H73    H     0.17778   0.20732   0.95303   0.00000  Uiso   1.00
H74    H     0.11209   0.84351   0.77977   0.00000  Uiso   1.00
H75    H     0.66679   0.33626   0.37369   0.00000  Uiso   1.00
H76    H     0.02775   0.29923   0.16364   0.00000  Uiso   1.00
H77    H     0.05135   0.33262   0.81828   0.00000  Uiso   1.00
H78    H     0.97057   0.18781   0.82315   0.00000  Uiso   1.00
H79    H     0.23365   0.42149   0.63055   0.00000  Uiso   1.00
H80    H     0.93060   0.40393   0.00517   0.00000  Uiso   1.00
H81    H     0.91147   0.00308   0.82208   0.00000  Uiso   1.00
H82    H     0.46616   0.49584   0.41600   0.00000  Uiso   1.00
H83    H     0.82712   0.45881   0.20595   0.00000  Uiso   1.00
O84    O     0.96290   0.82467   0.80320   0.00000  Uiso   1.00
O85    O     0.69063   0.47115   0.27045   0.00000  Uiso   1.00
O86    O     0.85223   0.42257   0.30685   0.00000  Uiso   1.00
N87    N     0.07594   0.90094   0.78908   0.00000  Uiso   1.00
N88    N     0.59455   0.36162   0.40941   0.00000  Uiso   1.00
N89    N     0.99713   0.32702   0.14794   0.00000  Uiso   1.00
N90    N     0.96798   0.98680   0.81185   0.00000  Uiso   1.00
N91    N     0.48659   0.44748   0.43218   0.00000  Uiso   1.00
N92    N     0.88917   0.41289   0.17070   0.00000  Uiso   1.00
C93    C     0.23199   0.31107   0.28019   0.00000  Uiso   1.00
C94    C     0.16258   0.36945   0.28822   0.00000  Uiso   1.00
C95    C     0.16438   0.46638   0.28228   0.00000  Uiso   1.00
C96    C     0.09469   0.50656   0.29140   0.00000  Uiso   1.00
C97    C     0.99747   0.60557   0.30160   0.00000  Uiso   1.00
C98    C     0.30552   0.24250   0.18357   0.00000  Uiso   1.00
C99    C     0.42750   0.23267   0.08964   0.00000  Uiso   1.00
C100   C     0.47813   0.16597   0.01067   0.00000  Uiso   1.00
C101   C     0.60281   0.06782   0.85844   0.00000  Uiso   1.00
C102   C     0.14086   0.25204   0.38711   0.00000  Uiso   1.00
C103   C     0.12440   0.25022   0.46432   0.00000  Uiso   1.00
C104   C     0.03642   0.19155   0.55671   0.00000  Uiso   1.00
C105   C     0.90544   0.10822   0.72051   0.00000  Uiso   1.00
C106   C     0.10503   0.21008   0.30696   0.00000  Uiso   1.00
C107   C     0.09363   0.31460   0.30276   0.00000  Uiso   1.00
C108   C     0.02392   0.35465   0.31190   0.00000  Uiso   1.00
C109   C     0.02561   0.45162   0.30597   0.00000  Uiso   1.00
C110   C     0.23657   0.18765   0.19811   0.00000  Uiso   1.00
C111   C     0.28704   0.12094   0.11926   0.00000  Uiso   1.00
C112   C     0.40905   0.11102   0.02524   0.00000  Uiso   1.00
C113   C     0.07190   0.19720   0.40166   0.00000  Uiso   1.00
C114   C     0.98394   0.13850   0.49394   0.00000  Uiso   1.00
C115   C     0.96735   0.13660   0.57127   0.00000  Uiso   1.00
H116   H     0.28568   0.35376   0.26886   0.00000  Uiso   1.00
H117   H     0.21776   0.50880   0.27101   0.00000  Uiso   1.00
H118   H     0.48083   0.27512   0.07842   0.00000  Uiso   1.00
H119   H     0.17778   0.29268   0.45303   0.00000  Uiso   1.00
H120   H     0.11209   0.65649   0.27977   0.00000  Uiso   1.00
H121   H     0.66679   0.16374   0.87369   0.00000  Uiso   1.00
H122   H     0.02775   0.20077   0.66364   0.00000  Uiso   1.00
H123   H     0.05135   0.16738   0.31828   0.00000  Uiso   1.00
H124   H     0.97057   0.31219   0.32315   0.00000  Uiso   1.00
H125   H     0.23365   0.07851   0.13055   0.00000  Uiso   1.00
H126   H     0.93060   0.09607   0.50517   0.00000  Uiso   1.00
H127   H     0.91147   0.49692   0.32208   0.00000  Uiso   1.00
H128   H     0.46616   0.00416   0.91600   0.00000  Uiso   1.00
H129   H     0.82712   0.04119   0.70595   0.00000  Uiso   1.00
O130   O     0.96290   0.67533   0.30320   0.00000  Uiso   1.00
O131   O     0.69063   0.02885   0.77045   0.00000  Uiso   1.00
O132   O     0.85223   0.07743   0.80685   0.00000  Uiso   1.00
N133   N     0.07594   0.59906   0.28908   0.00000  Uiso   1.00
N134   N     0.59455   0.13838   0.90941   0.00000  Uiso   1.00
N135   N     0.99713   0.17298   0.64794   0.00000  Uiso   1.00
N136   N     0.96798   0.51320   0.31185   0.00000  Uiso   1.00
N137   N     0.48659   0.05252   0.93218   0.00000  Uiso   1.00
N138   N     0.88917   0.08711   0.67070   0.00000  Uiso   1.00
C139   C     0.76801   0.81107   0.21981   0.00000  Uiso   1.00
C140   C     0.83742   0.86945   0.21178   0.00000  Uiso   1.00
C141   C     0.83562   0.96638   0.21772   0.00000  Uiso   1.00
C142   C     0.90531   0.00656   0.20860   0.00000  Uiso   1.00
C143   C     0.00253   0.10557   0.19840   0.00000  Uiso   1.00
C144   C     0.69448   0.74250   0.31643   0.00000  Uiso   1.00
C145   C     0.57250   0.73267   0.41036   0.00000  Uiso   1.00
C146   C     0.52187   0.66597   0.48933   0.00000  Uiso   1.00
C147   C     0.39719   0.56782   0.64156   0.00000  Uiso   1.00
C148   C     0.85914   0.75204   0.11289   0.00000  Uiso   1.00
C149   C     0.87560   0.75022   0.03568   0.00000  Uiso   1.00
C150   C     0.96358   0.69155   0.94329   0.00000  Uiso   1.00
C151   C     0.09456   0.60822   0.77949   0.00000  Uiso   1.00
C152   C     0.89497   0.71008   0.19304   0.00000  Uiso   1.00
C153   C     0.90637   0.81460   0.19724   0.00000  Uiso   1.00
C154   C     0.97608   0.85465   0.18810   0.00000  Uiso   1.00
C155   C     0.97439   0.95162   0.19403   0.00000  Uiso   1.00
C156   C     0.76343   0.68765   0.30189   0.00000  Uiso   1.00
C157   C     0.71296   0.62094   0.38074   0.00000  Uiso   1.00
C158   C     0.59095   0.61102   0.47476   0.00000  Uiso   1.00
C159   C     0.92810   0.69720   0.09834   0.00000  Uiso   1.00
C160   C     0.01606   0.63850   0.00606   0.00000  Uiso   1.00
C161   C     0.03265   0.63660   0.92873   0.00000  Uiso   1.00
H162   H     0.71432   0.85376   0.23114   0.00000  Uiso   1.00
H163   H     0.78224   0.00880   0.22899   0.00000  Uiso   1.00
H164   H     0.51917   0.77512   0.42158   0.00000  Uiso   1.00
H165   H     0.82222   0.79268   0.04697   0.00000  Uiso   1.00
H166   H     0.88791   0.15649   0.22023   0.00000  Uiso   1.00
H167   H     0.33321   0.66374   0.62631   0.00000  Uiso   1.00
H168   H     0.97225   0.70077   0.83636   0.00000  Uiso   1.00
H169   H     0.94865   0.66738   0.18172   0.00000  Uiso   1.00
H170   H     0.02943   0.81219   0.17685   0.00000  Uiso   1.00
H171   H     0.76635   0.57851   0.36945   0.00000  Uiso   1.00
H172   H     0.06940   0.59607   0.99483   0.00000  Uiso   1.00
H173   H     0.08853   0.99692   0.17792   0.00000  Uiso   1.00
H174   H     0.53384   0.50416   0.58400   0.00000  Uiso   1.00
H175   H     0.17288   0.54119   0.79405   0.00000  Uiso   1.00
O176   O     0.03710   0.17533   0.19680   0.00000  Uiso   1.00
O177   O     0.30937   0.52885   0.72955   0.00000  Uiso   1.00
O178   O     0.14777   0.57743   0.69315   0.00000  Uiso   1.00
N179   N     0.92406   0.09906   0.21092   0.00000  Uiso   1.00
N180   N     0.40545   0.63838   0.59059   0.00000  Uiso   1.00
N181   N     0.00287   0.67298   0.85206   0.00000  Uiso   1.00
N182   N     0.03202   0.01320   0.18815   0.00000  Uiso   1.00
N183   N     0.51341   0.55252   0.56782   0.00000  Uiso   1.00
N184   N     0.11083   0.58711   0.82930   0.00000  Uiso   1.00
