data_job_06433
_audit_creation_date              2018-12-19
_audit_creation_method            'Materials Studio'
_symmetry_space_group_name_H-M    'P1'
_symmetry_Int_Tables_number       1
_symmetry_cell_setting            triclinic
loop_
_symmetry_equiv_pos_as_xyz
  x,y,z
_cell_length_a                    12.4473
_cell_length_b                    24.4850
_cell_length_c                    24.7008
_cell_angle_alpha                 62.8950
_cell_angle_beta                  80.2928
_cell_angle_gamma                 98.4464
loop_
_atom_site_label
_atom_site_type_symbol
_atom_site_fract_x
_atom_site_fract_y
_atom_site_fract_z
_atom_site_U_iso_or_equiv
_atom_site_adp_type
_atom_site_occupancy
C1     C     0.99119   0.82126   0.52789   0.00000  Uiso   1.00
C2     C     0.11089   0.85532   0.51918   0.00000  Uiso   1.00
C3     C     0.19915   0.88144   0.46498   0.00000  Uiso   1.00
C4     C     0.30225   0.91058   0.46645   0.00000  Uiso   1.00
C5     C     0.48597   0.96300   0.44476   0.00000  Uiso   1.00
C6     C     0.96657   0.75580   0.58573   0.00000  Uiso   1.00
C7     C     0.93347   0.69824   0.58747   0.00000  Uiso   1.00
C8     C     0.91506   0.64360   0.64496   0.00000  Uiso   1.00
C9     C     0.87464   0.54151   0.72659   0.00000  Uiso   1.00
C10    C     0.91403   0.85629   0.54660   0.00000  Uiso   1.00
C11    C     0.83673   0.88321   0.51545   0.00000  Uiso   1.00
C12    C     0.77408   0.91317   0.54000   0.00000  Uiso   1.00
C13    C     0.65209   0.96711   0.56088   0.00000  Uiso   1.00
C14    C     0.01734   0.82657   0.62688   0.00000  Uiso   1.00
C15    C     0.12509   0.85821   0.57296   0.00000  Uiso   1.00
C16    C     0.22809   0.88732   0.57450   0.00000  Uiso   1.00
C17    C     0.31648   0.91347   0.52031   0.00000  Uiso   1.00
C18    C     0.98077   0.75868   0.63949   0.00000  Uiso   1.00
C19    C     0.96241   0.70412   0.69699   0.00000  Uiso   1.00
C20    C     0.92930   0.64649   0.69882   0.00000  Uiso   1.00
C21    C     0.92824   0.85918   0.60036   0.00000  Uiso   1.00
C22    C     0.86568   0.88910   0.62497   0.00000  Uiso   1.00
C23    C     0.78831   0.91606   0.59386   0.00000  Uiso   1.00
H24    H     0.98012   0.81901   0.48603   0.00000  Uiso   1.00
H25    H     0.18812   0.87919   0.42338   0.00000  Uiso   1.00
H26    H     0.92247   0.69602   0.54586   0.00000  Uiso   1.00
H27    H     0.82576   0.88097   0.47384   0.00000  Uiso   1.00
H28    H     0.42500   0.94716   0.37764   0.00000  Uiso   1.00
H29    H     0.86482   0.56094   0.63589   0.00000  Uiso   1.00
H30    H     0.66089   0.95094   0.48404   0.00000  Uiso   1.00
H31    H     0.02840   0.82882   0.66874   0.00000  Uiso   1.00
H32    H     0.23906   0.88955   0.61612   0.00000  Uiso   1.00
H33    H     0.97340   0.70637   0.73859   0.00000  Uiso   1.00
H34    H     0.87670   0.89132   0.66658   0.00000  Uiso   1.00
H35    H     0.46634   0.95556   0.53407   0.00000  Uiso   1.00
H36    H     0.90616   0.56934   0.79233   0.00000  Uiso   1.00
H37    H     0.70223   0.95934   0.64047   0.00000  Uiso   1.00
O38    O     0.58338   0.99111   0.41795   0.00000  Uiso   1.00
O39    O     0.84843   0.48440   0.75677   0.00000  Uiso   1.00
O40    O     0.58089   0.99608   0.55753   0.00000  Uiso   1.00
N41    N     0.40582   0.94082   0.42168   0.00000  Uiso   1.00
N42    N     0.88210   0.57972   0.66312   0.00000  Uiso   1.00
N43    N     0.69142   0.94432   0.52116   0.00000  Uiso   1.00
N44    N     0.42806   0.94534   0.50585   0.00000  Uiso   1.00
N45    N     0.90435   0.58424   0.74730   0.00000  Uiso   1.00
N46    N     0.71367   0.94885   0.60533   0.00000  Uiso   1.00
C47    C     0.16868   0.65136   0.82209   0.00000  Uiso   1.00
C48    C     0.25371   0.62434   0.85782   0.00000  Uiso   1.00
C49    C     0.31506   0.65154   0.88533   0.00000  Uiso   1.00
C50    C     0.38856   0.61944   0.91587   0.00000  Uiso   1.00
C51    C     0.51886   0.58622   0.97088   0.00000  Uiso   1.00
C52    C     0.20851   0.65803   0.75701   0.00000  Uiso   1.00
C53    C     0.23184   0.71355   0.69975   0.00000  Uiso   1.00
C54    C     0.26728   0.70980   0.64542   0.00000  Uiso   1.00
C55    C     0.32733   0.72886   0.54391   0.00000  Uiso   1.00
C56    C     0.05852   0.59951   0.85510   0.00000  Uiso   1.00
C57    C     0.95572   0.60582   0.88031   0.00000  Uiso   1.00
C58    C     0.86487   0.55281   0.90857   0.00000  Uiso   1.00
C59    C     0.69203   0.48101   0.95937   0.00000  Uiso   1.00
C60    C     0.19011   0.54600   0.82743   0.00000  Uiso   1.00
C61    C     0.26535   0.56712   0.86072   0.00000  Uiso   1.00
C62    C     0.33877   0.53497   0.89124   0.00000  Uiso   1.00
C63    C     0.40022   0.56211   0.91878   0.00000  Uiso   1.00
C64    C     0.22015   0.60080   0.75990   0.00000  Uiso   1.00
C65    C     0.25556   0.59698   0.70565   0.00000  Uiso   1.00
C66    C     0.27895   0.65247   0.64833   0.00000  Uiso   1.00
C67    C     0.07016   0.54228   0.85801   0.00000  Uiso   1.00
C68    C     0.97944   0.48925   0.88622   0.00000  Uiso   1.00
C69    C     0.87653   0.49548   0.91147   0.00000  Uiso   1.00
H70    H     0.15962   0.69591   0.81983   0.00000  Uiso   1.00
H71    H     0.30603   0.69583   0.88307   0.00000  Uiso   1.00
H72    H     0.22282   0.75782   0.69752   0.00000  Uiso   1.00
H73    H     0.94675   0.65011   0.87806   0.00000  Uiso   1.00
H74    H     0.47353   0.67051   0.95444   0.00000  Uiso   1.00
H75    H     0.29803   0.80122   0.56319   0.00000  Uiso   1.00
H76    H     0.71587   0.57410   0.94390   0.00000  Uiso   1.00
H77    H     0.19918   0.50144   0.82969   0.00000  Uiso   1.00
H78    H     0.34776   0.49068   0.89347   0.00000  Uiso   1.00
H79    H     0.26455   0.55268   0.70792   0.00000  Uiso   1.00
H80    H     0.98848   0.44497   0.88846   0.00000  Uiso   1.00
H81    H     0.50740   0.50401   0.96288   0.00000  Uiso   1.00
H82    H     0.33190   0.63472   0.57163   0.00000  Uiso   1.00
H83    H     0.74974   0.40760   0.95234   0.00000  Uiso   1.00
O84    O     0.58752   0.58370   0.00042   0.00000  Uiso   1.00
O85    O     0.35725   0.75519   0.48712   0.00000  Uiso   1.00
O86    O     0.59348   0.45721   0.98660   0.00000  Uiso   1.00
N87    N     0.46109   0.63279   0.94768   0.00000  Uiso   1.00
N88    N     0.29703   0.75500   0.58189   0.00000  Uiso   1.00
N89    N     0.75275   0.54267   0.93780   0.00000  Uiso   1.00
N90    N     0.47932   0.54320   0.95222   0.00000  Uiso   1.00
N91    N     0.31525   0.66541   0.58643   0.00000  Uiso   1.00
N92    N     0.77098   0.45307   0.94235   0.00000  Uiso   1.00
C93    C     0.52059   0.52845   0.64951   0.00000  Uiso   1.00
C94    C     0.63115   0.51747   0.62434   0.00000  Uiso   1.00
C95    C     0.66551   0.46187   0.65211   0.00000  Uiso   1.00
C96    C     0.76958   0.46133   0.62175   0.00000  Uiso   1.00
C97    C     0.93105   0.43620   0.59120   0.00000  Uiso   1.00
C98    C     0.55294   0.58665   0.65704   0.00000  Uiso   1.00
C99    C     0.52152   0.58921   0.71232   0.00000  Uiso   1.00
C100   C     0.55975   0.64690   0.70948   0.00000  Uiso   1.00
C101   C     0.59973   0.72918   0.72970   0.00000  Uiso   1.00
C102   C     0.46249   0.54833   0.59636   0.00000  Uiso   1.00
C103   C     0.35499   0.51868   0.60062   0.00000  Uiso   1.00
C104   C     0.31705   0.54412   0.54669   0.00000  Uiso   1.00
C105   C     0.21658   0.56690   0.47270   0.00000  Uiso   1.00
C106   C     0.64434   0.62636   0.54619   0.00000  Uiso   1.00
C107   C     0.69836   0.57066   0.56821   0.00000  Uiso   1.00
C108   C     0.80241   0.57019   0.53779   0.00000  Uiso   1.00
C109   C     0.83691   0.51460   0.56552   0.00000  Uiso   1.00
C110   C     0.62016   0.63983   0.60092   0.00000  Uiso   1.00
C111   C     0.65843   0.69753   0.59800   0.00000  Uiso   1.00
C112   C     0.62709   0.70018   0.65325   0.00000  Uiso   1.00
C113   C     0.52970   0.60151   0.54024   0.00000  Uiso   1.00
C114   C     0.49191   0.62700   0.48630   0.00000  Uiso   1.00
C115   C     0.38438   0.59740   0.49047   0.00000  Uiso   1.00
H116   H     0.46826   0.48705   0.69321   0.00000  Uiso   1.00
H117   H     0.61347   0.42073   0.69555   0.00000  Uiso   1.00
H118   H     0.46950   0.54805   0.75574   0.00000  Uiso   1.00
H119   H     0.30301   0.47753   0.64406   0.00000  Uiso   1.00
H120   H     0.80411   0.37065   0.67341   0.00000  Uiso   1.00
H121   H     0.50052   0.63912   0.80032   0.00000  Uiso   1.00
H122   H     0.14942   0.49042   0.56481   0.00000  Uiso   1.00
H123   H     0.69667   0.66776   0.50249   0.00000  Uiso   1.00
H124   H     0.85441   0.61136   0.49436   0.00000  Uiso   1.00
H125   H     0.71044   0.73868   0.55456   0.00000  Uiso   1.00
H126   H     0.54394   0.66816   0.44287   0.00000  Uiso   1.00
H127   H     0.99967   0.52538   0.51012   0.00000  Uiso   1.00
H128   H     0.69607   0.79385   0.63703   0.00000  Uiso   1.00
H129   H     0.34498   0.64514   0.40152   0.00000  Uiso   1.00
O130   O     0.00156   0.40766   0.58987   0.00000  Uiso   1.00
O131   O     0.60323   0.75988   0.75637   0.00000  Uiso   1.00
O132   O     0.14261   0.56478   0.44739   0.00000  Uiso   1.00
N133   N     0.82848   0.41481   0.63608   0.00000  Uiso   1.00
N134   N     0.54465   0.66580   0.75474   0.00000  Uiso   1.00
N135   N     0.21640   0.52679   0.53457   0.00000  Uiso   1.00
N136   N     0.93371   0.49806   0.54822   0.00000  Uiso   1.00
N137   N     0.64988   0.74906   0.66688   0.00000  Uiso   1.00
N138   N     0.32162   0.61004   0.44670   0.00000  Uiso   1.00
C139   C     0.49056   0.47321   0.17844   0.00000  Uiso   1.00
C140   C     0.61040   0.48117   0.14389   0.00000  Uiso   1.00
C141   C     0.69851   0.53525   0.11737   0.00000  Uiso   1.00
C142   C     0.80177   0.53306   0.08782   0.00000  Uiso   1.00
C143   C     0.98566   0.55366   0.03463   0.00000  Uiso   1.00
C144   C     0.46590   0.41510   0.24355   0.00000  Uiso   1.00
C145   C     0.43250   0.41362   0.30083   0.00000  Uiso   1.00
C146   C     0.41412   0.35581   0.35517   0.00000  Uiso   1.00
C147   C     0.37359   0.27384   0.45671   0.00000  Uiso   1.00
C148   C     0.41368   0.45480   0.14424   0.00000  Uiso   1.00
C149   C     0.33636   0.48671   0.11803   0.00000  Uiso   1.00
C150   C     0.27399   0.46231   0.08877   0.00000  Uiso   1.00
C151   C     0.15239   0.44199   0.03612   0.00000  Uiso   1.00
C152   C     0.51727   0.37316   0.17312   0.00000  Uiso   1.00
C153   C     0.62490   0.42682   0.14100   0.00000  Uiso   1.00
C154   C     0.72806   0.42455   0.11148   0.00000  Uiso   1.00
C155   C     0.81631   0.47861   0.08492   0.00000  Uiso   1.00
C156   C     0.48041   0.36075   0.24066   0.00000  Uiso   1.00
C157   C     0.46206   0.30293   0.29494   0.00000  Uiso   1.00
C158   C     0.42865   0.30137   0.35227   0.00000  Uiso   1.00
C159   C     0.42819   0.40046   0.14135   0.00000  Uiso   1.00
C160   C     0.36592   0.37601   0.11214   0.00000  Uiso   1.00
C161   C     0.28853   0.40787   0.08588   0.00000  Uiso   1.00
H162   H     0.47926   0.51552   0.18070   0.00000  Uiso   1.00
H163   H     0.68725   0.57729   0.11962   0.00000  Uiso   1.00
H164   H     0.42127   0.45569   0.30305   0.00000  Uiso   1.00
H165   H     0.32515   0.52876   0.12027   0.00000  Uiso   1.00
H166   H     0.92425   0.62180   0.05065   0.00000  Uiso   1.00
H167   H     0.36339   0.36539   0.43741   0.00000  Uiso   1.00
H168   H     0.16070   0.51947   0.05201   0.00000  Uiso   1.00
H169   H     0.52857   0.33084   0.17087   0.00000  Uiso   1.00
H170   H     0.73927   0.38249   0.10925   0.00000  Uiso   1.00
H171   H     0.47329   0.26088   0.29268   0.00000  Uiso   1.00
H172   H     0.37717   0.33395   0.10991   0.00000  Uiso   1.00
H173   H     0.96647   0.46369   0.04224   0.00000  Uiso   1.00
H174   H     0.40561   0.20727   0.42900   0.00000  Uiso   1.00
H175   H     0.20293   0.36136   0.04359   0.00000  Uiso   1.00
O176   O     0.08309   0.58004   0.00611   0.00000  Uiso   1.00
O177   O     0.34724   0.24364   0.51352   0.00000  Uiso   1.00
O178   O     0.08133   0.44579   0.00787   0.00000  Uiso   1.00
N179   N     0.90527   0.57751   0.05712   0.00000  Uiso   1.00
N180   N     0.38091   0.33778   0.41872   0.00000  Uiso   1.00
N181   N     0.19140   0.48183   0.05841   0.00000  Uiso   1.00
N182   N     0.92799   0.49243   0.05259   0.00000  Uiso   1.00
N183   N     0.40363   0.25270   0.41419   0.00000  Uiso   1.00
N184   N     0.21412   0.39675   0.05388   0.00000  Uiso   1.00
C185   C     0.66928   0.17767   0.34974   0.00000  Uiso   1.00
C186   C     0.75436   0.14109   0.37601   0.00000  Uiso   1.00
C187   C     0.81600   0.11291   0.34869   0.00000  Uiso   1.00
C188   C     0.88950   0.08164   0.38006   0.00000  Uiso   1.00
C189   C     0.01992   0.02532   0.41221   0.00000  Uiso   1.00
C190   C     0.70880   0.24307   0.34280   0.00000  Uiso   1.00
C191   C     0.73213   0.30062   0.28755   0.00000  Uiso   1.00
C192   C     0.76726   0.35520   0.29097   0.00000  Uiso   1.00
C193   C     0.82687   0.45720   0.27157   0.00000  Uiso   1.00
C194   C     0.55902   0.14515   0.40189   0.00000  Uiso   1.00
C195   C     0.45639   0.12038   0.39633   0.00000  Uiso   1.00
C196   C     0.36540   0.09254   0.44950   0.00000  Uiso   1.00
C197   C     0.19245   0.04250   0.52185   0.00000  Uiso   1.00
C198   C     0.69019   0.17227   0.45404   0.00000  Uiso   1.00
C199   C     0.76572   0.13816   0.43266   0.00000  Uiso   1.00
C200   C     0.83913   0.10693   0.46408   0.00000  Uiso   1.00
C201   C     0.90087   0.07870   0.43681   0.00000  Uiso   1.00
C202   C     0.72016   0.24014   0.39944   0.00000  Uiso   1.00
C203   C     0.75526   0.29464   0.40294   0.00000  Uiso   1.00
C204   C     0.77863   0.35226   0.34772   0.00000  Uiso   1.00
C205   C     0.57037   0.14221   0.45854   0.00000  Uiso   1.00
C206   C     0.47952   0.11440   0.51173   0.00000  Uiso   1.00
C207   C     0.37677   0.08960   0.50625   0.00000  Uiso   1.00
H208   H     0.66044   0.17996   0.30564   0.00000  Uiso   1.00
H209   H     0.80720   0.11519   0.30484   0.00000  Uiso   1.00
H210   H     0.72332   0.30288   0.24372   0.00000  Uiso   1.00
H211   H     0.44763   0.12266   0.35249   0.00000  Uiso   1.00
H212   H     0.97495   0.04211   0.32893   0.00000  Uiso   1.00
H213   H     0.79805   0.43786   0.20006   0.00000  Uiso   1.00
H214   H     0.21670   0.05785   0.42941   0.00000  Uiso   1.00
H215   H     0.69903   0.16998   0.49814   0.00000  Uiso   1.00
H216   H     0.84790   0.10467   0.50792   0.00000  Uiso   1.00
H217   H     0.76403   0.29236   0.44679   0.00000  Uiso   1.00
H218   H     0.48834   0.11214   0.55556   0.00000  Uiso   1.00
H219   H     0.00799   0.03358   0.49375   0.00000  Uiso   1.00
H220   H     0.83108   0.42932   0.36488   0.00000  Uiso   1.00
H221   H     0.24974   0.04931   0.59423   0.00000  Uiso   1.00
O222   O     0.08873   0.99508   0.41429   0.00000  Uiso   1.00
O223   O     0.85662   0.51428   0.24521   0.00000  Uiso   1.00
O224   O     0.09391   0.01571   0.54612   0.00000  Uiso   1.00
N225   N     0.96227   0.04906   0.36639   0.00000  Uiso   1.00
N226   N     0.79690   0.41906   0.24590   0.00000  Uiso   1.00
N227   N     0.25338   0.06379   0.46032   0.00000  Uiso   1.00
N228   N     0.98005   0.04446   0.45508   0.00000  Uiso   1.00
N229   N     0.81468   0.41446   0.33458   0.00000  Uiso   1.00
N230   N     0.27116   0.05919   0.54901   0.00000  Uiso   1.00
C231   C     0.02062   0.35019   0.47131   0.00000  Uiso   1.00
C232   C     0.13099   0.37488   0.48144   0.00000  Uiso   1.00
C233   C     0.16520   0.34669   0.53636   0.00000  Uiso   1.00
C234   C     0.26911   0.37665   0.53619   0.00000  Uiso   1.00
C235   C     0.43029   0.40643   0.56001   0.00000  Uiso   1.00
C236   C     0.05332   0.34231   0.41343   0.00000  Uiso   1.00
C237   C     0.02221   0.28674   0.41116   0.00000  Uiso   1.00
C238   C     0.06073   0.28929   0.35372   0.00000  Uiso   1.00
C239   C     0.10125   0.26852   0.27193   0.00000  Uiso   1.00
C240   C     0.96233   0.40417   0.45192   0.00000  Uiso   1.00
C241   C     0.85470   0.40062   0.48202   0.00000  Uiso   1.00
C242   C     0.81660   0.45525   0.45698   0.00000  Uiso   1.00
C243   C     0.71586   0.53054   0.43497   0.00000  Uiso   1.00
C244   C     0.14433   0.45351   0.37334   0.00000  Uiso   1.00
C245   C     0.19819   0.43100   0.42823   0.00000  Uiso   1.00
C246   C     0.30207   0.46101   0.42797   0.00000  Uiso   1.00
C247   C     0.33643   0.43287   0.48288   0.00000  Uiso   1.00
C248   C     0.12052   0.39843   0.36021   0.00000  Uiso   1.00
C249   C     0.15908   0.40105   0.30277   0.00000  Uiso   1.00
C250   C     0.12804   0.34551   0.30041   0.00000  Uiso   1.00
C251   C     0.02953   0.46029   0.39871   0.00000  Uiso   1.00
C252   C     0.99159   0.51494   0.37362   0.00000  Uiso   1.00
C253   C     0.88392   0.51147   0.40368   0.00000  Uiso   1.00
H254   H     0.96830   0.30649   0.51274   0.00000  Uiso   1.00
H255   H     0.11317   0.30326   0.57753   0.00000  Uiso   1.00
H256   H     0.97020   0.24332   0.45234   0.00000  Uiso   1.00
H257   H     0.80273   0.35719   0.52319   0.00000  Uiso   1.00
H258   H     0.30344   0.32441   0.62590   0.00000  Uiso   1.00
H259   H     0.00193   0.19803   0.36193   0.00000  Uiso   1.00
H260   H     0.64878   0.43814   0.51132   0.00000  Uiso   1.00
H261   H     0.19665   0.49720   0.33191   0.00000  Uiso   1.00
H262   H     0.35406   0.50443   0.38678   0.00000  Uiso   1.00
H263   H     0.21108   0.44449   0.26160   0.00000  Uiso   1.00
H264   H     0.04361   0.55836   0.33245   0.00000  Uiso   1.00
H265   H     0.49896   0.48769   0.47108   0.00000  Uiso   1.00
H266   H     0.19744   0.36131   0.20710   0.00000  Uiso   1.00
H267   H     0.84430   0.60141   0.35650   0.00000  Uiso   1.00
O268   O     0.50064   0.40735   0.58784   0.00000  Uiso   1.00
O269   O     0.10505   0.24156   0.24152   0.00000  Uiso   1.00
O270   O     0.64174   0.55656   0.43753   0.00000  Uiso   1.00
N271   N     0.32785   0.36185   0.58193   0.00000  Uiso   1.00
N272   N     0.04597   0.24369   0.33514   0.00000  Uiso   1.00
N273   N     0.71579   0.46817   0.47480   0.00000  Uiso   1.00
N274   N     0.43305   0.44971   0.49863   0.00000  Uiso   1.00
N275   N     0.15117   0.33155   0.25183   0.00000  Uiso   1.00
N276   N     0.82099   0.55602   0.39150   0.00000  Uiso   1.00
