data_job_03320
_audit_creation_date              2018-12-19
_audit_creation_method            'Materials Studio'
_symmetry_space_group_name_H-M    'P1'
_symmetry_Int_Tables_number       1
_symmetry_cell_setting            triclinic
loop_
_symmetry_equiv_pos_as_xyz
  x,y,z
_cell_length_a                    21.0837
_cell_length_b                    21.0837
_cell_length_c                    10.2567
_cell_angle_alpha                 90.0000
_cell_angle_beta                  90.0000
_cell_angle_gamma                 90.0000
loop_
_atom_site_label
_atom_site_type_symbol
_atom_site_fract_x
_atom_site_fract_y
_atom_site_fract_z
_atom_site_U_iso_or_equiv
_atom_site_adp_type
_atom_site_occupancy
C1     C     0.19492   0.53974   0.30898   0.00000  Uiso   1.00
C2     C     0.21786   0.60793   0.29379   0.00000  Uiso   1.00
C3     C     0.18656   0.65569   0.22647   0.00000  Uiso   1.00
C4     C     0.21536   0.71489   0.22388   0.00000  Uiso   1.00
C5     C     0.24217   0.81910   0.19071   0.00000  Uiso   1.00
C6     C     0.24815   0.49789   0.25674   0.00000  Uiso   1.00
C7     C     0.24232   0.45311   0.15829   0.00000  Uiso   1.00
C8     C     0.29662   0.41968   0.12452   0.00000  Uiso   1.00
C9     C     0.37045   0.35301   0.03391   0.00000  Uiso   1.00
C10    C     0.19195   0.52726   0.45530   0.00000  Uiso   1.00
C11    C     0.13886   0.50716   0.52380   0.00000  Uiso   1.00
C12    C     0.14585   0.49843   0.65721   0.00000  Uiso   1.00
C13    C     0.13242   0.47736   0.87488   0.00000  Uiso   1.00
C14    C     0.30174   0.55997   0.42409   0.00000  Uiso   1.00
C15    C     0.27588   0.61892   0.35631   0.00000  Uiso   1.00
C16    C     0.30473   0.67807   0.35382   0.00000  Uiso   1.00
C17    C     0.27348   0.72590   0.28651   0.00000  Uiso   1.00
C18    C     0.30617   0.50888   0.31925   0.00000  Uiso   1.00
C19    C     0.36050   0.47550   0.28564   0.00000  Uiso   1.00
C20    C     0.35475   0.43068   0.18715   0.00000  Uiso   1.00
C21    C     0.24997   0.53825   0.51782   0.00000  Uiso   1.00
C22    C     0.25704   0.52955   0.65115   0.00000  Uiso   1.00
C23    C     0.20398   0.50944   0.71984   0.00000  Uiso   1.00
H24    H     0.14975   0.53118   0.26031   0.00000  Uiso   1.00
H25    H     0.14166   0.64716   0.17809   0.00000  Uiso   1.00
H26    H     0.19741   0.44461   0.10993   0.00000  Uiso   1.00
H27    H     0.09398   0.49866   0.47538   0.00000  Uiso   1.00
H28    H     0.15828   0.78059   0.11447   0.00000  Uiso   1.00
H29    H     0.27584   0.35349   0.97078   0.00000  Uiso   1.00
H30    H     0.05772   0.46745   0.74141   0.00000  Uiso   1.00
H31    H     0.34691   0.56853   0.47277   0.00000  Uiso   1.00
H32    H     0.34963   0.68656   0.40221   0.00000  Uiso   1.00
H33    H     0.40539   0.48401   0.33405   0.00000  Uiso   1.00
H34    H     0.30195   0.53806   0.69950   0.00000  Uiso   1.00
H35    H     0.32708   0.81256   0.29637   0.00000  Uiso   1.00
H36    H     0.44463   0.38546   0.15268   0.00000  Uiso   1.00
H37    H     0.22652   0.49942   0.92331   0.00000  Uiso   1.00
O38    O     0.24093   0.87354   0.15513   0.00000  Uiso   1.00
O39    O     0.39515   0.31320   0.96664   0.00000  Uiso   1.00
O40    O     0.10898   0.46271   0.97768   0.00000  Uiso   1.00
N41    N     0.19763   0.77192   0.16698   0.00000  Uiso   1.00
N42    N     0.30754   0.37262   0.03263   0.00000  Uiso   1.00
N43    N     0.10362   0.47914   0.75310   0.00000  Uiso   1.00
N44    N     0.28846   0.78912   0.26486   0.00000  Uiso   1.00
N45    N     0.39837   0.38982   0.13051   0.00000  Uiso   1.00
N46    N     0.19445   0.49635   0.85098   0.00000  Uiso   1.00
C47    C     0.80508   0.46026   0.30898   0.00000  Uiso   1.00
C48    C     0.78214   0.39207   0.29379   0.00000  Uiso   1.00
C49    C     0.81344   0.34431   0.22647   0.00000  Uiso   1.00
C50    C     0.78464   0.28511   0.22388   0.00000  Uiso   1.00
C51    C     0.75783   0.18090   0.19071   0.00000  Uiso   1.00
C52    C     0.75185   0.50211   0.25674   0.00000  Uiso   1.00
C53    C     0.75768   0.54689   0.15829   0.00000  Uiso   1.00
C54    C     0.70338   0.58032   0.12452   0.00000  Uiso   1.00
C55    C     0.62955   0.64699   0.03391   0.00000  Uiso   1.00
C56    C     0.80805   0.47274   0.45530   0.00000  Uiso   1.00
C57    C     0.86114   0.49284   0.52380   0.00000  Uiso   1.00
C58    C     0.85415   0.50157   0.65721   0.00000  Uiso   1.00
C59    C     0.86758   0.52264   0.87488   0.00000  Uiso   1.00
C60    C     0.69826   0.44003   0.42409   0.00000  Uiso   1.00
C61    C     0.72412   0.38108   0.35631   0.00000  Uiso   1.00
C62    C     0.69527   0.32193   0.35382   0.00000  Uiso   1.00
C63    C     0.72652   0.27410   0.28651   0.00000  Uiso   1.00
C64    C     0.69383   0.49112   0.31925   0.00000  Uiso   1.00
C65    C     0.63950   0.52450   0.28564   0.00000  Uiso   1.00
C66    C     0.64525   0.56932   0.18715   0.00000  Uiso   1.00
C67    C     0.75003   0.46175   0.51782   0.00000  Uiso   1.00
C68    C     0.74296   0.47045   0.65115   0.00000  Uiso   1.00
C69    C     0.79602   0.49056   0.71984   0.00000  Uiso   1.00
H70    H     0.85025   0.46882   0.26031   0.00000  Uiso   1.00
H71    H     0.85834   0.35284   0.17809   0.00000  Uiso   1.00
H72    H     0.80259   0.55539   0.10993   0.00000  Uiso   1.00
H73    H     0.90602   0.50134   0.47538   0.00000  Uiso   1.00
H74    H     0.84172   0.21941   0.11447   0.00000  Uiso   1.00
H75    H     0.72416   0.64651   0.97078   0.00000  Uiso   1.00
H76    H     0.94228   0.53255   0.74141   0.00000  Uiso   1.00
H77    H     0.65309   0.43147   0.47277   0.00000  Uiso   1.00
H78    H     0.65037   0.31344   0.40221   0.00000  Uiso   1.00
H79    H     0.59461   0.51599   0.33405   0.00000  Uiso   1.00
H80    H     0.69805   0.46194   0.69950   0.00000  Uiso   1.00
H81    H     0.67292   0.18744   0.29637   0.00000  Uiso   1.00
H82    H     0.55537   0.61454   0.15268   0.00000  Uiso   1.00
H83    H     0.77348   0.50058   0.92331   0.00000  Uiso   1.00
O84    O     0.75907   0.12646   0.15513   0.00000  Uiso   1.00
O85    O     0.60485   0.68680   0.96664   0.00000  Uiso   1.00
O86    O     0.89102   0.53729   0.97768   0.00000  Uiso   1.00
N87    N     0.80237   0.22808   0.16698   0.00000  Uiso   1.00
N88    N     0.69246   0.62738   0.03263   0.00000  Uiso   1.00
N89    N     0.89638   0.52086   0.75310   0.00000  Uiso   1.00
N90    N     0.71154   0.21088   0.26486   0.00000  Uiso   1.00
N91    N     0.60163   0.61018   0.13051   0.00000  Uiso   1.00
N92    N     0.80555   0.50365   0.85098   0.00000  Uiso   1.00
C93    C     0.46026   0.19492   0.30898   0.00000  Uiso   1.00
C94    C     0.39207   0.21786   0.29379   0.00000  Uiso   1.00
C95    C     0.34431   0.18656   0.22647   0.00000  Uiso   1.00
C96    C     0.28511   0.21536   0.22388   0.00000  Uiso   1.00
C97    C     0.18090   0.24217   0.19071   0.00000  Uiso   1.00
C98    C     0.50211   0.24815   0.25674   0.00000  Uiso   1.00
C99    C     0.54689   0.24232   0.15829   0.00000  Uiso   1.00
C100   C     0.58032   0.29662   0.12452   0.00000  Uiso   1.00
C101   C     0.64699   0.37045   0.03391   0.00000  Uiso   1.00
C102   C     0.47274   0.19195   0.45530   0.00000  Uiso   1.00
C103   C     0.49284   0.13886   0.52380   0.00000  Uiso   1.00
C104   C     0.50157   0.14585   0.65721   0.00000  Uiso   1.00
C105   C     0.52264   0.13242   0.87488   0.00000  Uiso   1.00
C106   C     0.44003   0.30174   0.42409   0.00000  Uiso   1.00
C107   C     0.38108   0.27588   0.35631   0.00000  Uiso   1.00
C108   C     0.32193   0.30473   0.35382   0.00000  Uiso   1.00
C109   C     0.27410   0.27348   0.28651   0.00000  Uiso   1.00
C110   C     0.49112   0.30617   0.31925   0.00000  Uiso   1.00
C111   C     0.52450   0.36050   0.28564   0.00000  Uiso   1.00
C112   C     0.56932   0.35475   0.18715   0.00000  Uiso   1.00
C113   C     0.46175   0.24997   0.51782   0.00000  Uiso   1.00
C114   C     0.47045   0.25704   0.65115   0.00000  Uiso   1.00
C115   C     0.49056   0.20398   0.71984   0.00000  Uiso   1.00
H116   H     0.46882   0.14975   0.26031   0.00000  Uiso   1.00
H117   H     0.35284   0.14166   0.17809   0.00000  Uiso   1.00
H118   H     0.55539   0.19741   0.10993   0.00000  Uiso   1.00
H119   H     0.50134   0.09398   0.47538   0.00000  Uiso   1.00
H120   H     0.21941   0.15828   0.11447   0.00000  Uiso   1.00
H121   H     0.64651   0.27584   0.97078   0.00000  Uiso   1.00
H122   H     0.53255   0.05772   0.74141   0.00000  Uiso   1.00
H123   H     0.43147   0.34691   0.47277   0.00000  Uiso   1.00
H124   H     0.31344   0.34963   0.40221   0.00000  Uiso   1.00
H125   H     0.51599   0.40539   0.33405   0.00000  Uiso   1.00
H126   H     0.46194   0.30195   0.69950   0.00000  Uiso   1.00
H127   H     0.18744   0.32708   0.29637   0.00000  Uiso   1.00
H128   H     0.61454   0.44463   0.15268   0.00000  Uiso   1.00
H129   H     0.50058   0.22652   0.92331   0.00000  Uiso   1.00
O130   O     0.12646   0.24093   0.15513   0.00000  Uiso   1.00
O131   O     0.68680   0.39515   0.96664   0.00000  Uiso   1.00
O132   O     0.53729   0.10898   0.97768   0.00000  Uiso   1.00
N133   N     0.22808   0.19763   0.16698   0.00000  Uiso   1.00
N134   N     0.62738   0.30754   0.03263   0.00000  Uiso   1.00
N135   N     0.52086   0.10362   0.75310   0.00000  Uiso   1.00
N136   N     0.21088   0.28846   0.26486   0.00000  Uiso   1.00
N137   N     0.61018   0.39837   0.13051   0.00000  Uiso   1.00
N138   N     0.50365   0.19445   0.85098   0.00000  Uiso   1.00
C139   C     0.53974   0.80508   0.30898   0.00000  Uiso   1.00
C140   C     0.60793   0.78214   0.29379   0.00000  Uiso   1.00
C141   C     0.65569   0.81344   0.22647   0.00000  Uiso   1.00
C142   C     0.71489   0.78464   0.22388   0.00000  Uiso   1.00
C143   C     0.81910   0.75783   0.19071   0.00000  Uiso   1.00
C144   C     0.49789   0.75185   0.25674   0.00000  Uiso   1.00
C145   C     0.45311   0.75768   0.15829   0.00000  Uiso   1.00
C146   C     0.41968   0.70338   0.12452   0.00000  Uiso   1.00
C147   C     0.35301   0.62955   0.03391   0.00000  Uiso   1.00
C148   C     0.52726   0.80805   0.45530   0.00000  Uiso   1.00
C149   C     0.50716   0.86114   0.52380   0.00000  Uiso   1.00
C150   C     0.49843   0.85415   0.65721   0.00000  Uiso   1.00
C151   C     0.47736   0.86758   0.87488   0.00000  Uiso   1.00
C152   C     0.55997   0.69826   0.42409   0.00000  Uiso   1.00
C153   C     0.61892   0.72412   0.35631   0.00000  Uiso   1.00
C154   C     0.67807   0.69527   0.35382   0.00000  Uiso   1.00
C155   C     0.72590   0.72652   0.28651   0.00000  Uiso   1.00
C156   C     0.50888   0.69383   0.31925   0.00000  Uiso   1.00
C157   C     0.47550   0.63950   0.28564   0.00000  Uiso   1.00
C158   C     0.43068   0.64525   0.18715   0.00000  Uiso   1.00
C159   C     0.53825   0.75003   0.51782   0.00000  Uiso   1.00
C160   C     0.52955   0.74296   0.65115   0.00000  Uiso   1.00
C161   C     0.50944   0.79602   0.71984   0.00000  Uiso   1.00
H162   H     0.53118   0.85025   0.26031   0.00000  Uiso   1.00
H163   H     0.64716   0.85834   0.17809   0.00000  Uiso   1.00
H164   H     0.44461   0.80259   0.10993   0.00000  Uiso   1.00
H165   H     0.49866   0.90602   0.47538   0.00000  Uiso   1.00
H166   H     0.78059   0.84172   0.11447   0.00000  Uiso   1.00
H167   H     0.35349   0.72416   0.97078   0.00000  Uiso   1.00
H168   H     0.46745   0.94228   0.74141   0.00000  Uiso   1.00
H169   H     0.56853   0.65309   0.47277   0.00000  Uiso   1.00
H170   H     0.68656   0.65037   0.40221   0.00000  Uiso   1.00
H171   H     0.48401   0.59461   0.33405   0.00000  Uiso   1.00
H172   H     0.53806   0.69805   0.69950   0.00000  Uiso   1.00
H173   H     0.81256   0.67292   0.29637   0.00000  Uiso   1.00
H174   H     0.38546   0.55537   0.15268   0.00000  Uiso   1.00
H175   H     0.49942   0.77348   0.92331   0.00000  Uiso   1.00
O176   O     0.87354   0.75907   0.15513   0.00000  Uiso   1.00
O177   O     0.31320   0.60485   0.96664   0.00000  Uiso   1.00
O178   O     0.46271   0.89102   0.97768   0.00000  Uiso   1.00
N179   N     0.77192   0.80237   0.16698   0.00000  Uiso   1.00
N180   N     0.37262   0.69246   0.03263   0.00000  Uiso   1.00
N181   N     0.47914   0.89638   0.75310   0.00000  Uiso   1.00
N182   N     0.78912   0.71154   0.26486   0.00000  Uiso   1.00
N183   N     0.38982   0.60163   0.13051   0.00000  Uiso   1.00
N184   N     0.49635   0.80555   0.85098   0.00000  Uiso   1.00
C185   C     0.69492   0.96026   0.80898   0.00000  Uiso   1.00
C186   C     0.71786   0.89207   0.79379   0.00000  Uiso   1.00
C187   C     0.68656   0.84431   0.72647   0.00000  Uiso   1.00
C188   C     0.71536   0.78511   0.72388   0.00000  Uiso   1.00
C189   C     0.74217   0.68090   0.69071   0.00000  Uiso   1.00
C190   C     0.74815   0.00211   0.75674   0.00000  Uiso   1.00
C191   C     0.74232   0.04689   0.65829   0.00000  Uiso   1.00
C192   C     0.79662   0.08032   0.62452   0.00000  Uiso   1.00
C193   C     0.87045   0.14699   0.53391   0.00000  Uiso   1.00
C194   C     0.69195   0.97274   0.95530   0.00000  Uiso   1.00
C195   C     0.63886   0.99284   0.02380   0.00000  Uiso   1.00
C196   C     0.64585   0.00157   0.15721   0.00000  Uiso   1.00
C197   C     0.63242   0.02264   0.37488   0.00000  Uiso   1.00
C198   C     0.80174   0.94003   0.92409   0.00000  Uiso   1.00
C199   C     0.77588   0.88108   0.85631   0.00000  Uiso   1.00
C200   C     0.80473   0.82193   0.85382   0.00000  Uiso   1.00
C201   C     0.77348   0.77410   0.78651   0.00000  Uiso   1.00
C202   C     0.80617   0.99112   0.81925   0.00000  Uiso   1.00
C203   C     0.86050   0.02450   0.78564   0.00000  Uiso   1.00
C204   C     0.85475   0.06932   0.68715   0.00000  Uiso   1.00
C205   C     0.74997   0.96175   0.01782   0.00000  Uiso   1.00
C206   C     0.75704   0.97045   0.15115   0.00000  Uiso   1.00
C207   C     0.70398   0.99056   0.21984   0.00000  Uiso   1.00
H208   H     0.64975   0.96882   0.76031   0.00000  Uiso   1.00
H209   H     0.64166   0.85284   0.67809   0.00000  Uiso   1.00
H210   H     0.69741   0.05539   0.60993   0.00000  Uiso   1.00
H211   H     0.59398   0.00134   0.97538   0.00000  Uiso   1.00
H212   H     0.65828   0.71941   0.61447   0.00000  Uiso   1.00
H213   H     0.77584   0.14651   0.47078   0.00000  Uiso   1.00
H214   H     0.55772   0.03255   0.24141   0.00000  Uiso   1.00
H215   H     0.84691   0.93147   0.97277   0.00000  Uiso   1.00
H216   H     0.84963   0.81344   0.90221   0.00000  Uiso   1.00
H217   H     0.90539   0.01599   0.83405   0.00000  Uiso   1.00
H218   H     0.80195   0.96194   0.19950   0.00000  Uiso   1.00
H219   H     0.82708   0.68744   0.79637   0.00000  Uiso   1.00
H220   H     0.94463   0.11454   0.65268   0.00000  Uiso   1.00
H221   H     0.72652   0.00058   0.42331   0.00000  Uiso   1.00
O222   O     0.74093   0.62646   0.65513   0.00000  Uiso   1.00
O223   O     0.89515   0.18680   0.46664   0.00000  Uiso   1.00
O224   O     0.60898   0.03729   0.47768   0.00000  Uiso   1.00
N225   N     0.69763   0.72808   0.66698   0.00000  Uiso   1.00
N226   N     0.80754   0.12738   0.53263   0.00000  Uiso   1.00
N227   N     0.60362   0.02086   0.25310   0.00000  Uiso   1.00
N228   N     0.78846   0.71088   0.76486   0.00000  Uiso   1.00
N229   N     0.89837   0.11018   0.63051   0.00000  Uiso   1.00
N230   N     0.69445   0.00365   0.35098   0.00000  Uiso   1.00
C231   C     0.30508   0.03974   0.80898   0.00000  Uiso   1.00
C232   C     0.28214   0.10793   0.79379   0.00000  Uiso   1.00
C233   C     0.31344   0.15569   0.72647   0.00000  Uiso   1.00
C234   C     0.28464   0.21489   0.72388   0.00000  Uiso   1.00
C235   C     0.25783   0.31910   0.69071   0.00000  Uiso   1.00
C236   C     0.25185   0.99789   0.75674   0.00000  Uiso   1.00
C237   C     0.25768   0.95311   0.65829   0.00000  Uiso   1.00
C238   C     0.20338   0.91968   0.62452   0.00000  Uiso   1.00
C239   C     0.12955   0.85301   0.53391   0.00000  Uiso   1.00
C240   C     0.30805   0.02726   0.95530   0.00000  Uiso   1.00
C241   C     0.36114   0.00716   0.02380   0.00000  Uiso   1.00
C242   C     0.35415   0.99843   0.15721   0.00000  Uiso   1.00
C243   C     0.36758   0.97736   0.37488   0.00000  Uiso   1.00
C244   C     0.19826   0.05997   0.92409   0.00000  Uiso   1.00
C245   C     0.22412   0.11892   0.85631   0.00000  Uiso   1.00
C246   C     0.19527   0.17807   0.85382   0.00000  Uiso   1.00
C247   C     0.22652   0.22590   0.78651   0.00000  Uiso   1.00
C248   C     0.19383   0.00888   0.81925   0.00000  Uiso   1.00
C249   C     0.13950   0.97550   0.78564   0.00000  Uiso   1.00
C250   C     0.14525   0.93068   0.68715   0.00000  Uiso   1.00
C251   C     0.25003   0.03825   0.01782   0.00000  Uiso   1.00
C252   C     0.24296   0.02955   0.15115   0.00000  Uiso   1.00
C253   C     0.29602   0.00944   0.21984   0.00000  Uiso   1.00
H254   H     0.35025   0.03118   0.76031   0.00000  Uiso   1.00
H255   H     0.35834   0.14716   0.67809   0.00000  Uiso   1.00
H256   H     0.30259   0.94461   0.60993   0.00000  Uiso   1.00
H257   H     0.40602   0.99866   0.97538   0.00000  Uiso   1.00
H258   H     0.34172   0.28059   0.61447   0.00000  Uiso   1.00
H259   H     0.22416   0.85349   0.47078   0.00000  Uiso   1.00
H260   H     0.44228   0.96745   0.24141   0.00000  Uiso   1.00
H261   H     0.15309   0.06853   0.97277   0.00000  Uiso   1.00
H262   H     0.15037   0.18656   0.90221   0.00000  Uiso   1.00
H263   H     0.09461   0.98401   0.83405   0.00000  Uiso   1.00
H264   H     0.19805   0.03806   0.19950   0.00000  Uiso   1.00
H265   H     0.17292   0.31256   0.79637   0.00000  Uiso   1.00
H266   H     0.05537   0.88546   0.65268   0.00000  Uiso   1.00
H267   H     0.27348   0.99942   0.42331   0.00000  Uiso   1.00
O268   O     0.25907   0.37354   0.65513   0.00000  Uiso   1.00
O269   O     0.10485   0.81320   0.46664   0.00000  Uiso   1.00
O270   O     0.39102   0.96271   0.47768   0.00000  Uiso   1.00
N271   N     0.30237   0.27192   0.66698   0.00000  Uiso   1.00
N272   N     0.19246   0.87262   0.53263   0.00000  Uiso   1.00
N273   N     0.39638   0.97914   0.25310   0.00000  Uiso   1.00
N274   N     0.21154   0.28912   0.76486   0.00000  Uiso   1.00
N275   N     0.10163   0.88982   0.63051   0.00000  Uiso   1.00
N276   N     0.30555   0.99635   0.35098   0.00000  Uiso   1.00
C277   C     0.96026   0.30508   0.80898   0.00000  Uiso   1.00
C278   C     0.89207   0.28214   0.79379   0.00000  Uiso   1.00
C279   C     0.84431   0.31344   0.72647   0.00000  Uiso   1.00
C280   C     0.78511   0.28464   0.72388   0.00000  Uiso   1.00
C281   C     0.68090   0.25783   0.69071   0.00000  Uiso   1.00
C282   C     0.00211   0.25185   0.75674   0.00000  Uiso   1.00
C283   C     0.04689   0.25768   0.65829   0.00000  Uiso   1.00
C284   C     0.08032   0.20338   0.62452   0.00000  Uiso   1.00
C285   C     0.14699   0.12955   0.53391   0.00000  Uiso   1.00
C286   C     0.97274   0.30805   0.95530   0.00000  Uiso   1.00
C287   C     0.99284   0.36114   0.02380   0.00000  Uiso   1.00
C288   C     0.00157   0.35415   0.15721   0.00000  Uiso   1.00
C289   C     0.02264   0.36758   0.37488   0.00000  Uiso   1.00
C290   C     0.94003   0.19826   0.92409   0.00000  Uiso   1.00
C291   C     0.88108   0.22412   0.85631   0.00000  Uiso   1.00
C292   C     0.82193   0.19527   0.85382   0.00000  Uiso   1.00
C293   C     0.77410   0.22652   0.78651   0.00000  Uiso   1.00
C294   C     0.99112   0.19383   0.81925   0.00000  Uiso   1.00
C295   C     0.02450   0.13950   0.78564   0.00000  Uiso   1.00
C296   C     0.06932   0.14525   0.68715   0.00000  Uiso   1.00
C297   C     0.96175   0.25003   0.01782   0.00000  Uiso   1.00
C298   C     0.97045   0.24296   0.15115   0.00000  Uiso   1.00
C299   C     0.99056   0.29602   0.21984   0.00000  Uiso   1.00
H300   H     0.96882   0.35025   0.76031   0.00000  Uiso   1.00
H301   H     0.85284   0.35834   0.67809   0.00000  Uiso   1.00
H302   H     0.05539   0.30259   0.60993   0.00000  Uiso   1.00
H303   H     0.00134   0.40602   0.97538   0.00000  Uiso   1.00
H304   H     0.71941   0.34172   0.61447   0.00000  Uiso   1.00
H305   H     0.14651   0.22416   0.47078   0.00000  Uiso   1.00
H306   H     0.03255   0.44228   0.24141   0.00000  Uiso   1.00
H307   H     0.93147   0.15309   0.97277   0.00000  Uiso   1.00
H308   H     0.81344   0.15037   0.90221   0.00000  Uiso   1.00
H309   H     0.01599   0.09461   0.83405   0.00000  Uiso   1.00
H310   H     0.96194   0.19805   0.19950   0.00000  Uiso   1.00
H311   H     0.68744   0.17292   0.79637   0.00000  Uiso   1.00
H312   H     0.11454   0.05537   0.65268   0.00000  Uiso   1.00
H313   H     0.00058   0.27348   0.42331   0.00000  Uiso   1.00
O314   O     0.62646   0.25907   0.65513   0.00000  Uiso   1.00
O315   O     0.18680   0.10485   0.46664   0.00000  Uiso   1.00
O316   O     0.03729   0.39102   0.47768   0.00000  Uiso   1.00
N317   N     0.72808   0.30237   0.66698   0.00000  Uiso   1.00
N318   N     0.12738   0.19246   0.53263   0.00000  Uiso   1.00
N319   N     0.02086   0.39638   0.25310   0.00000  Uiso   1.00
N320   N     0.71088   0.21154   0.76486   0.00000  Uiso   1.00
N321   N     0.11018   0.10163   0.63051   0.00000  Uiso   1.00
N322   N     0.00365   0.30555   0.35098   0.00000  Uiso   1.00
C323   C     0.03974   0.69492   0.80898   0.00000  Uiso   1.00
C324   C     0.10793   0.71786   0.79379   0.00000  Uiso   1.00
C325   C     0.15569   0.68656   0.72647   0.00000  Uiso   1.00
C326   C     0.21489   0.71536   0.72388   0.00000  Uiso   1.00
C327   C     0.31910   0.74217   0.69071   0.00000  Uiso   1.00
C328   C     0.99789   0.74815   0.75674   0.00000  Uiso   1.00
C329   C     0.95311   0.74232   0.65829   0.00000  Uiso   1.00
C330   C     0.91968   0.79662   0.62452   0.00000  Uiso   1.00
C331   C     0.85301   0.87045   0.53391   0.00000  Uiso   1.00
C332   C     0.02726   0.69195   0.95530   0.00000  Uiso   1.00
C333   C     0.00716   0.63886   0.02380   0.00000  Uiso   1.00
C334   C     0.99843   0.64585   0.15721   0.00000  Uiso   1.00
C335   C     0.97736   0.63242   0.37488   0.00000  Uiso   1.00
C336   C     0.05997   0.80174   0.92409   0.00000  Uiso   1.00
C337   C     0.11892   0.77588   0.85631   0.00000  Uiso   1.00
C338   C     0.17807   0.80473   0.85382   0.00000  Uiso   1.00
C339   C     0.22590   0.77348   0.78651   0.00000  Uiso   1.00
C340   C     0.00888   0.80617   0.81925   0.00000  Uiso   1.00
C341   C     0.97550   0.86050   0.78564   0.00000  Uiso   1.00
C342   C     0.93068   0.85475   0.68715   0.00000  Uiso   1.00
C343   C     0.03825   0.74997   0.01782   0.00000  Uiso   1.00
C344   C     0.02955   0.75704   0.15115   0.00000  Uiso   1.00
C345   C     0.00944   0.70398   0.21984   0.00000  Uiso   1.00
H346   H     0.03118   0.64975   0.76031   0.00000  Uiso   1.00
H347   H     0.14716   0.64166   0.67809   0.00000  Uiso   1.00
H348   H     0.94461   0.69741   0.60993   0.00000  Uiso   1.00
H349   H     0.99866   0.59398   0.97538   0.00000  Uiso   1.00
H350   H     0.28059   0.65828   0.61447   0.00000  Uiso   1.00
H351   H     0.85349   0.77584   0.47078   0.00000  Uiso   1.00
H352   H     0.96745   0.55772   0.24141   0.00000  Uiso   1.00
H353   H     0.06853   0.84691   0.97277   0.00000  Uiso   1.00
H354   H     0.18656   0.84963   0.90221   0.00000  Uiso   1.00
H355   H     0.98401   0.90539   0.83405   0.00000  Uiso   1.00
H356   H     0.03806   0.80195   0.19950   0.00000  Uiso   1.00
H357   H     0.31256   0.82708   0.79637   0.00000  Uiso   1.00
H358   H     0.88546   0.94463   0.65268   0.00000  Uiso   1.00
H359   H     0.99942   0.72652   0.42331   0.00000  Uiso   1.00
O360   O     0.37354   0.74093   0.65513   0.00000  Uiso   1.00
O361   O     0.81320   0.89515   0.46664   0.00000  Uiso   1.00
O362   O     0.96271   0.60898   0.47768   0.00000  Uiso   1.00
N363   N     0.27192   0.69763   0.66698   0.00000  Uiso   1.00
N364   N     0.87262   0.80754   0.53263   0.00000  Uiso   1.00
N365   N     0.97914   0.60362   0.25310   0.00000  Uiso   1.00
N366   N     0.28912   0.78846   0.76486   0.00000  Uiso   1.00
N367   N     0.88982   0.89837   0.63051   0.00000  Uiso   1.00
N368   N     0.99635   0.69445   0.35098   0.00000  Uiso   1.00
