data_job_04648
_audit_creation_date              2018-12-19
_audit_creation_method            'Materials Studio'
_symmetry_space_group_name_H-M    'P1'
_symmetry_Int_Tables_number       1
_symmetry_cell_setting            triclinic
loop_
_symmetry_equiv_pos_as_xyz
  x,y,z
_cell_length_a                    36.1866
_cell_length_b                    12.5807
_cell_length_c                    34.8541
_cell_angle_alpha                 90.0000
_cell_angle_beta                  162.5938
_cell_angle_gamma                 90.0000
loop_
_atom_site_label
_atom_site_type_symbol
_atom_site_fract_x
_atom_site_fract_y
_atom_site_fract_z
_atom_site_U_iso_or_equiv
_atom_site_adp_type
_atom_site_occupancy
C1     C     0.60524   0.52460   0.01578   0.00000  Uiso   1.00
C2     C     0.58668   0.44286   0.96560   0.00000  Uiso   1.00
C3     C     0.65321   0.34938   0.02708   0.00000  Uiso   1.00
C4     C     0.62220   0.28522   0.96540   0.00000  Uiso   1.00
C5     C     0.60773   0.15401   0.90559   0.00000  Uiso   1.00
C6     C     0.63008   0.63010   0.02027   0.00000  Uiso   1.00
C7     C     0.73310   0.69405   0.12772   0.00000  Uiso   1.00
C8     C     0.73860   0.78752   0.11206   0.00000  Uiso   1.00
C9     C     0.79148   0.94705   0.13712   0.00000  Uiso   1.00
C10    C     0.48016   0.53667   0.91150   0.00000  Uiso   1.00
C11    C     0.45712   0.52209   0.92750   0.00000  Uiso   1.00
C12    C     0.33641   0.53692   0.82027   0.00000  Uiso   1.00
C13    C     0.15652   0.55137   0.67644   0.00000  Uiso   1.00
C14    C     0.43184   0.57689   0.79692   0.00000  Uiso   1.00
C15    C     0.49249   0.47127   0.84672   0.00000  Uiso   1.00
C16    C     0.46136   0.40724   0.78494   0.00000  Uiso   1.00
C17    C     0.52784   0.31367   0.84631   0.00000  Uiso   1.00
C18    C     0.53590   0.65851   0.90140   0.00000  Uiso   1.00
C19    C     0.54124   0.75191   0.88558   0.00000  Uiso   1.00
C20    C     0.64425   0.81598   0.99298   0.00000  Uiso   1.00
C21    C     0.38597   0.56507   0.79263   0.00000  Uiso   1.00
C22    C     0.26527   0.57994   0.68536   0.00000  Uiso   1.00
C23    C     0.24206   0.56538   0.70118   0.00000  Uiso   1.00
H24    H     0.67857   0.50249   0.10833   0.00000  Uiso   1.00
H25    H     0.72610   0.32743   0.11908   0.00000  Uiso   1.00
H26    H     0.80596   0.67205   0.21970   0.00000  Uiso   1.00
H27    H     0.53003   0.50011   0.01950   0.00000  Uiso   1.00
H28    H     0.73729   0.14588   0.07859   0.00000  Uiso   1.00
H29    H     0.90566   0.87256   0.29074   0.00000  Uiso   1.00
H30    H     0.32381   0.50999   0.86860   0.00000  Uiso   1.00
H31    H     0.35851   0.59901   0.70437   0.00000  Uiso   1.00
H32    H     0.38847   0.42924   0.69294   0.00000  Uiso   1.00
H33    H     0.46834   0.77387   0.79357   0.00000  Uiso   1.00
H34    H     0.19241   0.60192   0.59338   0.00000  Uiso   1.00
H35    H     0.46326   0.22852   0.73273   0.00000  Uiso   1.00
H36    H     0.63163   0.95521   0.94488   0.00000  Uiso   1.00
H37    H     0.04978   0.59263   0.52274   0.00000  Uiso   1.00
O38    O     0.62578   0.07380   0.90545   0.00000  Uiso   1.00
O39    O     0.84667   0.02718   0.18379   0.00000  Uiso   1.00
O40    O     0.08330   0.55148   0.62994   0.00000  Uiso   1.00
N41    N     0.66867   0.18862   0.99874   0.00000  Uiso   1.00
N42    N     0.82610   0.86802   0.19710   0.00000  Uiso   1.00
N43    N     0.28212   0.52906   0.80244   0.00000  Uiso   1.00
N44    N     0.52121   0.23309   0.81264   0.00000  Uiso   1.00
N45    N     0.67864   0.91248   0.01100   0.00000  Uiso   1.00
N46    N     0.13467   0.57353   0.61634   0.00000  Uiso   1.00
C47    C     0.39026   0.30031   0.49755   0.00000  Uiso   1.00
C48    C     0.40909   0.21895   0.54810   0.00000  Uiso   1.00
C49    C     0.34214   0.12580   0.48653   0.00000  Uiso   1.00
C50    C     0.37349   0.06196   0.54859   0.00000  Uiso   1.00
C51    C     0.38824   0.93134   0.60890   0.00000  Uiso   1.00
C52    C     0.36645   0.40620   0.49393   0.00000  Uiso   1.00
C53    C     0.26366   0.47049   0.38681   0.00000  Uiso   1.00
C54    C     0.25913   0.56427   0.40327   0.00000  Uiso   1.00
C55    C     0.20773   0.72440   0.37949   0.00000  Uiso   1.00
C56    C     0.51498   0.31160   0.60118   0.00000  Uiso   1.00
C57    C     0.53707   0.29637   0.58423   0.00000  Uiso   1.00
C58    C     0.65759   0.31054   0.69099   0.00000  Uiso   1.00
C59    C     0.83680   0.32378   0.83373   0.00000  Uiso   1.00
C60    C     0.56498   0.35257   0.71725   0.00000  Uiso   1.00
C61    C     0.50399   0.24734   0.66743   0.00000  Uiso   1.00
C62    C     0.53545   0.18362   0.72960   0.00000  Uiso   1.00
C63    C     0.46857   0.09039   0.66813   0.00000  Uiso   1.00
C64    C     0.46134   0.43458   0.61325   0.00000  Uiso   1.00
C65    C     0.45697   0.52830   0.62987   0.00000  Uiso   1.00
C66    C     0.35420   0.59271   0.52281   0.00000  Uiso   1.00
C67    C     0.60988   0.33998   0.72051   0.00000  Uiso   1.00
C68    C     0.73038   0.35418   0.82730   0.00000  Uiso   1.00
C69    C     0.75266   0.33898   0.81053   0.00000  Uiso   1.00
H70    H     0.31637   0.27822   0.40465   0.00000  Uiso   1.00
H71    H     0.26870   0.10387   0.39418   0.00000  Uiso   1.00
H72    H     0.19024   0.44850   0.29448   0.00000  Uiso   1.00
H73    H     0.46361   0.27441   0.49188   0.00000  Uiso   1.00
H74    H     0.25766   0.92310   0.43518   0.00000  Uiso   1.00
H75    H     0.09225   0.64981   0.22496   0.00000  Uiso   1.00
H76    H     0.66870   0.28270   0.64121   0.00000  Uiso   1.00
H77    H     0.63887   0.37467   0.81015   0.00000  Uiso   1.00
H78    H     0.60889   0.20560   0.82194   0.00000  Uiso   1.00
H79    H     0.53043   0.55025   0.72223   0.00000  Uiso   1.00
H80    H     0.80380   0.37615   0.91963   0.00000  Uiso   1.00
H81    H     0.53377   0.00568   0.78236   0.00000  Uiso   1.00
H82    H     0.36836   0.73239   0.57214   0.00000  Uiso   1.00
H83    H     0.94481   0.36527   0.98839   0.00000  Uiso   1.00
O84    O     0.37015   0.85145   0.60919   0.00000  Uiso   1.00
O85    O     0.15314   0.80487   0.33340   0.00000  Uiso   1.00
O86    O     0.90944   0.32322   0.87950   0.00000  Uiso   1.00
N87    N     0.32678   0.96573   0.51528   0.00000  Uiso   1.00
N88    N     0.17211   0.64515   0.31874   0.00000  Uiso   1.00
N89    N     0.71104   0.30196   0.70788   0.00000  Uiso   1.00
N90    N     0.47535   0.01016   0.70210   0.00000  Uiso   1.00
N91    N     0.32068   0.68958   0.50555   0.00000  Uiso   1.00
N92    N     0.85962   0.34639   0.89470   0.00000  Uiso   1.00
C93    C     0.19867   0.01370   0.13436   0.00000  Uiso   1.00
C94    C     0.17782   0.08857   0.07991   0.00000  Uiso   1.00
C95    C     0.10471   0.17917   0.00788   0.00000  Uiso   1.00
C96    C     0.09756   0.23700   0.96694   0.00000  Uiso   1.00
C97    C     0.05544   0.35805   0.87776   0.00000  Uiso   1.00
C98    C     0.16047   0.90354   0.08265   0.00000  Uiso   1.00
C99    C     0.07279   0.83858   0.01292   0.00000  Uiso   1.00
C100   C     0.05105   0.74066   0.97430   0.00000  Uiso   1.00
C101   C     0.98206   0.57442   0.88945   0.00000  Uiso   1.00
C102   C     0.33810   0.00895   0.27848   0.00000  Uiso   1.00
C103   C     0.39978   0.03259   0.37343   0.00000  Uiso   1.00
C104   C     0.52759   0.02339   0.49969   0.00000  Uiso   1.00
C105   C     0.73440   0.02082   0.71890   0.00000  Uiso   1.00
C106   C     0.31599   0.95529   0.18976   0.00000  Uiso   1.00
C107   C     0.24154   0.05683   0.11000   0.00000  Uiso   1.00
C108   C     0.23451   0.11455   0.06917   0.00000  Uiso   1.00
C109   C     0.16140   0.20522   0.99709   0.00000  Uiso   1.00
C110   C     0.22419   0.87182   0.11273   0.00000  Uiso   1.00
C111   C     0.20259   0.77396   0.07422   0.00000  Uiso   1.00
C112   C     0.11488   0.70887   0.00445   0.00000  Uiso   1.00
C113   C     0.40183   0.97723   0.30858   0.00000  Uiso   1.00
C114   C     0.52957   0.96798   0.43472   0.00000  Uiso   1.00
C115   C     0.59143   0.99160   0.52984   0.00000  Uiso   1.00
H116   H     0.14906   0.03839   0.11094   0.00000  Uiso   1.00
H117   H     0.05540   0.20369   0.98460   0.00000  Uiso   1.00
H118   H     0.02350   0.86315   0.98966   0.00000  Uiso   1.00
H119   H     0.35043   0.05714   0.35011   0.00000  Uiso   1.00
H120   H     0.97963   0.37294   0.85777   0.00000  Uiso   1.00
H121   H     0.91239   0.65488   0.86847   0.00000  Uiso   1.00
H122   H     0.60180   0.06394   0.62855   0.00000  Uiso   1.00
H123   H     0.36560   0.93059   0.21319   0.00000  Uiso   1.00
H124   H     0.28383   0.08998   0.09247   0.00000  Uiso   1.00
H125   H     0.25192   0.74943   0.09752   0.00000  Uiso   1.00
H126   H     0.57886   0.94342   0.45797   0.00000  Uiso   1.00
H127   H     0.16502   0.28064   0.94531   0.00000  Uiso   1.00
H128   H     0.09779   0.56258   0.95602   0.00000  Uiso   1.00
H129   H     0.78719   0.97164   0.71609   0.00000  Uiso   1.00
O130   O     0.01459   0.43357   0.82024   0.00000  Uiso   1.00
O131   O     0.92640   0.49150   0.83431   0.00000  Uiso   1.00
O132   O     0.83088   0.02818   0.83150   0.00000  Uiso   1.00
N133   N     0.03450   0.32936   0.89496   0.00000  Uiso   1.00
N134   N     0.97162   0.65802   0.90495   0.00000  Uiso   1.00
N135   N     0.61616   0.04043   0.61556   0.00000  Uiso   1.00
N136   N     0.13426   0.27969   0.94207   0.00000  Uiso   1.00
N137   N     0.07139   0.60836   0.95206   0.00000  Uiso   1.00
N138   N     0.71592   0.99077   0.66266   0.00000  Uiso   1.00
C139   C     0.79949   0.23741   0.38056   0.00000  Uiso   1.00
C140   C     0.82159   0.31331   0.43587   0.00000  Uiso   1.00
C141   C     0.89393   0.40433   0.50643   0.00000  Uiso   1.00
C142   C     0.90247   0.46312   0.54850   0.00000  Uiso   1.00
C143   C     0.94621   0.58569   0.63863   0.00000  Uiso   1.00
C144   C     0.83935   0.12787   0.43410   0.00000  Uiso   1.00
C145   C     0.92661   0.06297   0.50316   0.00000  Uiso   1.00
C146   C     0.95009   0.96564   0.54373   0.00000  Uiso   1.00
C147   C     0.02133   0.80027   0.63103   0.00000  Uiso   1.00
C148   C     0.65979   0.23168   0.23694   0.00000  Uiso   1.00
C149   C     0.59607   0.25404   0.14021   0.00000  Uiso   1.00
C150   C     0.46837   0.24409   0.01478   0.00000  Uiso   1.00
C151   C     0.26083   0.23990   0.79596   0.00000  Uiso   1.00
C152   C     0.68603   0.17996   0.32980   0.00000  Uiso   1.00
C153   C     0.75996   0.28210   0.40829   0.00000  Uiso   1.00
C154   C     0.76839   0.34077   0.45026   0.00000  Uiso   1.00
C155   C     0.84073   0.43186   0.52087   0.00000  Uiso   1.00
C156   C     0.77773   0.09666   0.40653   0.00000  Uiso   1.00
C157   C     0.80107   0.99940   0.44700   0.00000  Uiso   1.00
C158   C     0.88835   0.93437   0.51611   0.00000  Uiso   1.00
C159   C     0.59816   0.20048   0.20936   0.00000  Uiso   1.00
C160   C     0.47054   0.19048   0.08406   0.00000  Uiso   1.00
C161   C     0.40663   0.21282   0.98716   0.00000  Uiso   1.00
H162   H     0.84748   0.26170   0.40203   0.00000  Uiso   1.00
H163   H     0.94162   0.42845   0.52776   0.00000  Uiso   1.00
H164   H     0.97428   0.08713   0.52447   0.00000  Uiso   1.00
H165   H     0.64379   0.27818   0.16159   0.00000  Uiso   1.00
H166   H     0.01884   0.59954   0.65503   0.00000  Uiso   1.00
H167   H     0.08769   0.87984   0.64807   0.00000  Uiso   1.00
H168   H     0.39080   0.28270   0.88285   0.00000  Uiso   1.00
H169   H     0.63804   0.15566   0.30833   0.00000  Uiso   1.00
H170   H     0.72069   0.31660   0.42891   0.00000  Uiso   1.00
H171   H     0.75336   0.97528   0.42564   0.00000  Uiso   1.00
H172   H     0.42288   0.16633   0.06275   0.00000  Uiso   1.00
H173   H     0.83954   0.50875   0.57481   0.00000  Uiso   1.00
H174   H     0.90838   0.78905   0.56785   0.00000  Uiso   1.00
H175   H     0.21149   0.19191   0.80264   0.00000  Uiso   1.00
O176   O     0.98737   0.66191   0.69597   0.00000  Uiso   1.00
O177   O     0.07767   0.71768   0.68682   0.00000  Uiso   1.00
O178   O     0.16337   0.24623   0.68288   0.00000  Uiso   1.00
N179   N     0.96528   0.55610   0.61958   0.00000  Uiso   1.00
N180   N     0.02966   0.88323   0.61309   0.00000  Uiso   1.00
N181   N     0.37813   0.25984   0.89768   0.00000  Uiso   1.00
N182   N     0.86880   0.50725   0.57641   0.00000  Uiso   1.00
N183   N     0.93318   0.83438   0.56993   0.00000  Uiso   1.00
N184   N     0.28164   0.21099   0.85451   0.00000  Uiso   1.00
C185   C     0.60524   0.47540   0.51578   0.00000  Uiso   1.00
C186   C     0.58668   0.55714   0.46560   0.00000  Uiso   1.00
C187   C     0.65321   0.65062   0.52708   0.00000  Uiso   1.00
C188   C     0.62220   0.71478   0.46540   0.00000  Uiso   1.00
C189   C     0.60773   0.84599   0.40559   0.00000  Uiso   1.00
C190   C     0.63008   0.36990   0.52027   0.00000  Uiso   1.00
C191   C     0.73310   0.30595   0.62772   0.00000  Uiso   1.00
C192   C     0.73860   0.21248   0.61206   0.00000  Uiso   1.00
C193   C     0.79148   0.05295   0.63712   0.00000  Uiso   1.00
C194   C     0.48016   0.46333   0.41150   0.00000  Uiso   1.00
C195   C     0.45712   0.47791   0.42750   0.00000  Uiso   1.00
C196   C     0.33641   0.46308   0.32027   0.00000  Uiso   1.00
C197   C     0.15652   0.44863   0.17644   0.00000  Uiso   1.00
C198   C     0.43184   0.42311   0.29692   0.00000  Uiso   1.00
C199   C     0.49249   0.52873   0.34672   0.00000  Uiso   1.00
C200   C     0.46136   0.59276   0.28494   0.00000  Uiso   1.00
C201   C     0.52784   0.68633   0.34631   0.00000  Uiso   1.00
C202   C     0.53590   0.34149   0.40140   0.00000  Uiso   1.00
C203   C     0.54124   0.24809   0.38558   0.00000  Uiso   1.00
C204   C     0.64425   0.18402   0.49298   0.00000  Uiso   1.00
C205   C     0.38597   0.43493   0.29263   0.00000  Uiso   1.00
C206   C     0.26527   0.42006   0.18536   0.00000  Uiso   1.00
C207   C     0.24206   0.43462   0.20118   0.00000  Uiso   1.00
H208   H     0.67857   0.49751   0.60833   0.00000  Uiso   1.00
H209   H     0.72610   0.67257   0.61908   0.00000  Uiso   1.00
H210   H     0.80596   0.32795   0.71970   0.00000  Uiso   1.00
H211   H     0.53003   0.49989   0.51950   0.00000  Uiso   1.00
H212   H     0.73729   0.85412   0.57859   0.00000  Uiso   1.00
H213   H     0.90566   0.12744   0.79074   0.00000  Uiso   1.00
H214   H     0.32381   0.49001   0.36860   0.00000  Uiso   1.00
H215   H     0.35851   0.40099   0.20437   0.00000  Uiso   1.00
H216   H     0.38847   0.57076   0.19294   0.00000  Uiso   1.00
H217   H     0.46834   0.22613   0.29357   0.00000  Uiso   1.00
H218   H     0.19241   0.39808   0.09338   0.00000  Uiso   1.00
H219   H     0.46326   0.77148   0.23273   0.00000  Uiso   1.00
H220   H     0.63163   0.04479   0.44488   0.00000  Uiso   1.00
H221   H     0.04978   0.40737   0.02274   0.00000  Uiso   1.00
O222   O     0.62578   0.92620   0.40545   0.00000  Uiso   1.00
O223   O     0.84667   0.97282   0.68379   0.00000  Uiso   1.00
O224   O     0.08330   0.44852   0.12994   0.00000  Uiso   1.00
N225   N     0.66867   0.81138   0.49874   0.00000  Uiso   1.00
N226   N     0.82610   0.13198   0.69710   0.00000  Uiso   1.00
N227   N     0.28212   0.47094   0.30244   0.00000  Uiso   1.00
N228   N     0.52121   0.76691   0.31264   0.00000  Uiso   1.00
N229   N     0.67864   0.08752   0.51100   0.00000  Uiso   1.00
N230   N     0.13467   0.42647   0.11634   0.00000  Uiso   1.00
C231   C     0.39026   0.69969   0.99755   0.00000  Uiso   1.00
C232   C     0.40909   0.78105   0.04810   0.00000  Uiso   1.00
C233   C     0.34214   0.87420   0.98653   0.00000  Uiso   1.00
C234   C     0.37349   0.93804   0.04859   0.00000  Uiso   1.00
C235   C     0.38824   0.06866   0.10890   0.00000  Uiso   1.00
C236   C     0.36645   0.59380   0.99393   0.00000  Uiso   1.00
C237   C     0.26366   0.52951   0.88681   0.00000  Uiso   1.00
C238   C     0.25913   0.43573   0.90327   0.00000  Uiso   1.00
C239   C     0.20773   0.27560   0.87949   0.00000  Uiso   1.00
C240   C     0.51498   0.68840   0.10118   0.00000  Uiso   1.00
C241   C     0.53707   0.70363   0.08423   0.00000  Uiso   1.00
C242   C     0.65759   0.68946   0.19099   0.00000  Uiso   1.00
C243   C     0.83680   0.67622   0.33373   0.00000  Uiso   1.00
C244   C     0.56498   0.64743   0.21725   0.00000  Uiso   1.00
C245   C     0.50399   0.75266   0.16743   0.00000  Uiso   1.00
C246   C     0.53545   0.81638   0.22960   0.00000  Uiso   1.00
C247   C     0.46857   0.90961   0.16813   0.00000  Uiso   1.00
C248   C     0.46134   0.56542   0.11325   0.00000  Uiso   1.00
C249   C     0.45697   0.47170   0.12987   0.00000  Uiso   1.00
C250   C     0.35420   0.40729   0.02281   0.00000  Uiso   1.00
C251   C     0.60988   0.66002   0.22051   0.00000  Uiso   1.00
C252   C     0.73038   0.64582   0.32730   0.00000  Uiso   1.00
C253   C     0.75266   0.66102   0.31053   0.00000  Uiso   1.00
H254   H     0.31637   0.72178   0.90465   0.00000  Uiso   1.00
H255   H     0.26870   0.89613   0.89418   0.00000  Uiso   1.00
H256   H     0.19024   0.55150   0.79448   0.00000  Uiso   1.00
H257   H     0.46361   0.72559   0.99188   0.00000  Uiso   1.00
H258   H     0.25766   0.07690   0.93518   0.00000  Uiso   1.00
H259   H     0.09225   0.35019   0.72496   0.00000  Uiso   1.00
H260   H     0.66870   0.71730   0.14121   0.00000  Uiso   1.00
H261   H     0.63887   0.62533   0.31015   0.00000  Uiso   1.00
H262   H     0.60889   0.79440   0.32194   0.00000  Uiso   1.00
H263   H     0.53043   0.44975   0.22223   0.00000  Uiso   1.00
H264   H     0.80380   0.62385   0.41963   0.00000  Uiso   1.00
H265   H     0.53377   0.99432   0.28236   0.00000  Uiso   1.00
H266   H     0.36836   0.26761   0.07214   0.00000  Uiso   1.00
H267   H     0.94481   0.63473   0.48839   0.00000  Uiso   1.00
O268   O     0.37015   0.14855   0.10919   0.00000  Uiso   1.00
O269   O     0.15314   0.19513   0.83340   0.00000  Uiso   1.00
O270   O     0.90944   0.67678   0.37950   0.00000  Uiso   1.00
N271   N     0.32678   0.03427   0.01528   0.00000  Uiso   1.00
N272   N     0.17211   0.35485   0.81874   0.00000  Uiso   1.00
N273   N     0.71104   0.69804   0.20788   0.00000  Uiso   1.00
N274   N     0.47535   0.98984   0.20210   0.00000  Uiso   1.00
N275   N     0.32068   0.31042   0.00555   0.00000  Uiso   1.00
N276   N     0.85962   0.65361   0.39470   0.00000  Uiso   1.00
C277   C     0.19867   0.98630   0.63436   0.00000  Uiso   1.00
C278   C     0.17782   0.91143   0.57991   0.00000  Uiso   1.00
C279   C     0.10471   0.82083   0.50788   0.00000  Uiso   1.00
C280   C     0.09756   0.76300   0.46694   0.00000  Uiso   1.00
C281   C     0.05544   0.64195   0.37776   0.00000  Uiso   1.00
C282   C     0.16047   0.09646   0.58265   0.00000  Uiso   1.00
C283   C     0.07279   0.16142   0.51292   0.00000  Uiso   1.00
C284   C     0.05105   0.25934   0.47430   0.00000  Uiso   1.00
C285   C     0.98206   0.42558   0.38945   0.00000  Uiso   1.00
C286   C     0.33810   0.99105   0.77848   0.00000  Uiso   1.00
C287   C     0.39978   0.96741   0.87343   0.00000  Uiso   1.00
C288   C     0.52759   0.97661   0.99969   0.00000  Uiso   1.00
C289   C     0.73440   0.97918   0.21890   0.00000  Uiso   1.00
C290   C     0.31599   0.04471   0.68976   0.00000  Uiso   1.00
C291   C     0.24154   0.94317   0.61000   0.00000  Uiso   1.00
C292   C     0.23451   0.88545   0.56917   0.00000  Uiso   1.00
C293   C     0.16140   0.79478   0.49709   0.00000  Uiso   1.00
C294   C     0.22419   0.12818   0.61273   0.00000  Uiso   1.00
C295   C     0.20259   0.22604   0.57422   0.00000  Uiso   1.00
C296   C     0.11488   0.29113   0.50445   0.00000  Uiso   1.00
C297   C     0.40183   0.02277   0.80858   0.00000  Uiso   1.00
C298   C     0.52957   0.03202   0.93472   0.00000  Uiso   1.00
C299   C     0.59143   0.00840   0.02984   0.00000  Uiso   1.00
H300   H     0.14906   0.96161   0.61094   0.00000  Uiso   1.00
H301   H     0.05540   0.79631   0.48460   0.00000  Uiso   1.00
H302   H     0.02350   0.13685   0.48966   0.00000  Uiso   1.00
H303   H     0.35043   0.94286   0.85011   0.00000  Uiso   1.00
H304   H     0.97963   0.62706   0.35777   0.00000  Uiso   1.00
H305   H     0.91239   0.34512   0.36847   0.00000  Uiso   1.00
H306   H     0.60180   0.93606   0.12855   0.00000  Uiso   1.00
H307   H     0.36560   0.06941   0.71319   0.00000  Uiso   1.00
H308   H     0.28383   0.91002   0.59247   0.00000  Uiso   1.00
H309   H     0.25192   0.25057   0.59752   0.00000  Uiso   1.00
H310   H     0.57886   0.05658   0.95797   0.00000  Uiso   1.00
H311   H     0.16502   0.71936   0.44531   0.00000  Uiso   1.00
H312   H     0.09779   0.43742   0.45602   0.00000  Uiso   1.00
H313   H     0.78719   0.02836   0.21609   0.00000  Uiso   1.00
O314   O     0.01459   0.56643   0.32024   0.00000  Uiso   1.00
O315   O     0.92640   0.50850   0.33431   0.00000  Uiso   1.00
O316   O     0.83088   0.97182   0.33150   0.00000  Uiso   1.00
N317   N     0.03450   0.67064   0.39496   0.00000  Uiso   1.00
N318   N     0.97162   0.34198   0.40495   0.00000  Uiso   1.00
N319   N     0.61616   0.95957   0.11556   0.00000  Uiso   1.00
N320   N     0.13426   0.72031   0.44207   0.00000  Uiso   1.00
N321   N     0.07139   0.39164   0.45206   0.00000  Uiso   1.00
N322   N     0.71592   0.00923   0.16266   0.00000  Uiso   1.00
C323   C     0.79949   0.76259   0.88056   0.00000  Uiso   1.00
C324   C     0.82159   0.68669   0.93587   0.00000  Uiso   1.00
C325   C     0.89393   0.59567   0.00643   0.00000  Uiso   1.00
C326   C     0.90247   0.53688   0.04850   0.00000  Uiso   1.00
C327   C     0.94621   0.41431   0.13863   0.00000  Uiso   1.00
C328   C     0.83935   0.87213   0.93410   0.00000  Uiso   1.00
C329   C     0.92661   0.93703   0.00316   0.00000  Uiso   1.00
C330   C     0.95009   0.03436   0.04373   0.00000  Uiso   1.00
C331   C     0.02133   0.19973   0.13103   0.00000  Uiso   1.00
C332   C     0.65979   0.76832   0.73694   0.00000  Uiso   1.00
C333   C     0.59607   0.74596   0.64021   0.00000  Uiso   1.00
C334   C     0.46837   0.75591   0.51478   0.00000  Uiso   1.00
C335   C     0.26083   0.76010   0.29596   0.00000  Uiso   1.00
C336   C     0.68603   0.82004   0.82980   0.00000  Uiso   1.00
C337   C     0.75996   0.71790   0.90829   0.00000  Uiso   1.00
C338   C     0.76839   0.65923   0.95026   0.00000  Uiso   1.00
C339   C     0.84073   0.56814   0.02087   0.00000  Uiso   1.00
C340   C     0.77773   0.90334   0.90653   0.00000  Uiso   1.00
C341   C     0.80107   0.00060   0.94700   0.00000  Uiso   1.00
C342   C     0.88835   0.06563   0.01611   0.00000  Uiso   1.00
C343   C     0.59816   0.79952   0.70936   0.00000  Uiso   1.00
C344   C     0.47054   0.80952   0.58406   0.00000  Uiso   1.00
C345   C     0.40663   0.78718   0.48716   0.00000  Uiso   1.00
H346   H     0.84748   0.73830   0.90203   0.00000  Uiso   1.00
H347   H     0.94162   0.57155   0.02776   0.00000  Uiso   1.00
H348   H     0.97428   0.91287   0.02447   0.00000  Uiso   1.00
H349   H     0.64379   0.72182   0.66159   0.00000  Uiso   1.00
H350   H     0.01884   0.40046   0.15503   0.00000  Uiso   1.00
H351   H     0.08769   0.12016   0.14807   0.00000  Uiso   1.00
H352   H     0.39080   0.71730   0.38285   0.00000  Uiso   1.00
H353   H     0.63804   0.84434   0.80833   0.00000  Uiso   1.00
H354   H     0.72069   0.68340   0.92891   0.00000  Uiso   1.00
H355   H     0.75336   0.02472   0.92564   0.00000  Uiso   1.00
H356   H     0.42288   0.83367   0.56275   0.00000  Uiso   1.00
H357   H     0.83954   0.49125   0.07481   0.00000  Uiso   1.00
H358   H     0.90838   0.21095   0.06785   0.00000  Uiso   1.00
H359   H     0.21149   0.80809   0.30264   0.00000  Uiso   1.00
O360   O     0.98737   0.33809   0.19597   0.00000  Uiso   1.00
O361   O     0.07767   0.28232   0.18682   0.00000  Uiso   1.00
O362   O     0.16337   0.75377   0.18288   0.00000  Uiso   1.00
N363   N     0.96528   0.44390   0.11958   0.00000  Uiso   1.00
N364   N     0.02966   0.11677   0.11309   0.00000  Uiso   1.00
N365   N     0.37813   0.74016   0.39768   0.00000  Uiso   1.00
N366   N     0.86880   0.49275   0.07641   0.00000  Uiso   1.00
N367   N     0.93318   0.16562   0.06993   0.00000  Uiso   1.00
N368   N     0.28164   0.78901   0.35451   0.00000  Uiso   1.00
