data_job_01159
_audit_creation_date              2018-12-19
_audit_creation_method            'Materials Studio'
_symmetry_space_group_name_H-M    'P1'
_symmetry_Int_Tables_number       1
_symmetry_cell_setting            triclinic
loop_
_symmetry_equiv_pos_as_xyz
  x,y,z
_cell_length_a                    7.0697
_cell_length_b                    18.5694
_cell_length_c                    24.4147
_cell_angle_alpha                 90.0000
_cell_angle_beta                  106.8548
_cell_angle_gamma                 90.0000
loop_
_atom_site_label
_atom_site_type_symbol
_atom_site_fract_x
_atom_site_fract_y
_atom_site_fract_z
_atom_site_U_iso_or_equiv
_atom_site_adp_type
_atom_site_occupancy
C1     C     0.28672   0.67089   0.75004   0.00000  Uiso   1.00
C2     C     0.23465   0.64145   0.80217   0.00000  Uiso   1.00
C3     C     0.35887   0.60137   0.84601   0.00000  Uiso   1.00
C4     C     0.28353   0.57945   0.88988   0.00000  Uiso   1.00
C5     C     0.23195   0.53103   0.97080   0.00000  Uiso   1.00
C6     C     0.13038   0.64144   0.69790   0.00000  Uiso   1.00
C7     C     0.16695   0.60136   0.65407   0.00000  Uiso   1.00
C8     C     0.00382   0.57944   0.61017   0.00000  Uiso   1.00
C9     C     0.79038   0.53105   0.52920   0.00000  Uiso   1.00
C10    C     0.25203   0.75194   0.75003   0.00000  Uiso   1.00
C11    C     0.39087   0.80477   0.75002   0.00000  Uiso   1.00
C12    C     0.33016   0.87589   0.74999   0.00000  Uiso   1.00
C13    C     0.30561   0.99907   0.74995   0.00000  Uiso   1.00
C14    C     0.93201   0.70324   0.75000   0.00000  Uiso   1.00
C15    C     0.04198   0.65902   0.80214   0.00000  Uiso   1.00
C16    C     0.96643   0.63716   0.84596   0.00000  Uiso   1.00
C17    C     0.09052   0.59705   0.88986   0.00000  Uiso   1.00
C18    C     0.93772   0.65901   0.69787   0.00000  Uiso   1.00
C19    C     0.77450   0.63715   0.65402   0.00000  Uiso   1.00
C20    C     0.81081   0.59704   0.61014   0.00000  Uiso   1.00
C21    C     0.05937   0.76951   0.75000   0.00000  Uiso   1.00
C22    C     0.99843   0.84056   0.74997   0.00000  Uiso   1.00
C23    C     0.13715   0.89349   0.74996   0.00000  Uiso   1.00
H24    H     0.43670   0.65721   0.75006   0.00000  Uiso   1.00
H25    H     0.50796   0.58778   0.84601   0.00000  Uiso   1.00
H26    H     0.31606   0.58778   0.65410   0.00000  Uiso   1.00
H27    H     0.53995   0.79116   0.75004   0.00000  Uiso   1.00
H28    H     0.50196   0.51853   0.95237   0.00000  Uiso   1.00
H29    H     0.09734   0.51854   0.54771   0.00000  Uiso   1.00
H30    H     0.56946   0.94741   0.75000   0.00000  Uiso   1.00
H31    H     0.78200   0.71692   0.74998   0.00000  Uiso   1.00
H32    H     0.81733   0.65076   0.84593   0.00000  Uiso   1.00
H33    H     0.62543   0.65076   0.65402   0.00000  Uiso   1.00
H34    H     0.84932   0.85414   0.74995   0.00000  Uiso   1.00
H35    H     0.94142   0.56964   0.95230   0.00000  Uiso   1.00
H36    H     0.53680   0.56966   0.54764   0.00000  Uiso   1.00
H37    H     0.00892   0.99852   0.74993   0.00000  Uiso   1.00
O38    O     0.25672   0.49947   0.01544   0.00000  Uiso   1.00
O39    O     0.72588   0.49950   0.48454   0.00000  Uiso   1.00
O40    O     0.34529   0.06216   0.74995   0.00000  Uiso   1.00
N41    N     0.36520   0.53965   0.93919   0.00000  Uiso   1.00
N42    N     0.98690   0.53965   0.56086   0.00000  Uiso   1.00
N43    N     0.42829   0.94061   0.74997   0.00000  Uiso   1.00
N44    N     0.06358   0.56715   0.93915   0.00000  Uiso   1.00
N45    N     0.68528   0.56716   0.56083   0.00000  Uiso   1.00
N46    N     0.12666   0.96811   0.74993   0.00000  Uiso   1.00
C47    C     0.71328   0.17089   0.74996   0.00000  Uiso   1.00
C48    C     0.76535   0.14145   0.69783   0.00000  Uiso   1.00
C49    C     0.64113   0.10137   0.65399   0.00000  Uiso   1.00
C50    C     0.71647   0.07945   0.61012   0.00000  Uiso   1.00
C51    C     0.76805   0.03103   0.52920   0.00000  Uiso   1.00
C52    C     0.86962   0.14144   0.80210   0.00000  Uiso   1.00
C53    C     0.83305   0.10136   0.84593   0.00000  Uiso   1.00
C54    C     0.99618   0.07944   0.88983   0.00000  Uiso   1.00
C55    C     0.20962   0.03105   0.97080   0.00000  Uiso   1.00
C56    C     0.74797   0.25194   0.74997   0.00000  Uiso   1.00
C57    C     0.60913   0.30477   0.74998   0.00000  Uiso   1.00
C58    C     0.66984   0.37589   0.75001   0.00000  Uiso   1.00
C59    C     0.69439   0.49907   0.75005   0.00000  Uiso   1.00
C60    C     0.06799   0.20324   0.75000   0.00000  Uiso   1.00
C61    C     0.95802   0.15902   0.69786   0.00000  Uiso   1.00
C62    C     0.03357   0.13716   0.65404   0.00000  Uiso   1.00
C63    C     0.90948   0.09705   0.61014   0.00000  Uiso   1.00
C64    C     0.06228   0.15901   0.80213   0.00000  Uiso   1.00
C65    C     0.22550   0.13715   0.84598   0.00000  Uiso   1.00
C66    C     0.18919   0.09704   0.88986   0.00000  Uiso   1.00
C67    C     0.94063   0.26951   0.75000   0.00000  Uiso   1.00
C68    C     0.00157   0.34056   0.75003   0.00000  Uiso   1.00
C69    C     0.86285   0.39349   0.75004   0.00000  Uiso   1.00
H70    H     0.56330   0.15721   0.74994   0.00000  Uiso   1.00
H71    H     0.49204   0.08778   0.65399   0.00000  Uiso   1.00
H72    H     0.68394   0.08778   0.84590   0.00000  Uiso   1.00
H73    H     0.46005   0.29116   0.74996   0.00000  Uiso   1.00
H74    H     0.49804   0.01853   0.54763   0.00000  Uiso   1.00
H75    H     0.90266   0.01854   0.95229   0.00000  Uiso   1.00
H76    H     0.43054   0.44741   0.75000   0.00000  Uiso   1.00
H77    H     0.21800   0.21692   0.75002   0.00000  Uiso   1.00
H78    H     0.18267   0.15076   0.65407   0.00000  Uiso   1.00
H79    H     0.37457   0.15076   0.84598   0.00000  Uiso   1.00
H80    H     0.15068   0.35414   0.75005   0.00000  Uiso   1.00
H81    H     0.05858   0.06964   0.54770   0.00000  Uiso   1.00
H82    H     0.46320   0.06966   0.95236   0.00000  Uiso   1.00
H83    H     0.99108   0.49852   0.75007   0.00000  Uiso   1.00
O84    O     0.74328   0.99947   0.48456   0.00000  Uiso   1.00
O85    O     0.27412   0.99950   0.01546   0.00000  Uiso   1.00
O86    O     0.65471   0.56216   0.75005   0.00000  Uiso   1.00
N87    N     0.63480   0.03965   0.56081   0.00000  Uiso   1.00
N88    N     0.01310   0.03965   0.93914   0.00000  Uiso   1.00
N89    N     0.57171   0.44061   0.75003   0.00000  Uiso   1.00
N90    N     0.93642   0.06715   0.56085   0.00000  Uiso   1.00
N91    N     0.31472   0.06716   0.93917   0.00000  Uiso   1.00
N92    N     0.87334   0.46811   0.75007   0.00000  Uiso   1.00
C93    C     0.71328   0.32911   0.24996   0.00000  Uiso   1.00
C94    C     0.76535   0.35855   0.19783   0.00000  Uiso   1.00
C95    C     0.64113   0.39863   0.15399   0.00000  Uiso   1.00
C96    C     0.71647   0.42055   0.11012   0.00000  Uiso   1.00
C97    C     0.76805   0.46897   0.02920   0.00000  Uiso   1.00
C98    C     0.86962   0.35856   0.30210   0.00000  Uiso   1.00
C99    C     0.83305   0.39864   0.34593   0.00000  Uiso   1.00
C100   C     0.99618   0.42056   0.38983   0.00000  Uiso   1.00
C101   C     0.20962   0.46895   0.47080   0.00000  Uiso   1.00
C102   C     0.74797   0.24806   0.24997   0.00000  Uiso   1.00
C103   C     0.60913   0.19523   0.24998   0.00000  Uiso   1.00
C104   C     0.66984   0.12411   0.25001   0.00000  Uiso   1.00
C105   C     0.69439   0.00093   0.25005   0.00000  Uiso   1.00
C106   C     0.06799   0.29676   0.25000   0.00000  Uiso   1.00
C107   C     0.95802   0.34098   0.19786   0.00000  Uiso   1.00
C108   C     0.03357   0.36284   0.15404   0.00000  Uiso   1.00
C109   C     0.90948   0.40295   0.11014   0.00000  Uiso   1.00
C110   C     0.06228   0.34099   0.30213   0.00000  Uiso   1.00
C111   C     0.22550   0.36285   0.34598   0.00000  Uiso   1.00
C112   C     0.18919   0.40296   0.38986   0.00000  Uiso   1.00
C113   C     0.94063   0.23049   0.25000   0.00000  Uiso   1.00
C114   C     0.00157   0.15944   0.25003   0.00000  Uiso   1.00
C115   C     0.86285   0.10651   0.25004   0.00000  Uiso   1.00
H116   H     0.56330   0.34279   0.24994   0.00000  Uiso   1.00
H117   H     0.49204   0.41222   0.15399   0.00000  Uiso   1.00
H118   H     0.68394   0.41222   0.34590   0.00000  Uiso   1.00
H119   H     0.46005   0.20884   0.24996   0.00000  Uiso   1.00
H120   H     0.49804   0.48147   0.04763   0.00000  Uiso   1.00
H121   H     0.90266   0.48146   0.45229   0.00000  Uiso   1.00
H122   H     0.43054   0.05259   0.25000   0.00000  Uiso   1.00
H123   H     0.21800   0.28308   0.25002   0.00000  Uiso   1.00
H124   H     0.18267   0.34924   0.15407   0.00000  Uiso   1.00
H125   H     0.37457   0.34924   0.34598   0.00000  Uiso   1.00
H126   H     0.15068   0.14586   0.25005   0.00000  Uiso   1.00
H127   H     0.05858   0.43036   0.04770   0.00000  Uiso   1.00
H128   H     0.46320   0.43034   0.45236   0.00000  Uiso   1.00
H129   H     0.99108   0.00148   0.25007   0.00000  Uiso   1.00
O130   O     0.74328   0.50053   0.98456   0.00000  Uiso   1.00
O131   O     0.27412   0.50050   0.51546   0.00000  Uiso   1.00
O132   O     0.65471   0.93784   0.25005   0.00000  Uiso   1.00
N133   N     0.63480   0.46035   0.06081   0.00000  Uiso   1.00
N134   N     0.01310   0.46035   0.43914   0.00000  Uiso   1.00
N135   N     0.57171   0.05939   0.25003   0.00000  Uiso   1.00
N136   N     0.93642   0.43285   0.06085   0.00000  Uiso   1.00
N137   N     0.31472   0.43284   0.43917   0.00000  Uiso   1.00
N138   N     0.87334   0.03189   0.25007   0.00000  Uiso   1.00
C139   C     0.28672   0.82911   0.25004   0.00000  Uiso   1.00
C140   C     0.23465   0.85855   0.30217   0.00000  Uiso   1.00
C141   C     0.35887   0.89863   0.34601   0.00000  Uiso   1.00
C142   C     0.28353   0.92055   0.38988   0.00000  Uiso   1.00
C143   C     0.23195   0.96897   0.47080   0.00000  Uiso   1.00
C144   C     0.13038   0.85856   0.19790   0.00000  Uiso   1.00
C145   C     0.16695   0.89864   0.15407   0.00000  Uiso   1.00
C146   C     0.00382   0.92056   0.11017   0.00000  Uiso   1.00
C147   C     0.79038   0.96895   0.02920   0.00000  Uiso   1.00
C148   C     0.25203   0.74806   0.25003   0.00000  Uiso   1.00
C149   C     0.39087   0.69523   0.25002   0.00000  Uiso   1.00
C150   C     0.33016   0.62411   0.24999   0.00000  Uiso   1.00
C151   C     0.30561   0.50093   0.24995   0.00000  Uiso   1.00
C152   C     0.93201   0.79676   0.25000   0.00000  Uiso   1.00
C153   C     0.04198   0.84098   0.30214   0.00000  Uiso   1.00
C154   C     0.96643   0.86284   0.34596   0.00000  Uiso   1.00
C155   C     0.09052   0.90295   0.38986   0.00000  Uiso   1.00
C156   C     0.93772   0.84099   0.19787   0.00000  Uiso   1.00
C157   C     0.77450   0.86285   0.15402   0.00000  Uiso   1.00
C158   C     0.81081   0.90296   0.11014   0.00000  Uiso   1.00
C159   C     0.05937   0.73049   0.25000   0.00000  Uiso   1.00
C160   C     0.99843   0.65944   0.24997   0.00000  Uiso   1.00
C161   C     0.13715   0.60651   0.24996   0.00000  Uiso   1.00
H162   H     0.43670   0.84279   0.25006   0.00000  Uiso   1.00
H163   H     0.50796   0.91222   0.34601   0.00000  Uiso   1.00
H164   H     0.31606   0.91222   0.15410   0.00000  Uiso   1.00
H165   H     0.53995   0.70884   0.25004   0.00000  Uiso   1.00
H166   H     0.50196   0.98147   0.45237   0.00000  Uiso   1.00
H167   H     0.09734   0.98146   0.04771   0.00000  Uiso   1.00
H168   H     0.56946   0.55259   0.25000   0.00000  Uiso   1.00
H169   H     0.78200   0.78308   0.24998   0.00000  Uiso   1.00
H170   H     0.81733   0.84924   0.34593   0.00000  Uiso   1.00
H171   H     0.62543   0.84924   0.15402   0.00000  Uiso   1.00
H172   H     0.84932   0.64586   0.24995   0.00000  Uiso   1.00
H173   H     0.94142   0.93036   0.45230   0.00000  Uiso   1.00
H174   H     0.53680   0.93034   0.04764   0.00000  Uiso   1.00
H175   H     0.00892   0.50148   0.24993   0.00000  Uiso   1.00
O176   O     0.25672   0.00053   0.51544   0.00000  Uiso   1.00
O177   O     0.72588   0.00050   0.98454   0.00000  Uiso   1.00
O178   O     0.34529   0.43784   0.24995   0.00000  Uiso   1.00
N179   N     0.36520   0.96035   0.43919   0.00000  Uiso   1.00
N180   N     0.98690   0.96035   0.06086   0.00000  Uiso   1.00
N181   N     0.42829   0.55939   0.24997   0.00000  Uiso   1.00
N182   N     0.06358   0.93285   0.43915   0.00000  Uiso   1.00
N183   N     0.68528   0.93284   0.06083   0.00000  Uiso   1.00
N184   N     0.12666   0.53189   0.24993   0.00000  Uiso   1.00
