data_job_01588
_audit_creation_date              2018-12-19
_audit_creation_method            'Materials Studio'
_symmetry_space_group_name_H-M    'P1'
_symmetry_Int_Tables_number       1
_symmetry_cell_setting            triclinic
loop_
_symmetry_equiv_pos_as_xyz
  x,y,z
_cell_length_a                    37.1379
_cell_length_b                    15.3743
_cell_length_c                    9.8990
_cell_angle_alpha                 90.0000
_cell_angle_beta                  90.0000
_cell_angle_gamma                 90.0000
loop_
_atom_site_label
_atom_site_type_symbol
_atom_site_fract_x
_atom_site_fract_y
_atom_site_fract_z
_atom_site_U_iso_or_equiv
_atom_site_adp_type
_atom_site_occupancy
C1     C     0.87510   0.50161   0.19938   0.00000  Uiso   1.00
C2     C     0.86320   0.57479   0.29330   0.00000  Uiso   1.00
C3     C     0.82790   0.60019   0.31689   0.00000  Uiso   1.00
C4     C     0.82262   0.66858   0.40632   0.00000  Uiso   1.00
C5     C     0.79973   0.77594   0.54244   0.00000  Uiso   1.00
C6     C     0.90126   0.54262   0.09916   0.00000  Uiso   1.00
C7     C     0.89796   0.54096   0.95953   0.00000  Uiso   1.00
C8     C     0.92472   0.58226   0.88554   0.00000  Uiso   1.00
C9     C     0.96094   0.63962   0.72027   0.00000  Uiso   1.00
C10    C     0.89744   0.43971   0.28575   0.00000  Uiso   1.00
C11    C     0.89094   0.35151   0.30298   0.00000  Uiso   1.00
C12    C     0.91449   0.30616   0.38606   0.00000  Uiso   1.00
C13    C     0.94478   0.20372   0.51049   0.00000  Uiso   1.00
C14    C     0.92851   0.57789   0.31625   0.00000  Uiso   1.00
C15    C     0.89221   0.61622   0.35677   0.00000  Uiso   1.00
C16    C     0.88699   0.68459   0.44619   0.00000  Uiso   1.00
C17    C     0.85168   0.71009   0.46992   0.00000  Uiso   1.00
C18    C     0.93027   0.58405   0.16264   0.00000  Uiso   1.00
C19    C     0.95705   0.62536   0.08883   0.00000  Uiso   1.00
C20    C     0.95379   0.62377   0.94913   0.00000  Uiso   1.00
C21    C     0.92645   0.48114   0.34923   0.00000  Uiso   1.00
C22    C     0.95002   0.43591   0.43229   0.00000  Uiso   1.00
C23    C     0.94355   0.34767   0.44965   0.00000  Uiso   1.00
H24    H     0.85252   0.46936   0.14995   0.00000  Uiso   1.00
H25    H     0.80546   0.56812   0.26774   0.00000  Uiso   1.00
H26    H     0.87551   0.50889   0.91044   0.00000  Uiso   1.00
H27    H     0.86849   0.31947   0.25384   0.00000  Uiso   1.00
H28    H     0.76608   0.69591   0.42628   0.00000  Uiso   1.00
H29    H     0.91379   0.57099   0.67290   0.00000  Uiso   1.00
H30    H     0.89898   0.17156   0.39702   0.00000  Uiso   1.00
H31    H     0.95109   0.61015   0.36566   0.00000  Uiso   1.00
H32    H     0.90944   0.71664   0.49530   0.00000  Uiso   1.00
H33    H     0.97949   0.65741   0.13799   0.00000  Uiso   1.00
H34    H     0.97247   0.46800   0.48139   0.00000  Uiso   1.00
H35    H     0.85047   0.81646   0.61097   0.00000  Uiso   1.00
H36    H     0.99819   0.69154   0.85758   0.00000  Uiso   1.00
H37    H     0.98338   0.29211   0.58171   0.00000  Uiso   1.00
O38    O     0.77910   0.82371   0.59997   0.00000  Uiso   1.00
O39    O     0.97289   0.65981   0.61157   0.00000  Uiso   1.00
O40    O     0.95346   0.13578   0.56160   0.00000  Uiso   1.00
N41    N     0.79165   0.70965   0.45198   0.00000  Uiso   1.00
N42    N     0.92975   0.59288   0.74761   0.00000  Uiso   1.00
N43    N     0.91591   0.21944   0.42458   0.00000  Uiso   1.00
N44    N     0.83707   0.77452   0.55136   0.00000  Uiso   1.00
N45    N     0.97517   0.65774   0.84699   0.00000  Uiso   1.00
N46    N     0.96133   0.28431   0.52396   0.00000  Uiso   1.00
C47    C     0.37468   0.99827   0.39610   0.00000  Uiso   1.00
C48    C     0.36226   0.07051   0.49083   0.00000  Uiso   1.00
C49    C     0.32678   0.09430   0.51474   0.00000  Uiso   1.00
C50    C     0.32101   0.16205   0.60492   0.00000  Uiso   1.00
C51    C     0.29736   0.26779   0.74224   0.00000  Uiso   1.00
C52    C     0.40052   0.04084   0.29631   0.00000  Uiso   1.00
C53    C     0.39722   0.03968   0.15667   0.00000  Uiso   1.00
C54    C     0.42367   0.08245   0.08311   0.00000  Uiso   1.00
C55    C     0.45944   0.14208   0.91843   0.00000  Uiso   1.00
C56    C     0.39747   0.93693   0.48177   0.00000  Uiso   1.00
C57    C     0.39161   0.84840   0.49803   0.00000  Uiso   1.00
C58    C     0.41550   0.80368   0.58059   0.00000  Uiso   1.00
C59    C     0.44654   0.70198   0.70386   0.00000  Uiso   1.00
C60    C     0.42753   0.07627   0.51375   0.00000  Uiso   1.00
C61    C     0.39097   0.11287   0.55473   0.00000  Uiso   1.00
C62    C     0.38526   0.18060   0.64491   0.00000  Uiso   1.00
C63    C     0.34977   0.20449   0.66895   0.00000  Uiso   1.00
C64    C     0.42923   0.08321   0.36021   0.00000  Uiso   1.00
C65    C     0.45570   0.12598   0.28684   0.00000  Uiso   1.00
C66    C     0.45243   0.12489   0.14712   0.00000  Uiso   1.00
C67    C     0.42618   0.97930   0.54567   0.00000  Uiso   1.00
C68    C     0.45009   0.93470   0.62820   0.00000  Uiso   1.00
C69    C     0.44427   0.84612   0.64460   0.00000  Uiso   1.00
H70    H     0.35233   0.96529   0.34634   0.00000  Uiso   1.00
H71    H     0.30457   0.06150   0.46526   0.00000  Uiso   1.00
H72    H     0.37500   0.00688   0.10725   0.00000  Uiso   1.00
H73    H     0.36939   0.81563   0.44857   0.00000  Uiso   1.00
H74    H     0.26428   0.18687   0.62524   0.00000  Uiso   1.00
H75    H     0.41280   0.07168   0.87036   0.00000  Uiso   1.00
H76    H     0.40097   0.66840   0.59009   0.00000  Uiso   1.00
H77    H     0.44989   0.10926   0.56350   0.00000  Uiso   1.00
H78    H     0.40748   0.21337   0.69434   0.00000  Uiso   1.00
H79    H     0.47791   0.15876   0.33632   0.00000  Uiso   1.00
H80    H     0.47230   0.96751   0.67764   0.00000  Uiso   1.00
H81    H     0.34780   0.31014   0.81117   0.00000  Uiso   1.00
H82    H     0.49633   0.19495   0.05628   0.00000  Uiso   1.00
H83    H     0.48450   0.79167   0.77601   0.00000  Uiso   1.00
O84    O     0.27639   0.31442   0.80032   0.00000  Uiso   1.00
O85    O     0.47124   0.16327   0.80994   0.00000  Uiso   1.00
O86    O     0.45572   0.63418   0.75421   0.00000  Uiso   1.00
N87    N     0.28976   0.20159   0.65106   0.00000  Uiso   1.00
N88    N     0.42861   0.09390   0.94529   0.00000  Uiso   1.00
N89    N     0.41756   0.71686   0.61815   0.00000  Uiso   1.00
N90    N     0.33470   0.26792   0.75111   0.00000  Uiso   1.00
N91    N     0.47356   0.16023   0.04534   0.00000  Uiso   1.00
N92    N     0.46250   0.78319   0.71820   0.00000  Uiso   1.00
C93    C     0.12490   0.49839   0.19938   0.00000  Uiso   1.00
C94    C     0.13680   0.42521   0.29330   0.00000  Uiso   1.00
C95    C     0.17210   0.39981   0.31689   0.00000  Uiso   1.00
C96    C     0.17738   0.33142   0.40632   0.00000  Uiso   1.00
C97    C     0.20027   0.22406   0.54244   0.00000  Uiso   1.00
C98    C     0.09874   0.45738   0.09916   0.00000  Uiso   1.00
C99    C     0.10204   0.45904   0.95953   0.00000  Uiso   1.00
C100   C     0.07528   0.41774   0.88554   0.00000  Uiso   1.00
C101   C     0.03906   0.36038   0.72027   0.00000  Uiso   1.00
C102   C     0.10256   0.56029   0.28575   0.00000  Uiso   1.00
C103   C     0.10906   0.64849   0.30298   0.00000  Uiso   1.00
C104   C     0.08551   0.69384   0.38606   0.00000  Uiso   1.00
C105   C     0.05522   0.79628   0.51049   0.00000  Uiso   1.00
C106   C     0.07149   0.42211   0.31625   0.00000  Uiso   1.00
C107   C     0.10779   0.38378   0.35677   0.00000  Uiso   1.00
C108   C     0.11301   0.31541   0.44619   0.00000  Uiso   1.00
C109   C     0.14832   0.28991   0.46992   0.00000  Uiso   1.00
C110   C     0.06973   0.41595   0.16264   0.00000  Uiso   1.00
C111   C     0.04295   0.37464   0.08883   0.00000  Uiso   1.00
C112   C     0.04621   0.37623   0.94913   0.00000  Uiso   1.00
C113   C     0.07355   0.51886   0.34923   0.00000  Uiso   1.00
C114   C     0.04998   0.56409   0.43229   0.00000  Uiso   1.00
C115   C     0.05645   0.65233   0.44965   0.00000  Uiso   1.00
H116   H     0.14748   0.53064   0.14995   0.00000  Uiso   1.00
H117   H     0.19454   0.43188   0.26774   0.00000  Uiso   1.00
H118   H     0.12449   0.49111   0.91044   0.00000  Uiso   1.00
H119   H     0.13151   0.68053   0.25384   0.00000  Uiso   1.00
H120   H     0.23392   0.30409   0.42628   0.00000  Uiso   1.00
H121   H     0.08621   0.42901   0.67290   0.00000  Uiso   1.00
H122   H     0.10102   0.82844   0.39702   0.00000  Uiso   1.00
H123   H     0.04891   0.38985   0.36566   0.00000  Uiso   1.00
H124   H     0.09056   0.28336   0.49530   0.00000  Uiso   1.00
H125   H     0.02051   0.34259   0.13799   0.00000  Uiso   1.00
H126   H     0.02753   0.53200   0.48139   0.00000  Uiso   1.00
H127   H     0.14953   0.18354   0.61097   0.00000  Uiso   1.00
H128   H     0.00181   0.30846   0.85758   0.00000  Uiso   1.00
H129   H     0.01662   0.70789   0.58171   0.00000  Uiso   1.00
O130   O     0.22090   0.17629   0.59997   0.00000  Uiso   1.00
O131   O     0.02711   0.34019   0.61157   0.00000  Uiso   1.00
O132   O     0.04654   0.86422   0.56160   0.00000  Uiso   1.00
N133   N     0.20835   0.29035   0.45198   0.00000  Uiso   1.00
N134   N     0.07025   0.40712   0.74761   0.00000  Uiso   1.00
N135   N     0.08409   0.78056   0.42458   0.00000  Uiso   1.00
N136   N     0.16293   0.22548   0.55136   0.00000  Uiso   1.00
N137   N     0.02483   0.34226   0.84699   0.00000  Uiso   1.00
N138   N     0.03867   0.71569   0.52396   0.00000  Uiso   1.00
C139   C     0.62532   0.00173   0.39610   0.00000  Uiso   1.00
C140   C     0.63774   0.92949   0.49083   0.00000  Uiso   1.00
C141   C     0.67322   0.90570   0.51474   0.00000  Uiso   1.00
C142   C     0.67899   0.83795   0.60492   0.00000  Uiso   1.00
C143   C     0.70264   0.73221   0.74224   0.00000  Uiso   1.00
C144   C     0.59948   0.95916   0.29631   0.00000  Uiso   1.00
C145   C     0.60278   0.96032   0.15667   0.00000  Uiso   1.00
C146   C     0.57633   0.91755   0.08311   0.00000  Uiso   1.00
C147   C     0.54056   0.85792   0.91843   0.00000  Uiso   1.00
C148   C     0.60253   0.06307   0.48177   0.00000  Uiso   1.00
C149   C     0.60839   0.15160   0.49803   0.00000  Uiso   1.00
C150   C     0.58450   0.19632   0.58059   0.00000  Uiso   1.00
C151   C     0.55346   0.29802   0.70386   0.00000  Uiso   1.00
C152   C     0.57247   0.92373   0.51375   0.00000  Uiso   1.00
C153   C     0.60903   0.88713   0.55473   0.00000  Uiso   1.00
C154   C     0.61474   0.81940   0.64491   0.00000  Uiso   1.00
C155   C     0.65023   0.79551   0.66895   0.00000  Uiso   1.00
C156   C     0.57077   0.91679   0.36021   0.00000  Uiso   1.00
C157   C     0.54430   0.87402   0.28684   0.00000  Uiso   1.00
C158   C     0.54757   0.87511   0.14712   0.00000  Uiso   1.00
C159   C     0.57382   0.02070   0.54567   0.00000  Uiso   1.00
C160   C     0.54991   0.06530   0.62820   0.00000  Uiso   1.00
C161   C     0.55573   0.15388   0.64460   0.00000  Uiso   1.00
H162   H     0.64767   0.03471   0.34634   0.00000  Uiso   1.00
H163   H     0.69543   0.93850   0.46526   0.00000  Uiso   1.00
H164   H     0.62500   0.99312   0.10725   0.00000  Uiso   1.00
H165   H     0.63061   0.18437   0.44857   0.00000  Uiso   1.00
H166   H     0.73572   0.81313   0.62524   0.00000  Uiso   1.00
H167   H     0.58720   0.92832   0.87036   0.00000  Uiso   1.00
H168   H     0.59903   0.33160   0.59009   0.00000  Uiso   1.00
H169   H     0.55011   0.89074   0.56350   0.00000  Uiso   1.00
H170   H     0.59252   0.78663   0.69434   0.00000  Uiso   1.00
H171   H     0.52209   0.84124   0.33632   0.00000  Uiso   1.00
H172   H     0.52770   0.03249   0.67764   0.00000  Uiso   1.00
H173   H     0.65220   0.68986   0.81117   0.00000  Uiso   1.00
H174   H     0.50367   0.80505   0.05628   0.00000  Uiso   1.00
H175   H     0.51550   0.20833   0.77601   0.00000  Uiso   1.00
O176   O     0.72361   0.68558   0.80032   0.00000  Uiso   1.00
O177   O     0.52876   0.83673   0.80994   0.00000  Uiso   1.00
O178   O     0.54428   0.36582   0.75421   0.00000  Uiso   1.00
N179   N     0.71024   0.79841   0.65106   0.00000  Uiso   1.00
N180   N     0.57139   0.90610   0.94529   0.00000  Uiso   1.00
N181   N     0.58244   0.28314   0.61815   0.00000  Uiso   1.00
N182   N     0.66530   0.73208   0.75111   0.00000  Uiso   1.00
N183   N     0.52644   0.83977   0.04534   0.00000  Uiso   1.00
N184   N     0.53750   0.21681   0.71820   0.00000  Uiso   1.00
C185   C     0.87510   0.99839   0.69938   0.00000  Uiso   1.00
C186   C     0.86320   0.92521   0.79330   0.00000  Uiso   1.00
C187   C     0.82790   0.89981   0.81689   0.00000  Uiso   1.00
C188   C     0.82262   0.83142   0.90632   0.00000  Uiso   1.00
C189   C     0.79973   0.72406   0.04244   0.00000  Uiso   1.00
C190   C     0.90126   0.95738   0.59916   0.00000  Uiso   1.00
C191   C     0.89796   0.95904   0.45953   0.00000  Uiso   1.00
C192   C     0.92472   0.91774   0.38554   0.00000  Uiso   1.00
C193   C     0.96094   0.86038   0.22027   0.00000  Uiso   1.00
C194   C     0.89744   0.06029   0.78575   0.00000  Uiso   1.00
C195   C     0.89094   0.14849   0.80298   0.00000  Uiso   1.00
C196   C     0.91449   0.19384   0.88606   0.00000  Uiso   1.00
C197   C     0.94478   0.29628   0.01049   0.00000  Uiso   1.00
C198   C     0.92851   0.92211   0.81625   0.00000  Uiso   1.00
C199   C     0.89221   0.88378   0.85677   0.00000  Uiso   1.00
C200   C     0.88699   0.81541   0.94619   0.00000  Uiso   1.00
C201   C     0.85168   0.78991   0.96992   0.00000  Uiso   1.00
C202   C     0.93027   0.91595   0.66264   0.00000  Uiso   1.00
C203   C     0.95705   0.87464   0.58883   0.00000  Uiso   1.00
C204   C     0.95379   0.87623   0.44913   0.00000  Uiso   1.00
C205   C     0.92645   0.01886   0.84923   0.00000  Uiso   1.00
C206   C     0.95002   0.06409   0.93229   0.00000  Uiso   1.00
C207   C     0.94355   0.15233   0.94965   0.00000  Uiso   1.00
H208   H     0.85252   0.03064   0.64995   0.00000  Uiso   1.00
H209   H     0.80546   0.93188   0.76774   0.00000  Uiso   1.00
H210   H     0.87551   0.99111   0.41044   0.00000  Uiso   1.00
H211   H     0.86849   0.18053   0.75384   0.00000  Uiso   1.00
H212   H     0.76608   0.80409   0.92628   0.00000  Uiso   1.00
H213   H     0.91379   0.92901   0.17290   0.00000  Uiso   1.00
H214   H     0.89898   0.32844   0.89702   0.00000  Uiso   1.00
H215   H     0.95109   0.88985   0.86566   0.00000  Uiso   1.00
H216   H     0.90944   0.78336   0.99530   0.00000  Uiso   1.00
H217   H     0.97949   0.84259   0.63799   0.00000  Uiso   1.00
H218   H     0.97247   0.03200   0.98139   0.00000  Uiso   1.00
H219   H     0.85047   0.68354   0.11097   0.00000  Uiso   1.00
H220   H     0.99819   0.80846   0.35758   0.00000  Uiso   1.00
H221   H     0.98338   0.20789   0.08171   0.00000  Uiso   1.00
O222   O     0.77910   0.67629   0.09997   0.00000  Uiso   1.00
O223   O     0.97289   0.84019   0.11157   0.00000  Uiso   1.00
O224   O     0.95346   0.36422   0.06160   0.00000  Uiso   1.00
N225   N     0.79165   0.79035   0.95198   0.00000  Uiso   1.00
N226   N     0.92975   0.90712   0.24761   0.00000  Uiso   1.00
N227   N     0.91591   0.28056   0.92458   0.00000  Uiso   1.00
N228   N     0.83707   0.72548   0.05136   0.00000  Uiso   1.00
N229   N     0.97517   0.84226   0.34699   0.00000  Uiso   1.00
N230   N     0.96133   0.21569   0.02396   0.00000  Uiso   1.00
C231   C     0.37468   0.50173   0.89610   0.00000  Uiso   1.00
C232   C     0.36226   0.42949   0.99083   0.00000  Uiso   1.00
C233   C     0.32678   0.40570   0.01474   0.00000  Uiso   1.00
C234   C     0.32101   0.33795   0.10492   0.00000  Uiso   1.00
C235   C     0.29736   0.23221   0.24224   0.00000  Uiso   1.00
C236   C     0.40052   0.45916   0.79631   0.00000  Uiso   1.00
C237   C     0.39722   0.46032   0.65667   0.00000  Uiso   1.00
C238   C     0.42367   0.41755   0.58311   0.00000  Uiso   1.00
C239   C     0.45944   0.35792   0.41843   0.00000  Uiso   1.00
C240   C     0.39747   0.56307   0.98177   0.00000  Uiso   1.00
C241   C     0.39161   0.65160   0.99803   0.00000  Uiso   1.00
C242   C     0.41550   0.69632   0.08059   0.00000  Uiso   1.00
C243   C     0.44654   0.79802   0.20386   0.00000  Uiso   1.00
C244   C     0.42753   0.42373   0.01375   0.00000  Uiso   1.00
C245   C     0.39097   0.38713   0.05473   0.00000  Uiso   1.00
C246   C     0.38526   0.31940   0.14491   0.00000  Uiso   1.00
C247   C     0.34977   0.29551   0.16895   0.00000  Uiso   1.00
C248   C     0.42923   0.41679   0.86021   0.00000  Uiso   1.00
C249   C     0.45570   0.37402   0.78684   0.00000  Uiso   1.00
C250   C     0.45243   0.37511   0.64712   0.00000  Uiso   1.00
C251   C     0.42618   0.52070   0.04567   0.00000  Uiso   1.00
C252   C     0.45009   0.56530   0.12820   0.00000  Uiso   1.00
C253   C     0.44427   0.65388   0.14460   0.00000  Uiso   1.00
H254   H     0.35233   0.53471   0.84634   0.00000  Uiso   1.00
H255   H     0.30457   0.43850   0.96526   0.00000  Uiso   1.00
H256   H     0.37500   0.49312   0.60725   0.00000  Uiso   1.00
H257   H     0.36939   0.68437   0.94857   0.00000  Uiso   1.00
H258   H     0.26428   0.31313   0.12524   0.00000  Uiso   1.00
H259   H     0.41280   0.42832   0.37036   0.00000  Uiso   1.00
H260   H     0.40097   0.83160   0.09009   0.00000  Uiso   1.00
H261   H     0.44989   0.39074   0.06350   0.00000  Uiso   1.00
H262   H     0.40748   0.28663   0.19434   0.00000  Uiso   1.00
H263   H     0.47791   0.34124   0.83632   0.00000  Uiso   1.00
H264   H     0.47230   0.53249   0.17764   0.00000  Uiso   1.00
H265   H     0.34780   0.18986   0.31117   0.00000  Uiso   1.00
H266   H     0.49633   0.30505   0.55628   0.00000  Uiso   1.00
H267   H     0.48450   0.70833   0.27601   0.00000  Uiso   1.00
O268   O     0.27639   0.18558   0.30032   0.00000  Uiso   1.00
O269   O     0.47124   0.33673   0.30994   0.00000  Uiso   1.00
O270   O     0.45572   0.86582   0.25421   0.00000  Uiso   1.00
N271   N     0.28976   0.29841   0.15106   0.00000  Uiso   1.00
N272   N     0.42861   0.40610   0.44529   0.00000  Uiso   1.00
N273   N     0.41756   0.78314   0.11815   0.00000  Uiso   1.00
N274   N     0.33470   0.23208   0.25111   0.00000  Uiso   1.00
N275   N     0.47356   0.33977   0.54534   0.00000  Uiso   1.00
N276   N     0.46250   0.71681   0.21820   0.00000  Uiso   1.00
C277   C     0.12490   0.00161   0.69938   0.00000  Uiso   1.00
C278   C     0.13680   0.07479   0.79330   0.00000  Uiso   1.00
C279   C     0.17210   0.10019   0.81689   0.00000  Uiso   1.00
C280   C     0.17738   0.16858   0.90632   0.00000  Uiso   1.00
C281   C     0.20027   0.27594   0.04244   0.00000  Uiso   1.00
C282   C     0.09874   0.04262   0.59916   0.00000  Uiso   1.00
C283   C     0.10204   0.04096   0.45953   0.00000  Uiso   1.00
C284   C     0.07528   0.08226   0.38554   0.00000  Uiso   1.00
C285   C     0.03906   0.13962   0.22027   0.00000  Uiso   1.00
C286   C     0.10256   0.93971   0.78575   0.00000  Uiso   1.00
C287   C     0.10906   0.85151   0.80298   0.00000  Uiso   1.00
C288   C     0.08551   0.80616   0.88606   0.00000  Uiso   1.00
C289   C     0.05522   0.70372   0.01049   0.00000  Uiso   1.00
C290   C     0.07149   0.07789   0.81625   0.00000  Uiso   1.00
C291   C     0.10779   0.11622   0.85677   0.00000  Uiso   1.00
C292   C     0.11301   0.18459   0.94619   0.00000  Uiso   1.00
C293   C     0.14832   0.21009   0.96992   0.00000  Uiso   1.00
C294   C     0.06973   0.08405   0.66264   0.00000  Uiso   1.00
C295   C     0.04295   0.12536   0.58883   0.00000  Uiso   1.00
C296   C     0.04621   0.12377   0.44913   0.00000  Uiso   1.00
C297   C     0.07355   0.98114   0.84923   0.00000  Uiso   1.00
C298   C     0.04998   0.93591   0.93229   0.00000  Uiso   1.00
C299   C     0.05645   0.84767   0.94965   0.00000  Uiso   1.00
H300   H     0.14748   0.96936   0.64995   0.00000  Uiso   1.00
H301   H     0.19454   0.06812   0.76774   0.00000  Uiso   1.00
H302   H     0.12449   0.00889   0.41044   0.00000  Uiso   1.00
H303   H     0.13151   0.81947   0.75384   0.00000  Uiso   1.00
H304   H     0.23392   0.19591   0.92628   0.00000  Uiso   1.00
H305   H     0.08621   0.07099   0.17290   0.00000  Uiso   1.00
H306   H     0.10102   0.67156   0.89702   0.00000  Uiso   1.00
H307   H     0.04891   0.11015   0.86566   0.00000  Uiso   1.00
H308   H     0.09056   0.21664   0.99530   0.00000  Uiso   1.00
H309   H     0.02051   0.15741   0.63799   0.00000  Uiso   1.00
H310   H     0.02753   0.96800   0.98139   0.00000  Uiso   1.00
H311   H     0.14953   0.31646   0.11097   0.00000  Uiso   1.00
H312   H     0.00181   0.19154   0.35758   0.00000  Uiso   1.00
H313   H     0.01662   0.79211   0.08171   0.00000  Uiso   1.00
O314   O     0.22090   0.32371   0.09997   0.00000  Uiso   1.00
O315   O     0.02711   0.15981   0.11157   0.00000  Uiso   1.00
O316   O     0.04654   0.63578   0.06160   0.00000  Uiso   1.00
N317   N     0.20835   0.20965   0.95198   0.00000  Uiso   1.00
N318   N     0.07025   0.09288   0.24761   0.00000  Uiso   1.00
N319   N     0.08409   0.71944   0.92458   0.00000  Uiso   1.00
N320   N     0.16293   0.27452   0.05136   0.00000  Uiso   1.00
N321   N     0.02483   0.15774   0.34699   0.00000  Uiso   1.00
N322   N     0.03867   0.78431   0.02396   0.00000  Uiso   1.00
C323   C     0.62532   0.49827   0.89610   0.00000  Uiso   1.00
C324   C     0.63774   0.57051   0.99083   0.00000  Uiso   1.00
C325   C     0.67322   0.59430   0.01474   0.00000  Uiso   1.00
C326   C     0.67899   0.66205   0.10492   0.00000  Uiso   1.00
C327   C     0.70264   0.76779   0.24224   0.00000  Uiso   1.00
C328   C     0.59948   0.54084   0.79631   0.00000  Uiso   1.00
C329   C     0.60278   0.53968   0.65667   0.00000  Uiso   1.00
C330   C     0.57633   0.58245   0.58311   0.00000  Uiso   1.00
C331   C     0.54056   0.64208   0.41843   0.00000  Uiso   1.00
C332   C     0.60253   0.43693   0.98177   0.00000  Uiso   1.00
C333   C     0.60839   0.34840   0.99803   0.00000  Uiso   1.00
C334   C     0.58450   0.30368   0.08059   0.00000  Uiso   1.00
C335   C     0.55346   0.20198   0.20386   0.00000  Uiso   1.00
C336   C     0.57247   0.57627   0.01375   0.00000  Uiso   1.00
C337   C     0.60903   0.61287   0.05473   0.00000  Uiso   1.00
C338   C     0.61474   0.68060   0.14491   0.00000  Uiso   1.00
C339   C     0.65023   0.70449   0.16895   0.00000  Uiso   1.00
C340   C     0.57077   0.58321   0.86021   0.00000  Uiso   1.00
C341   C     0.54430   0.62598   0.78684   0.00000  Uiso   1.00
C342   C     0.54757   0.62489   0.64712   0.00000  Uiso   1.00
C343   C     0.57382   0.47930   0.04567   0.00000  Uiso   1.00
C344   C     0.54991   0.43470   0.12820   0.00000  Uiso   1.00
C345   C     0.55573   0.34612   0.14460   0.00000  Uiso   1.00
H346   H     0.64767   0.46529   0.84634   0.00000  Uiso   1.00
H347   H     0.69543   0.56150   0.96526   0.00000  Uiso   1.00
H348   H     0.62500   0.50688   0.60725   0.00000  Uiso   1.00
H349   H     0.63061   0.31563   0.94857   0.00000  Uiso   1.00
H350   H     0.73572   0.68687   0.12524   0.00000  Uiso   1.00
H351   H     0.58720   0.57168   0.37036   0.00000  Uiso   1.00
H352   H     0.59903   0.16840   0.09009   0.00000  Uiso   1.00
H353   H     0.55011   0.60926   0.06350   0.00000  Uiso   1.00
H354   H     0.59252   0.71337   0.19434   0.00000  Uiso   1.00
H355   H     0.52209   0.65876   0.83632   0.00000  Uiso   1.00
H356   H     0.52770   0.46751   0.17764   0.00000  Uiso   1.00
H357   H     0.65220   0.81014   0.31117   0.00000  Uiso   1.00
H358   H     0.50367   0.69495   0.55628   0.00000  Uiso   1.00
H359   H     0.51550   0.29167   0.27601   0.00000  Uiso   1.00
O360   O     0.72361   0.81442   0.30032   0.00000  Uiso   1.00
O361   O     0.52876   0.66327   0.30994   0.00000  Uiso   1.00
O362   O     0.54428   0.13418   0.25421   0.00000  Uiso   1.00
N363   N     0.71024   0.70159   0.15106   0.00000  Uiso   1.00
N364   N     0.57139   0.59390   0.44529   0.00000  Uiso   1.00
N365   N     0.58244   0.21686   0.11815   0.00000  Uiso   1.00
N366   N     0.66530   0.76792   0.25111   0.00000  Uiso   1.00
N367   N     0.52644   0.66023   0.54534   0.00000  Uiso   1.00
N368   N     0.53750   0.28319   0.21820   0.00000  Uiso   1.00
