data_job_02281
_audit_creation_date              2018-12-19
_audit_creation_method            'Materials Studio'
_symmetry_space_group_name_H-M    'P1'
_symmetry_Int_Tables_number       1
_symmetry_cell_setting            triclinic
loop_
_symmetry_equiv_pos_as_xyz
  x,y,z
_cell_length_a                    15.6343
_cell_length_b                    18.6845
_cell_length_c                    22.3762
_cell_angle_alpha                 90.0000
_cell_angle_beta                  97.7981
_cell_angle_gamma                 90.0000
loop_
_atom_site_label
_atom_site_type_symbol
_atom_site_fract_x
_atom_site_fract_y
_atom_site_fract_z
_atom_site_U_iso_or_equiv
_atom_site_adp_type
_atom_site_occupancy
C1     C     0.86737   0.64652   0.74225   0.00000  Uiso   1.00
C2     C     0.85552   0.72298   0.76351   0.00000  Uiso   1.00
C3     C     0.91790   0.76397   0.79789   0.00000  Uiso   1.00
C4     C     0.89436   0.83270   0.81271   0.00000  Uiso   1.00
C5     C     0.88856   0.94734   0.84863   0.00000  Uiso   1.00
C6     C     0.79690   0.60233   0.76561   0.00000  Uiso   1.00
C7     C     0.80998   0.54188   0.80174   0.00000  Uiso   1.00
C8     C     0.73708   0.50905   0.81832   0.00000  Uiso   1.00
C9     C     0.64027   0.43636   0.85746   0.00000  Uiso   1.00
C10    C     0.84503   0.64794   0.67377   0.00000  Uiso   1.00
C11    C     0.89858   0.62582   0.63268   0.00000  Uiso   1.00
C12    C     0.86619   0.63136   0.57193   0.00000  Uiso   1.00
C13    C     0.84411   0.62948   0.46848   0.00000  Uiso   1.00
C14    C     0.71464   0.69568   0.70744   0.00000  Uiso   1.00
C15    C     0.77256   0.74967   0.74461   0.00000  Uiso   1.00
C16    C     0.74892   0.81836   0.75938   0.00000  Uiso   1.00
C17    C     0.81125   0.85945   0.79377   0.00000  Uiso   1.00
C18    C     0.71394   0.62903   0.74671   0.00000  Uiso   1.00
C19    C     0.64100   0.59627   0.76323   0.00000  Uiso   1.00
C20    C     0.65397   0.53579   0.79938   0.00000  Uiso   1.00
C21    C     0.76207   0.67464   0.65486   0.00000  Uiso   1.00
C22    C     0.72959   0.68021   0.59417   0.00000  Uiso   1.00
C23    C     0.78308   0.65811   0.55299   0.00000  Uiso   1.00
H24    H     0.93196   0.62573   0.75697   0.00000  Uiso   1.00
H25    H     0.98209   0.74329   0.81252   0.00000  Uiso   1.00
H26    H     0.87419   0.52123   0.81636   0.00000  Uiso   1.00
H27    H     0.96277   0.60516   0.64733   0.00000  Uiso   1.00
H28    H     0.00108   0.88539   0.86578   0.00000  Uiso   1.00
H29    H     0.77356   0.41716   0.87387   0.00000  Uiso   1.00
H30    H     0.96035   0.59413   0.51743   0.00000  Uiso   1.00
H31    H     0.65004   0.71646   0.69272   0.00000  Uiso   1.00
H32    H     0.68471   0.83900   0.74474   0.00000  Uiso   1.00
H33    H     0.57681   0.61694   0.74859   0.00000  Uiso   1.00
H34    H     0.66539   0.70087   0.57956   0.00000  Uiso   1.00
H35    H     0.75971   0.96307   0.81078   0.00000  Uiso   1.00
H36    H     0.53220   0.49484   0.81886   0.00000  Uiso   1.00
H37    H     0.71899   0.67182   0.46243   0.00000  Uiso   1.00
O38    O     0.90828   0.00320   0.87368   0.00000  Uiso   1.00
O39    O     0.60979   0.38889   0.88428   0.00000  Uiso   1.00
O40    O     0.85485   0.62108   0.41664   0.00000  Uiso   1.00
N41    N     0.93952   0.88686   0.84569   0.00000  Uiso   1.00
N42    N     0.72681   0.44910   0.85326   0.00000  Uiso   1.00
N43    N     0.90143   0.61453   0.52002   0.00000  Uiso   1.00
N44    N     0.80965   0.92866   0.81609   0.00000  Uiso   1.00
N45    N     0.59693   0.49090   0.82366   0.00000  Uiso   1.00
N46    N     0.77156   0.65634   0.49042   0.00000  Uiso   1.00
C47    C     0.36737   0.14652   0.74225   0.00000  Uiso   1.00
C48    C     0.35552   0.22298   0.76351   0.00000  Uiso   1.00
C49    C     0.41790   0.26397   0.79789   0.00000  Uiso   1.00
C50    C     0.39436   0.33270   0.81271   0.00000  Uiso   1.00
C51    C     0.38856   0.44734   0.84863   0.00000  Uiso   1.00
C52    C     0.29690   0.10233   0.76561   0.00000  Uiso   1.00
C53    C     0.30998   0.04188   0.80174   0.00000  Uiso   1.00
C54    C     0.23708   0.00905   0.81832   0.00000  Uiso   1.00
C55    C     0.14027   0.93636   0.85746   0.00000  Uiso   1.00
C56    C     0.34503   0.14794   0.67377   0.00000  Uiso   1.00
C57    C     0.39858   0.12582   0.63268   0.00000  Uiso   1.00
C58    C     0.36619   0.13136   0.57193   0.00000  Uiso   1.00
C59    C     0.34411   0.12948   0.46848   0.00000  Uiso   1.00
C60    C     0.21464   0.19568   0.70744   0.00000  Uiso   1.00
C61    C     0.27256   0.24967   0.74461   0.00000  Uiso   1.00
C62    C     0.24892   0.31836   0.75938   0.00000  Uiso   1.00
C63    C     0.31125   0.35945   0.79377   0.00000  Uiso   1.00
C64    C     0.21394   0.12903   0.74671   0.00000  Uiso   1.00
C65    C     0.14100   0.09627   0.76323   0.00000  Uiso   1.00
C66    C     0.15397   0.03579   0.79938   0.00000  Uiso   1.00
C67    C     0.26207   0.17464   0.65486   0.00000  Uiso   1.00
C68    C     0.22959   0.18021   0.59417   0.00000  Uiso   1.00
C69    C     0.28308   0.15811   0.55299   0.00000  Uiso   1.00
H70    H     0.43196   0.12573   0.75697   0.00000  Uiso   1.00
H71    H     0.48209   0.24329   0.81252   0.00000  Uiso   1.00
H72    H     0.37419   0.02123   0.81636   0.00000  Uiso   1.00
H73    H     0.46277   0.10516   0.64733   0.00000  Uiso   1.00
H74    H     0.50108   0.38539   0.86578   0.00000  Uiso   1.00
H75    H     0.27356   0.91716   0.87387   0.00000  Uiso   1.00
H76    H     0.46035   0.09413   0.51743   0.00000  Uiso   1.00
H77    H     0.15004   0.21646   0.69272   0.00000  Uiso   1.00
H78    H     0.18471   0.33900   0.74474   0.00000  Uiso   1.00
H79    H     0.07681   0.11694   0.74859   0.00000  Uiso   1.00
H80    H     0.16539   0.20087   0.57956   0.00000  Uiso   1.00
H81    H     0.25971   0.46307   0.81078   0.00000  Uiso   1.00
H82    H     0.03220   0.99484   0.81886   0.00000  Uiso   1.00
H83    H     0.21899   0.17182   0.46243   0.00000  Uiso   1.00
O84    O     0.40828   0.50320   0.87368   0.00000  Uiso   1.00
O85    O     0.10979   0.88889   0.88428   0.00000  Uiso   1.00
O86    O     0.35485   0.12108   0.41664   0.00000  Uiso   1.00
N87    N     0.43952   0.38686   0.84569   0.00000  Uiso   1.00
N88    N     0.22681   0.94910   0.85326   0.00000  Uiso   1.00
N89    N     0.40143   0.11453   0.52002   0.00000  Uiso   1.00
N90    N     0.30965   0.42866   0.81609   0.00000  Uiso   1.00
N91    N     0.09693   0.99090   0.82366   0.00000  Uiso   1.00
N92    N     0.27156   0.15634   0.49042   0.00000  Uiso   1.00
C93    C     0.13263   0.64652   0.75775   0.00000  Uiso   1.00
C94    C     0.14448   0.72298   0.73649   0.00000  Uiso   1.00
C95    C     0.08210   0.76397   0.70211   0.00000  Uiso   1.00
C96    C     0.10564   0.83270   0.68729   0.00000  Uiso   1.00
C97    C     0.11144   0.94734   0.65137   0.00000  Uiso   1.00
C98    C     0.20310   0.60233   0.73439   0.00000  Uiso   1.00
C99    C     0.19002   0.54188   0.69826   0.00000  Uiso   1.00
C100   C     0.26292   0.50905   0.68168   0.00000  Uiso   1.00
C101   C     0.35973   0.43636   0.64254   0.00000  Uiso   1.00
C102   C     0.15497   0.64794   0.82623   0.00000  Uiso   1.00
C103   C     0.10142   0.62582   0.86732   0.00000  Uiso   1.00
C104   C     0.13381   0.63136   0.92807   0.00000  Uiso   1.00
C105   C     0.15589   0.62948   0.03152   0.00000  Uiso   1.00
C106   C     0.28536   0.69568   0.79256   0.00000  Uiso   1.00
C107   C     0.22744   0.74967   0.75539   0.00000  Uiso   1.00
C108   C     0.25108   0.81836   0.74062   0.00000  Uiso   1.00
C109   C     0.18875   0.85945   0.70623   0.00000  Uiso   1.00
C110   C     0.28606   0.62903   0.75329   0.00000  Uiso   1.00
C111   C     0.35900   0.59627   0.73677   0.00000  Uiso   1.00
C112   C     0.34603   0.53579   0.70062   0.00000  Uiso   1.00
C113   C     0.23793   0.67464   0.84514   0.00000  Uiso   1.00
C114   C     0.27041   0.68021   0.90583   0.00000  Uiso   1.00
C115   C     0.21692   0.65811   0.94701   0.00000  Uiso   1.00
H116   H     0.06804   0.62573   0.74303   0.00000  Uiso   1.00
H117   H     0.01791   0.74329   0.68748   0.00000  Uiso   1.00
H118   H     0.12581   0.52123   0.68364   0.00000  Uiso   1.00
H119   H     0.03723   0.60516   0.85267   0.00000  Uiso   1.00
H120   H     0.99892   0.88539   0.63422   0.00000  Uiso   1.00
H121   H     0.22644   0.41716   0.62613   0.00000  Uiso   1.00
H122   H     0.03965   0.59413   0.98257   0.00000  Uiso   1.00
H123   H     0.34996   0.71646   0.80728   0.00000  Uiso   1.00
H124   H     0.31529   0.83900   0.75526   0.00000  Uiso   1.00
H125   H     0.42319   0.61694   0.75141   0.00000  Uiso   1.00
H126   H     0.33461   0.70087   0.92044   0.00000  Uiso   1.00
H127   H     0.24029   0.96307   0.68922   0.00000  Uiso   1.00
H128   H     0.46780   0.49484   0.68114   0.00000  Uiso   1.00
H129   H     0.28101   0.67182   0.03757   0.00000  Uiso   1.00
O130   O     0.09172   0.00320   0.62632   0.00000  Uiso   1.00
O131   O     0.39021   0.38889   0.61572   0.00000  Uiso   1.00
O132   O     0.14515   0.62108   0.08336   0.00000  Uiso   1.00
N133   N     0.06048   0.88686   0.65431   0.00000  Uiso   1.00
N134   N     0.27319   0.44910   0.64674   0.00000  Uiso   1.00
N135   N     0.09857   0.61453   0.97998   0.00000  Uiso   1.00
N136   N     0.19035   0.92866   0.68391   0.00000  Uiso   1.00
N137   N     0.40307   0.49090   0.67634   0.00000  Uiso   1.00
N138   N     0.22844   0.65634   0.00958   0.00000  Uiso   1.00
C139   C     0.63263   0.14652   0.75775   0.00000  Uiso   1.00
C140   C     0.64448   0.22298   0.73649   0.00000  Uiso   1.00
C141   C     0.58210   0.26397   0.70211   0.00000  Uiso   1.00
C142   C     0.60564   0.33270   0.68729   0.00000  Uiso   1.00
C143   C     0.61144   0.44734   0.65137   0.00000  Uiso   1.00
C144   C     0.70310   0.10233   0.73439   0.00000  Uiso   1.00
C145   C     0.69002   0.04188   0.69826   0.00000  Uiso   1.00
C146   C     0.76292   0.00905   0.68168   0.00000  Uiso   1.00
C147   C     0.85973   0.93636   0.64254   0.00000  Uiso   1.00
C148   C     0.65497   0.14794   0.82623   0.00000  Uiso   1.00
C149   C     0.60142   0.12582   0.86732   0.00000  Uiso   1.00
C150   C     0.63381   0.13136   0.92807   0.00000  Uiso   1.00
C151   C     0.65589   0.12948   0.03152   0.00000  Uiso   1.00
C152   C     0.78536   0.19568   0.79256   0.00000  Uiso   1.00
C153   C     0.72744   0.24967   0.75539   0.00000  Uiso   1.00
C154   C     0.75108   0.31836   0.74062   0.00000  Uiso   1.00
C155   C     0.68875   0.35945   0.70623   0.00000  Uiso   1.00
C156   C     0.78606   0.12903   0.75329   0.00000  Uiso   1.00
C157   C     0.85900   0.09627   0.73677   0.00000  Uiso   1.00
C158   C     0.84603   0.03579   0.70062   0.00000  Uiso   1.00
C159   C     0.73793   0.17464   0.84514   0.00000  Uiso   1.00
C160   C     0.77041   0.18021   0.90583   0.00000  Uiso   1.00
C161   C     0.71692   0.15811   0.94701   0.00000  Uiso   1.00
H162   H     0.56804   0.12573   0.74303   0.00000  Uiso   1.00
H163   H     0.51791   0.24329   0.68748   0.00000  Uiso   1.00
H164   H     0.62581   0.02123   0.68364   0.00000  Uiso   1.00
H165   H     0.53723   0.10516   0.85267   0.00000  Uiso   1.00
H166   H     0.49892   0.38539   0.63422   0.00000  Uiso   1.00
H167   H     0.72644   0.91716   0.62613   0.00000  Uiso   1.00
H168   H     0.53965   0.09413   0.98257   0.00000  Uiso   1.00
H169   H     0.84996   0.21646   0.80728   0.00000  Uiso   1.00
H170   H     0.81529   0.33900   0.75526   0.00000  Uiso   1.00
H171   H     0.92319   0.11694   0.75141   0.00000  Uiso   1.00
H172   H     0.83461   0.20087   0.92044   0.00000  Uiso   1.00
H173   H     0.74029   0.46307   0.68922   0.00000  Uiso   1.00
H174   H     0.96780   0.99484   0.68114   0.00000  Uiso   1.00
H175   H     0.78101   0.17182   0.03757   0.00000  Uiso   1.00
O176   O     0.59172   0.50320   0.62632   0.00000  Uiso   1.00
O177   O     0.89021   0.88889   0.61572   0.00000  Uiso   1.00
O178   O     0.64515   0.12108   0.08336   0.00000  Uiso   1.00
N179   N     0.56048   0.38686   0.65431   0.00000  Uiso   1.00
N180   N     0.77319   0.94910   0.64674   0.00000  Uiso   1.00
N181   N     0.59857   0.11453   0.97998   0.00000  Uiso   1.00
N182   N     0.69035   0.42866   0.68391   0.00000  Uiso   1.00
N183   N     0.90307   0.99090   0.67634   0.00000  Uiso   1.00
N184   N     0.72844   0.15634   0.00958   0.00000  Uiso   1.00
C185   C     0.13263   0.35348   0.25775   0.00000  Uiso   1.00
C186   C     0.14448   0.27702   0.23649   0.00000  Uiso   1.00
C187   C     0.08210   0.23603   0.20211   0.00000  Uiso   1.00
C188   C     0.10564   0.16730   0.18729   0.00000  Uiso   1.00
C189   C     0.11144   0.05266   0.15137   0.00000  Uiso   1.00
C190   C     0.20310   0.39767   0.23439   0.00000  Uiso   1.00
C191   C     0.19002   0.45812   0.19826   0.00000  Uiso   1.00
C192   C     0.26292   0.49095   0.18168   0.00000  Uiso   1.00
C193   C     0.35973   0.56364   0.14254   0.00000  Uiso   1.00
C194   C     0.15497   0.35206   0.32623   0.00000  Uiso   1.00
C195   C     0.10142   0.37418   0.36732   0.00000  Uiso   1.00
C196   C     0.13381   0.36864   0.42807   0.00000  Uiso   1.00
C197   C     0.15589   0.37052   0.53152   0.00000  Uiso   1.00
C198   C     0.28536   0.30432   0.29256   0.00000  Uiso   1.00
C199   C     0.22744   0.25033   0.25539   0.00000  Uiso   1.00
C200   C     0.25108   0.18164   0.24062   0.00000  Uiso   1.00
C201   C     0.18875   0.14055   0.20623   0.00000  Uiso   1.00
C202   C     0.28606   0.37097   0.25329   0.00000  Uiso   1.00
C203   C     0.35900   0.40373   0.23677   0.00000  Uiso   1.00
C204   C     0.34603   0.46421   0.20062   0.00000  Uiso   1.00
C205   C     0.23793   0.32536   0.34514   0.00000  Uiso   1.00
C206   C     0.27041   0.31979   0.40583   0.00000  Uiso   1.00
C207   C     0.21692   0.34189   0.44701   0.00000  Uiso   1.00
H208   H     0.06804   0.37427   0.24303   0.00000  Uiso   1.00
H209   H     0.01791   0.25671   0.18748   0.00000  Uiso   1.00
H210   H     0.12581   0.47877   0.18364   0.00000  Uiso   1.00
H211   H     0.03723   0.39484   0.35267   0.00000  Uiso   1.00
H212   H     0.99892   0.11461   0.13422   0.00000  Uiso   1.00
H213   H     0.22644   0.58284   0.12613   0.00000  Uiso   1.00
H214   H     0.03965   0.40587   0.48257   0.00000  Uiso   1.00
H215   H     0.34996   0.28354   0.30728   0.00000  Uiso   1.00
H216   H     0.31529   0.16100   0.25526   0.00000  Uiso   1.00
H217   H     0.42319   0.38306   0.25141   0.00000  Uiso   1.00
H218   H     0.33461   0.29913   0.42044   0.00000  Uiso   1.00
H219   H     0.24029   0.03693   0.18922   0.00000  Uiso   1.00
H220   H     0.46780   0.50516   0.18114   0.00000  Uiso   1.00
H221   H     0.28101   0.32818   0.53757   0.00000  Uiso   1.00
O222   O     0.09172   0.99680   0.12632   0.00000  Uiso   1.00
O223   O     0.39021   0.61111   0.11572   0.00000  Uiso   1.00
O224   O     0.14515   0.37892   0.58336   0.00000  Uiso   1.00
N225   N     0.06048   0.11314   0.15431   0.00000  Uiso   1.00
N226   N     0.27319   0.55090   0.14674   0.00000  Uiso   1.00
N227   N     0.09857   0.38547   0.47998   0.00000  Uiso   1.00
N228   N     0.19035   0.07134   0.18391   0.00000  Uiso   1.00
N229   N     0.40307   0.50910   0.17634   0.00000  Uiso   1.00
N230   N     0.22844   0.34366   0.50958   0.00000  Uiso   1.00
C231   C     0.63263   0.85348   0.25775   0.00000  Uiso   1.00
C232   C     0.64448   0.77702   0.23649   0.00000  Uiso   1.00
C233   C     0.58210   0.73603   0.20211   0.00000  Uiso   1.00
C234   C     0.60564   0.66730   0.18729   0.00000  Uiso   1.00
C235   C     0.61144   0.55266   0.15137   0.00000  Uiso   1.00
C236   C     0.70310   0.89767   0.23439   0.00000  Uiso   1.00
C237   C     0.69002   0.95812   0.19826   0.00000  Uiso   1.00
C238   C     0.76292   0.99095   0.18168   0.00000  Uiso   1.00
C239   C     0.85973   0.06364   0.14254   0.00000  Uiso   1.00
C240   C     0.65497   0.85206   0.32623   0.00000  Uiso   1.00
C241   C     0.60142   0.87418   0.36732   0.00000  Uiso   1.00
C242   C     0.63381   0.86864   0.42807   0.00000  Uiso   1.00
C243   C     0.65589   0.87052   0.53152   0.00000  Uiso   1.00
C244   C     0.78536   0.80432   0.29256   0.00000  Uiso   1.00
C245   C     0.72744   0.75033   0.25539   0.00000  Uiso   1.00
C246   C     0.75108   0.68164   0.24062   0.00000  Uiso   1.00
C247   C     0.68875   0.64055   0.20623   0.00000  Uiso   1.00
C248   C     0.78606   0.87097   0.25329   0.00000  Uiso   1.00
C249   C     0.85900   0.90373   0.23677   0.00000  Uiso   1.00
C250   C     0.84603   0.96421   0.20062   0.00000  Uiso   1.00
C251   C     0.73793   0.82536   0.34514   0.00000  Uiso   1.00
C252   C     0.77041   0.81979   0.40583   0.00000  Uiso   1.00
C253   C     0.71692   0.84189   0.44701   0.00000  Uiso   1.00
H254   H     0.56804   0.87427   0.24303   0.00000  Uiso   1.00
H255   H     0.51791   0.75671   0.18748   0.00000  Uiso   1.00
H256   H     0.62581   0.97877   0.18364   0.00000  Uiso   1.00
H257   H     0.53723   0.89484   0.35267   0.00000  Uiso   1.00
H258   H     0.49892   0.61461   0.13422   0.00000  Uiso   1.00
H259   H     0.72644   0.08284   0.12613   0.00000  Uiso   1.00
H260   H     0.53965   0.90587   0.48257   0.00000  Uiso   1.00
H261   H     0.84996   0.78354   0.30728   0.00000  Uiso   1.00
H262   H     0.81529   0.66100   0.25526   0.00000  Uiso   1.00
H263   H     0.92319   0.88306   0.25141   0.00000  Uiso   1.00
H264   H     0.83461   0.79913   0.42044   0.00000  Uiso   1.00
H265   H     0.74029   0.53693   0.18922   0.00000  Uiso   1.00
H266   H     0.96780   0.00516   0.18114   0.00000  Uiso   1.00
H267   H     0.78101   0.82818   0.53757   0.00000  Uiso   1.00
O268   O     0.59172   0.49680   0.12632   0.00000  Uiso   1.00
O269   O     0.89021   0.11111   0.11572   0.00000  Uiso   1.00
O270   O     0.64515   0.87892   0.58336   0.00000  Uiso   1.00
N271   N     0.56048   0.61314   0.15431   0.00000  Uiso   1.00
N272   N     0.77319   0.05090   0.14674   0.00000  Uiso   1.00
N273   N     0.59857   0.88547   0.47998   0.00000  Uiso   1.00
N274   N     0.69035   0.57134   0.18391   0.00000  Uiso   1.00
N275   N     0.90307   0.00910   0.17634   0.00000  Uiso   1.00
N276   N     0.72844   0.84366   0.50958   0.00000  Uiso   1.00
C277   C     0.86737   0.35348   0.24225   0.00000  Uiso   1.00
C278   C     0.85552   0.27702   0.26351   0.00000  Uiso   1.00
C279   C     0.91790   0.23603   0.29789   0.00000  Uiso   1.00
C280   C     0.89436   0.16730   0.31271   0.00000  Uiso   1.00
C281   C     0.88856   0.05266   0.34863   0.00000  Uiso   1.00
C282   C     0.79690   0.39767   0.26561   0.00000  Uiso   1.00
C283   C     0.80998   0.45812   0.30174   0.00000  Uiso   1.00
C284   C     0.73708   0.49095   0.31832   0.00000  Uiso   1.00
C285   C     0.64027   0.56364   0.35746   0.00000  Uiso   1.00
C286   C     0.84503   0.35206   0.17377   0.00000  Uiso   1.00
C287   C     0.89858   0.37418   0.13268   0.00000  Uiso   1.00
C288   C     0.86619   0.36864   0.07193   0.00000  Uiso   1.00
C289   C     0.84411   0.37052   0.96848   0.00000  Uiso   1.00
C290   C     0.71464   0.30432   0.20744   0.00000  Uiso   1.00
C291   C     0.77256   0.25033   0.24461   0.00000  Uiso   1.00
C292   C     0.74892   0.18164   0.25938   0.00000  Uiso   1.00
C293   C     0.81125   0.14055   0.29377   0.00000  Uiso   1.00
C294   C     0.71394   0.37097   0.24671   0.00000  Uiso   1.00
C295   C     0.64100   0.40373   0.26323   0.00000  Uiso   1.00
C296   C     0.65397   0.46421   0.29938   0.00000  Uiso   1.00
C297   C     0.76207   0.32536   0.15486   0.00000  Uiso   1.00
C298   C     0.72959   0.31979   0.09417   0.00000  Uiso   1.00
C299   C     0.78308   0.34189   0.05299   0.00000  Uiso   1.00
H300   H     0.93196   0.37427   0.25697   0.00000  Uiso   1.00
H301   H     0.98209   0.25671   0.31252   0.00000  Uiso   1.00
H302   H     0.87419   0.47877   0.31636   0.00000  Uiso   1.00
H303   H     0.96277   0.39484   0.14733   0.00000  Uiso   1.00
H304   H     0.00108   0.11461   0.36578   0.00000  Uiso   1.00
H305   H     0.77356   0.58284   0.37387   0.00000  Uiso   1.00
H306   H     0.96035   0.40587   0.01743   0.00000  Uiso   1.00
H307   H     0.65004   0.28354   0.19272   0.00000  Uiso   1.00
H308   H     0.68471   0.16100   0.24474   0.00000  Uiso   1.00
H309   H     0.57681   0.38306   0.24859   0.00000  Uiso   1.00
H310   H     0.66539   0.29913   0.07956   0.00000  Uiso   1.00
H311   H     0.75971   0.03693   0.31078   0.00000  Uiso   1.00
H312   H     0.53220   0.50516   0.31886   0.00000  Uiso   1.00
H313   H     0.71899   0.32818   0.96243   0.00000  Uiso   1.00
O314   O     0.90828   0.99680   0.37368   0.00000  Uiso   1.00
O315   O     0.60979   0.61111   0.38428   0.00000  Uiso   1.00
O316   O     0.85485   0.37892   0.91664   0.00000  Uiso   1.00
N317   N     0.93952   0.11314   0.34569   0.00000  Uiso   1.00
N318   N     0.72681   0.55090   0.35326   0.00000  Uiso   1.00
N319   N     0.90143   0.38547   0.02002   0.00000  Uiso   1.00
N320   N     0.80965   0.07134   0.31609   0.00000  Uiso   1.00
N321   N     0.59693   0.50910   0.32366   0.00000  Uiso   1.00
N322   N     0.77156   0.34366   0.99042   0.00000  Uiso   1.00
C323   C     0.36737   0.85348   0.24225   0.00000  Uiso   1.00
C324   C     0.35552   0.77702   0.26351   0.00000  Uiso   1.00
C325   C     0.41790   0.73603   0.29789   0.00000  Uiso   1.00
C326   C     0.39436   0.66730   0.31271   0.00000  Uiso   1.00
C327   C     0.38856   0.55266   0.34863   0.00000  Uiso   1.00
C328   C     0.29690   0.89767   0.26561   0.00000  Uiso   1.00
C329   C     0.30998   0.95812   0.30174   0.00000  Uiso   1.00
C330   C     0.23708   0.99095   0.31832   0.00000  Uiso   1.00
C331   C     0.14027   0.06364   0.35746   0.00000  Uiso   1.00
C332   C     0.34503   0.85206   0.17377   0.00000  Uiso   1.00
C333   C     0.39858   0.87418   0.13268   0.00000  Uiso   1.00
C334   C     0.36619   0.86864   0.07193   0.00000  Uiso   1.00
C335   C     0.34411   0.87052   0.96848   0.00000  Uiso   1.00
C336   C     0.21464   0.80432   0.20744   0.00000  Uiso   1.00
C337   C     0.27256   0.75033   0.24461   0.00000  Uiso   1.00
C338   C     0.24892   0.68164   0.25938   0.00000  Uiso   1.00
C339   C     0.31125   0.64055   0.29377   0.00000  Uiso   1.00
C340   C     0.21394   0.87097   0.24671   0.00000  Uiso   1.00
C341   C     0.14100   0.90373   0.26323   0.00000  Uiso   1.00
C342   C     0.15397   0.96421   0.29938   0.00000  Uiso   1.00
C343   C     0.26207   0.82536   0.15486   0.00000  Uiso   1.00
C344   C     0.22959   0.81979   0.09417   0.00000  Uiso   1.00
C345   C     0.28308   0.84189   0.05299   0.00000  Uiso   1.00
H346   H     0.43196   0.87427   0.25697   0.00000  Uiso   1.00
H347   H     0.48209   0.75671   0.31252   0.00000  Uiso   1.00
H348   H     0.37419   0.97877   0.31636   0.00000  Uiso   1.00
H349   H     0.46277   0.89484   0.14733   0.00000  Uiso   1.00
H350   H     0.50108   0.61461   0.36578   0.00000  Uiso   1.00
H351   H     0.27356   0.08284   0.37387   0.00000  Uiso   1.00
H352   H     0.46035   0.90587   0.01743   0.00000  Uiso   1.00
H353   H     0.15004   0.78354   0.19272   0.00000  Uiso   1.00
H354   H     0.18471   0.66100   0.24474   0.00000  Uiso   1.00
H355   H     0.07681   0.88306   0.24859   0.00000  Uiso   1.00
H356   H     0.16539   0.79913   0.07956   0.00000  Uiso   1.00
H357   H     0.25971   0.53693   0.31078   0.00000  Uiso   1.00
H358   H     0.03220   0.00516   0.31886   0.00000  Uiso   1.00
H359   H     0.21899   0.82818   0.96243   0.00000  Uiso   1.00
O360   O     0.40828   0.49680   0.37368   0.00000  Uiso   1.00
O361   O     0.10979   0.11111   0.38428   0.00000  Uiso   1.00
O362   O     0.35485   0.87892   0.91664   0.00000  Uiso   1.00
N363   N     0.43952   0.61314   0.34569   0.00000  Uiso   1.00
N364   N     0.22681   0.05090   0.35326   0.00000  Uiso   1.00
N365   N     0.40143   0.88547   0.02002   0.00000  Uiso   1.00
N366   N     0.30965   0.57134   0.31609   0.00000  Uiso   1.00
N367   N     0.09693   0.00910   0.32366   0.00000  Uiso   1.00
N368   N     0.27156   0.84366   0.99042   0.00000  Uiso   1.00
