data_job_04018
_audit_creation_date              2018-12-19
_audit_creation_method            'Materials Studio'
_symmetry_space_group_name_H-M    'P1'
_symmetry_Int_Tables_number       1
_symmetry_cell_setting            triclinic
loop_
_symmetry_equiv_pos_as_xyz
  x,y,z
_cell_length_a                    16.9213
_cell_length_b                    17.0059
_cell_length_c                    24.3843
_cell_angle_alpha                 90.0000
_cell_angle_beta                  90.0000
_cell_angle_gamma                 90.0000
loop_
_atom_site_label
_atom_site_type_symbol
_atom_site_fract_x
_atom_site_fract_y
_atom_site_fract_z
_atom_site_U_iso_or_equiv
_atom_site_adp_type
_atom_site_occupancy
C1     C     0.46761   0.65199   0.36863   0.00000  Uiso   1.00
C2     C     0.53572   0.59818   0.38502   0.00000  Uiso   1.00
C3     C     0.52932   0.51913   0.39841   0.00000  Uiso   1.00
C4     C     0.59860   0.48017   0.41229   0.00000  Uiso   1.00
C5     C     0.69325   0.39073   0.43769   0.00000  Uiso   1.00
C6     C     0.46960   0.72084   0.40868   0.00000  Uiso   1.00
C7     C     0.40761   0.74492   0.44194   0.00000  Uiso   1.00
C8     C     0.42122   0.80922   0.47573   0.00000  Uiso   1.00
C9     C     0.41320   0.91024   0.53783   0.00000  Uiso   1.00
C10    C     0.48961   0.68589   0.31279   0.00000  Uiso   1.00
C11    C     0.44442   0.68059   0.26543   0.00000  Uiso   1.00
C12    C     0.47488   0.71548   0.21849   0.00000  Uiso   1.00
C13    C     0.49792   0.76223   0.13170   0.00000  Uiso   1.00
C14    C     0.60201   0.72340   0.36948   0.00000  Uiso   1.00
C15    C     0.60872   0.63697   0.38548   0.00000  Uiso   1.00
C16    C     0.67803   0.59812   0.39934   0.00000  Uiso   1.00
C17    C     0.67173   0.51902   0.41275   0.00000  Uiso   1.00
C18    C     0.54260   0.75963   0.40914   0.00000  Uiso   1.00
C19    C     0.55631   0.82391   0.44288   0.00000  Uiso   1.00
C20    C     0.49436   0.84808   0.47619   0.00000  Uiso   1.00
C21    C     0.56261   0.72467   0.31324   0.00000  Uiso   1.00
C22    C     0.59314   0.75958   0.26637   0.00000  Uiso   1.00
C23    C     0.54801   0.75434   0.21895   0.00000  Uiso   1.00
H24    H     0.41077   0.62180   0.36828   0.00000  Uiso   1.00
H25    H     0.47281   0.48913   0.39805   0.00000  Uiso   1.00
H26    H     0.35111   0.71490   0.44158   0.00000  Uiso   1.00
H27    H     0.38793   0.65057   0.26509   0.00000  Uiso   1.00
H28    H     0.57379   0.35916   0.43129   0.00000  Uiso   1.00
H29    H     0.31718   0.83520   0.52304   0.00000  Uiso   1.00
H30    H     0.39481   0.69957   0.15089   0.00000  Uiso   1.00
H31    H     0.65885   0.75359   0.36984   0.00000  Uiso   1.00
H32    H     0.73452   0.62815   0.39970   0.00000  Uiso   1.00
H33    H     0.61281   0.85391   0.44322   0.00000  Uiso   1.00
H34    H     0.64963   0.78959   0.26674   0.00000  Uiso   1.00
H35    H     0.78620   0.47199   0.43262   0.00000  Uiso   1.00
H36    H     0.52958   0.94804   0.52438   0.00000  Uiso   1.00
H37    H     0.60722   0.81240   0.15223   0.00000  Uiso   1.00
O38    O     0.72529   0.33068   0.45159   0.00000  Uiso   1.00
O39    O     0.38861   0.95525   0.57196   0.00000  Uiso   1.00
O40    O     0.49047   0.77729   0.08371   0.00000  Uiso   1.00
N41    N     0.61340   0.40292   0.42749   0.00000  Uiso   1.00
N42    N     0.37348   0.84799   0.51329   0.00000  Uiso   1.00
N43    N     0.44605   0.72120   0.16536   0.00000  Uiso   1.00
N44    N     0.72769   0.46364   0.42821   0.00000  Uiso   1.00
N45    N     0.48778   0.90871   0.51401   0.00000  Uiso   1.00
N46    N     0.56035   0.78192   0.16608   0.00000  Uiso   1.00
C47    C     0.03239   0.84801   0.36863   0.00000  Uiso   1.00
C48    C     0.96428   0.90182   0.38502   0.00000  Uiso   1.00
C49    C     0.97068   0.98087   0.39841   0.00000  Uiso   1.00
C50    C     0.90140   0.01983   0.41229   0.00000  Uiso   1.00
C51    C     0.80675   0.10927   0.43769   0.00000  Uiso   1.00
C52    C     0.03040   0.77916   0.40868   0.00000  Uiso   1.00
C53    C     0.09239   0.75508   0.44194   0.00000  Uiso   1.00
C54    C     0.07878   0.69078   0.47573   0.00000  Uiso   1.00
C55    C     0.08680   0.58976   0.53783   0.00000  Uiso   1.00
C56    C     0.01039   0.81411   0.31279   0.00000  Uiso   1.00
C57    C     0.05558   0.81941   0.26543   0.00000  Uiso   1.00
C58    C     0.02512   0.78452   0.21849   0.00000  Uiso   1.00
C59    C     0.00208   0.73777   0.13170   0.00000  Uiso   1.00
C60    C     0.89799   0.77660   0.36948   0.00000  Uiso   1.00
C61    C     0.89128   0.86303   0.38548   0.00000  Uiso   1.00
C62    C     0.82197   0.90188   0.39934   0.00000  Uiso   1.00
C63    C     0.82827   0.98098   0.41275   0.00000  Uiso   1.00
C64    C     0.95740   0.74037   0.40914   0.00000  Uiso   1.00
C65    C     0.94369   0.67609   0.44288   0.00000  Uiso   1.00
C66    C     0.00564   0.65192   0.47619   0.00000  Uiso   1.00
C67    C     0.93739   0.77533   0.31324   0.00000  Uiso   1.00
C68    C     0.90686   0.74042   0.26637   0.00000  Uiso   1.00
C69    C     0.95199   0.74566   0.21895   0.00000  Uiso   1.00
H70    H     0.08923   0.87820   0.36828   0.00000  Uiso   1.00
H71    H     0.02719   0.01087   0.39805   0.00000  Uiso   1.00
H72    H     0.14889   0.78510   0.44158   0.00000  Uiso   1.00
H73    H     0.11207   0.84943   0.26509   0.00000  Uiso   1.00
H74    H     0.92621   0.14084   0.43129   0.00000  Uiso   1.00
H75    H     0.18282   0.66480   0.52304   0.00000  Uiso   1.00
H76    H     0.10519   0.80043   0.15089   0.00000  Uiso   1.00
H77    H     0.84115   0.74641   0.36984   0.00000  Uiso   1.00
H78    H     0.76548   0.87185   0.39970   0.00000  Uiso   1.00
H79    H     0.88719   0.64609   0.44322   0.00000  Uiso   1.00
H80    H     0.85037   0.71041   0.26674   0.00000  Uiso   1.00
H81    H     0.71380   0.02801   0.43262   0.00000  Uiso   1.00
H82    H     0.97042   0.55196   0.52438   0.00000  Uiso   1.00
H83    H     0.89278   0.68760   0.15223   0.00000  Uiso   1.00
O84    O     0.77471   0.16932   0.45159   0.00000  Uiso   1.00
O85    O     0.11139   0.54475   0.57196   0.00000  Uiso   1.00
O86    O     0.00953   0.72271   0.08371   0.00000  Uiso   1.00
N87    N     0.88660   0.09708   0.42749   0.00000  Uiso   1.00
N88    N     0.12652   0.65201   0.51329   0.00000  Uiso   1.00
N89    N     0.05395   0.77880   0.16536   0.00000  Uiso   1.00
N90    N     0.77231   0.03636   0.42821   0.00000  Uiso   1.00
N91    N     0.01222   0.59129   0.51401   0.00000  Uiso   1.00
N92    N     0.93965   0.71808   0.16608   0.00000  Uiso   1.00
C93    C     0.53239   0.15199   0.13137   0.00000  Uiso   1.00
C94    C     0.46428   0.09818   0.11498   0.00000  Uiso   1.00
C95    C     0.47068   0.01913   0.10159   0.00000  Uiso   1.00
C96    C     0.40140   0.98017   0.08771   0.00000  Uiso   1.00
C97    C     0.30675   0.89073   0.06231   0.00000  Uiso   1.00
C98    C     0.53040   0.22084   0.09132   0.00000  Uiso   1.00
C99    C     0.59239   0.24492   0.05806   0.00000  Uiso   1.00
C100   C     0.57878   0.30922   0.02427   0.00000  Uiso   1.00
C101   C     0.58680   0.41024   0.96217   0.00000  Uiso   1.00
C102   C     0.51039   0.18589   0.18721   0.00000  Uiso   1.00
C103   C     0.55558   0.18059   0.23457   0.00000  Uiso   1.00
C104   C     0.52512   0.21548   0.28151   0.00000  Uiso   1.00
C105   C     0.50208   0.26223   0.36830   0.00000  Uiso   1.00
C106   C     0.39799   0.22340   0.13052   0.00000  Uiso   1.00
C107   C     0.39128   0.13697   0.11452   0.00000  Uiso   1.00
C108   C     0.32197   0.09812   0.10066   0.00000  Uiso   1.00
C109   C     0.32827   0.01902   0.08725   0.00000  Uiso   1.00
C110   C     0.45740   0.25963   0.09086   0.00000  Uiso   1.00
C111   C     0.44369   0.32391   0.05712   0.00000  Uiso   1.00
C112   C     0.50564   0.34808   0.02381   0.00000  Uiso   1.00
C113   C     0.43739   0.22467   0.18676   0.00000  Uiso   1.00
C114   C     0.40686   0.25958   0.23363   0.00000  Uiso   1.00
C115   C     0.45199   0.25434   0.28105   0.00000  Uiso   1.00
H116   H     0.58923   0.12180   0.13172   0.00000  Uiso   1.00
H117   H     0.52719   0.98913   0.10195   0.00000  Uiso   1.00
H118   H     0.64889   0.21490   0.05842   0.00000  Uiso   1.00
H119   H     0.61207   0.15057   0.23491   0.00000  Uiso   1.00
H120   H     0.42621   0.85916   0.06871   0.00000  Uiso   1.00
H121   H     0.68282   0.33520   0.97696   0.00000  Uiso   1.00
H122   H     0.60519   0.19957   0.34911   0.00000  Uiso   1.00
H123   H     0.34115   0.25359   0.13016   0.00000  Uiso   1.00
H124   H     0.26548   0.12815   0.10030   0.00000  Uiso   1.00
H125   H     0.38719   0.35391   0.05678   0.00000  Uiso   1.00
H126   H     0.35037   0.28959   0.23326   0.00000  Uiso   1.00
H127   H     0.21380   0.97199   0.06738   0.00000  Uiso   1.00
H128   H     0.47042   0.44804   0.97562   0.00000  Uiso   1.00
H129   H     0.39278   0.31240   0.34777   0.00000  Uiso   1.00
O130   O     0.27471   0.83068   0.04841   0.00000  Uiso   1.00
O131   O     0.61139   0.45525   0.92804   0.00000  Uiso   1.00
O132   O     0.50953   0.27729   0.41629   0.00000  Uiso   1.00
N133   N     0.38660   0.90292   0.07251   0.00000  Uiso   1.00
N134   N     0.62652   0.34799   0.98671   0.00000  Uiso   1.00
N135   N     0.55395   0.22120   0.33464   0.00000  Uiso   1.00
N136   N     0.27231   0.96364   0.07179   0.00000  Uiso   1.00
N137   N     0.51222   0.40871   0.98599   0.00000  Uiso   1.00
N138   N     0.43965   0.28192   0.33392   0.00000  Uiso   1.00
C139   C     0.96761   0.34801   0.13137   0.00000  Uiso   1.00
C140   C     0.03572   0.40182   0.11498   0.00000  Uiso   1.00
C141   C     0.02932   0.48087   0.10159   0.00000  Uiso   1.00
C142   C     0.09860   0.51983   0.08771   0.00000  Uiso   1.00
C143   C     0.19325   0.60927   0.06231   0.00000  Uiso   1.00
C144   C     0.96960   0.27916   0.09132   0.00000  Uiso   1.00
C145   C     0.90761   0.25508   0.05806   0.00000  Uiso   1.00
C146   C     0.92122   0.19078   0.02427   0.00000  Uiso   1.00
C147   C     0.91320   0.08976   0.96217   0.00000  Uiso   1.00
C148   C     0.98961   0.31411   0.18721   0.00000  Uiso   1.00
C149   C     0.94442   0.31941   0.23457   0.00000  Uiso   1.00
C150   C     0.97488   0.28452   0.28151   0.00000  Uiso   1.00
C151   C     0.99792   0.23777   0.36830   0.00000  Uiso   1.00
C152   C     0.10201   0.27660   0.13052   0.00000  Uiso   1.00
C153   C     0.10872   0.36303   0.11452   0.00000  Uiso   1.00
C154   C     0.17803   0.40188   0.10066   0.00000  Uiso   1.00
C155   C     0.17173   0.48098   0.08725   0.00000  Uiso   1.00
C156   C     0.04260   0.24037   0.09086   0.00000  Uiso   1.00
C157   C     0.05631   0.17609   0.05712   0.00000  Uiso   1.00
C158   C     0.99436   0.15192   0.02381   0.00000  Uiso   1.00
C159   C     0.06261   0.27533   0.18676   0.00000  Uiso   1.00
C160   C     0.09314   0.24042   0.23363   0.00000  Uiso   1.00
C161   C     0.04801   0.24566   0.28105   0.00000  Uiso   1.00
H162   H     0.91077   0.37820   0.13172   0.00000  Uiso   1.00
H163   H     0.97281   0.51087   0.10195   0.00000  Uiso   1.00
H164   H     0.85111   0.28510   0.05842   0.00000  Uiso   1.00
H165   H     0.88793   0.34943   0.23491   0.00000  Uiso   1.00
H166   H     0.07379   0.64084   0.06871   0.00000  Uiso   1.00
H167   H     0.81718   0.16480   0.97696   0.00000  Uiso   1.00
H168   H     0.89481   0.30043   0.34911   0.00000  Uiso   1.00
H169   H     0.15885   0.24641   0.13016   0.00000  Uiso   1.00
H170   H     0.23452   0.37185   0.10030   0.00000  Uiso   1.00
H171   H     0.11281   0.14609   0.05678   0.00000  Uiso   1.00
H172   H     0.14963   0.21041   0.23326   0.00000  Uiso   1.00
H173   H     0.28620   0.52801   0.06738   0.00000  Uiso   1.00
H174   H     0.02958   0.05196   0.97562   0.00000  Uiso   1.00
H175   H     0.10722   0.18760   0.34777   0.00000  Uiso   1.00
O176   O     0.22529   0.66932   0.04841   0.00000  Uiso   1.00
O177   O     0.88861   0.04475   0.92804   0.00000  Uiso   1.00
O178   O     0.99047   0.22271   0.41629   0.00000  Uiso   1.00
N179   N     0.11340   0.59708   0.07251   0.00000  Uiso   1.00
N180   N     0.87348   0.15201   0.98671   0.00000  Uiso   1.00
N181   N     0.94605   0.27880   0.33464   0.00000  Uiso   1.00
N182   N     0.22769   0.53636   0.07179   0.00000  Uiso   1.00
N183   N     0.98778   0.09129   0.98599   0.00000  Uiso   1.00
N184   N     0.06035   0.21808   0.33392   0.00000  Uiso   1.00
C185   C     0.53239   0.34801   0.63137   0.00000  Uiso   1.00
C186   C     0.46428   0.40182   0.61498   0.00000  Uiso   1.00
C187   C     0.47068   0.48087   0.60159   0.00000  Uiso   1.00
C188   C     0.40140   0.51983   0.58771   0.00000  Uiso   1.00
C189   C     0.30675   0.60927   0.56231   0.00000  Uiso   1.00
C190   C     0.53040   0.27916   0.59132   0.00000  Uiso   1.00
C191   C     0.59239   0.25508   0.55806   0.00000  Uiso   1.00
C192   C     0.57878   0.19078   0.52427   0.00000  Uiso   1.00
C193   C     0.58680   0.08976   0.46217   0.00000  Uiso   1.00
C194   C     0.51039   0.31411   0.68721   0.00000  Uiso   1.00
C195   C     0.55558   0.31941   0.73457   0.00000  Uiso   1.00
C196   C     0.52512   0.28452   0.78151   0.00000  Uiso   1.00
C197   C     0.50208   0.23777   0.86830   0.00000  Uiso   1.00
C198   C     0.39799   0.27660   0.63052   0.00000  Uiso   1.00
C199   C     0.39128   0.36303   0.61452   0.00000  Uiso   1.00
C200   C     0.32197   0.40188   0.60066   0.00000  Uiso   1.00
C201   C     0.32827   0.48098   0.58725   0.00000  Uiso   1.00
C202   C     0.45740   0.24037   0.59086   0.00000  Uiso   1.00
C203   C     0.44369   0.17609   0.55712   0.00000  Uiso   1.00
C204   C     0.50564   0.15192   0.52381   0.00000  Uiso   1.00
C205   C     0.43739   0.27533   0.68676   0.00000  Uiso   1.00
C206   C     0.40686   0.24042   0.73363   0.00000  Uiso   1.00
C207   C     0.45199   0.24566   0.78105   0.00000  Uiso   1.00
H208   H     0.58923   0.37820   0.63172   0.00000  Uiso   1.00
H209   H     0.52719   0.51087   0.60195   0.00000  Uiso   1.00
H210   H     0.64889   0.28510   0.55842   0.00000  Uiso   1.00
H211   H     0.61207   0.34943   0.73491   0.00000  Uiso   1.00
H212   H     0.42621   0.64084   0.56871   0.00000  Uiso   1.00
H213   H     0.68282   0.16480   0.47696   0.00000  Uiso   1.00
H214   H     0.60519   0.30043   0.84911   0.00000  Uiso   1.00
H215   H     0.34115   0.24641   0.63016   0.00000  Uiso   1.00
H216   H     0.26548   0.37185   0.60030   0.00000  Uiso   1.00
H217   H     0.38719   0.14609   0.55678   0.00000  Uiso   1.00
H218   H     0.35037   0.21041   0.73326   0.00000  Uiso   1.00
H219   H     0.21380   0.52801   0.56738   0.00000  Uiso   1.00
H220   H     0.47042   0.05196   0.47562   0.00000  Uiso   1.00
H221   H     0.39278   0.18760   0.84777   0.00000  Uiso   1.00
O222   O     0.27471   0.66932   0.54841   0.00000  Uiso   1.00
O223   O     0.61139   0.04475   0.42804   0.00000  Uiso   1.00
O224   O     0.50953   0.22271   0.91629   0.00000  Uiso   1.00
N225   N     0.38660   0.59708   0.57251   0.00000  Uiso   1.00
N226   N     0.62652   0.15201   0.48671   0.00000  Uiso   1.00
N227   N     0.55395   0.27880   0.83464   0.00000  Uiso   1.00
N228   N     0.27231   0.53636   0.57179   0.00000  Uiso   1.00
N229   N     0.51222   0.09129   0.48599   0.00000  Uiso   1.00
N230   N     0.43965   0.21808   0.83392   0.00000  Uiso   1.00
C231   C     0.96761   0.15199   0.63137   0.00000  Uiso   1.00
C232   C     0.03572   0.09818   0.61498   0.00000  Uiso   1.00
C233   C     0.02932   0.01913   0.60159   0.00000  Uiso   1.00
C234   C     0.09860   0.98017   0.58771   0.00000  Uiso   1.00
C235   C     0.19325   0.89073   0.56231   0.00000  Uiso   1.00
C236   C     0.96960   0.22084   0.59132   0.00000  Uiso   1.00
C237   C     0.90761   0.24492   0.55806   0.00000  Uiso   1.00
C238   C     0.92122   0.30922   0.52427   0.00000  Uiso   1.00
C239   C     0.91320   0.41024   0.46217   0.00000  Uiso   1.00
C240   C     0.98961   0.18589   0.68721   0.00000  Uiso   1.00
C241   C     0.94442   0.18059   0.73457   0.00000  Uiso   1.00
C242   C     0.97488   0.21548   0.78151   0.00000  Uiso   1.00
C243   C     0.99792   0.26223   0.86830   0.00000  Uiso   1.00
C244   C     0.10201   0.22340   0.63052   0.00000  Uiso   1.00
C245   C     0.10872   0.13697   0.61452   0.00000  Uiso   1.00
C246   C     0.17803   0.09812   0.60066   0.00000  Uiso   1.00
C247   C     0.17173   0.01902   0.58725   0.00000  Uiso   1.00
C248   C     0.04260   0.25963   0.59086   0.00000  Uiso   1.00
C249   C     0.05631   0.32391   0.55712   0.00000  Uiso   1.00
C250   C     0.99436   0.34808   0.52381   0.00000  Uiso   1.00
C251   C     0.06261   0.22467   0.68676   0.00000  Uiso   1.00
C252   C     0.09314   0.25958   0.73363   0.00000  Uiso   1.00
C253   C     0.04801   0.25434   0.78105   0.00000  Uiso   1.00
H254   H     0.91077   0.12180   0.63172   0.00000  Uiso   1.00
H255   H     0.97281   0.98913   0.60195   0.00000  Uiso   1.00
H256   H     0.85111   0.21490   0.55842   0.00000  Uiso   1.00
H257   H     0.88793   0.15057   0.73491   0.00000  Uiso   1.00
H258   H     0.07379   0.85916   0.56871   0.00000  Uiso   1.00
H259   H     0.81718   0.33520   0.47696   0.00000  Uiso   1.00
H260   H     0.89481   0.19957   0.84911   0.00000  Uiso   1.00
H261   H     0.15885   0.25359   0.63016   0.00000  Uiso   1.00
H262   H     0.23452   0.12815   0.60030   0.00000  Uiso   1.00
H263   H     0.11281   0.35391   0.55678   0.00000  Uiso   1.00
H264   H     0.14963   0.28959   0.73326   0.00000  Uiso   1.00
H265   H     0.28620   0.97199   0.56738   0.00000  Uiso   1.00
H266   H     0.02958   0.44804   0.47562   0.00000  Uiso   1.00
H267   H     0.10722   0.31240   0.84777   0.00000  Uiso   1.00
O268   O     0.22529   0.83068   0.54841   0.00000  Uiso   1.00
O269   O     0.88861   0.45525   0.42804   0.00000  Uiso   1.00
O270   O     0.99047   0.27729   0.91629   0.00000  Uiso   1.00
N271   N     0.11340   0.90292   0.57251   0.00000  Uiso   1.00
N272   N     0.87348   0.34799   0.48671   0.00000  Uiso   1.00
N273   N     0.94605   0.22120   0.83464   0.00000  Uiso   1.00
N274   N     0.22769   0.96364   0.57179   0.00000  Uiso   1.00
N275   N     0.98778   0.40871   0.48599   0.00000  Uiso   1.00
N276   N     0.06035   0.28192   0.83392   0.00000  Uiso   1.00
C277   C     0.46761   0.84801   0.86863   0.00000  Uiso   1.00
C278   C     0.53572   0.90182   0.88502   0.00000  Uiso   1.00
C279   C     0.52932   0.98087   0.89841   0.00000  Uiso   1.00
C280   C     0.59860   0.01983   0.91229   0.00000  Uiso   1.00
C281   C     0.69325   0.10927   0.93769   0.00000  Uiso   1.00
C282   C     0.46960   0.77916   0.90868   0.00000  Uiso   1.00
C283   C     0.40761   0.75508   0.94194   0.00000  Uiso   1.00
C284   C     0.42122   0.69078   0.97573   0.00000  Uiso   1.00
C285   C     0.41320   0.58976   0.03783   0.00000  Uiso   1.00
C286   C     0.48961   0.81411   0.81279   0.00000  Uiso   1.00
C287   C     0.44442   0.81941   0.76543   0.00000  Uiso   1.00
C288   C     0.47488   0.78452   0.71849   0.00000  Uiso   1.00
C289   C     0.49792   0.73777   0.63170   0.00000  Uiso   1.00
C290   C     0.60201   0.77660   0.86948   0.00000  Uiso   1.00
C291   C     0.60872   0.86303   0.88548   0.00000  Uiso   1.00
C292   C     0.67803   0.90188   0.89934   0.00000  Uiso   1.00
C293   C     0.67173   0.98098   0.91275   0.00000  Uiso   1.00
C294   C     0.54260   0.74037   0.90914   0.00000  Uiso   1.00
C295   C     0.55631   0.67609   0.94288   0.00000  Uiso   1.00
C296   C     0.49436   0.65192   0.97619   0.00000  Uiso   1.00
C297   C     0.56261   0.77533   0.81324   0.00000  Uiso   1.00
C298   C     0.59314   0.74042   0.76637   0.00000  Uiso   1.00
C299   C     0.54801   0.74566   0.71895   0.00000  Uiso   1.00
H300   H     0.41077   0.87820   0.86828   0.00000  Uiso   1.00
H301   H     0.47281   0.01087   0.89805   0.00000  Uiso   1.00
H302   H     0.35111   0.78510   0.94158   0.00000  Uiso   1.00
H303   H     0.38793   0.84943   0.76509   0.00000  Uiso   1.00
H304   H     0.57379   0.14084   0.93129   0.00000  Uiso   1.00
H305   H     0.31718   0.66480   0.02304   0.00000  Uiso   1.00
H306   H     0.39481   0.80043   0.65089   0.00000  Uiso   1.00
H307   H     0.65885   0.74641   0.86984   0.00000  Uiso   1.00
H308   H     0.73452   0.87185   0.89970   0.00000  Uiso   1.00
H309   H     0.61281   0.64609   0.94322   0.00000  Uiso   1.00
H310   H     0.64963   0.71041   0.76674   0.00000  Uiso   1.00
H311   H     0.78620   0.02801   0.93262   0.00000  Uiso   1.00
H312   H     0.52958   0.55196   0.02438   0.00000  Uiso   1.00
H313   H     0.60722   0.68760   0.65223   0.00000  Uiso   1.00
O314   O     0.72529   0.16932   0.95159   0.00000  Uiso   1.00
O315   O     0.38861   0.54475   0.07196   0.00000  Uiso   1.00
O316   O     0.49047   0.72271   0.58371   0.00000  Uiso   1.00
N317   N     0.61340   0.09708   0.92749   0.00000  Uiso   1.00
N318   N     0.37348   0.65201   0.01329   0.00000  Uiso   1.00
N319   N     0.44605   0.77880   0.66536   0.00000  Uiso   1.00
N320   N     0.72769   0.03636   0.92821   0.00000  Uiso   1.00
N321   N     0.48778   0.59129   0.01401   0.00000  Uiso   1.00
N322   N     0.56035   0.71808   0.66608   0.00000  Uiso   1.00
C323   C     0.03239   0.65199   0.86863   0.00000  Uiso   1.00
C324   C     0.96428   0.59818   0.88502   0.00000  Uiso   1.00
C325   C     0.97068   0.51913   0.89841   0.00000  Uiso   1.00
C326   C     0.90140   0.48017   0.91229   0.00000  Uiso   1.00
C327   C     0.80675   0.39073   0.93769   0.00000  Uiso   1.00
C328   C     0.03040   0.72084   0.90868   0.00000  Uiso   1.00
C329   C     0.09239   0.74492   0.94194   0.00000  Uiso   1.00
C330   C     0.07878   0.80922   0.97573   0.00000  Uiso   1.00
C331   C     0.08680   0.91024   0.03783   0.00000  Uiso   1.00
C332   C     0.01039   0.68589   0.81279   0.00000  Uiso   1.00
C333   C     0.05558   0.68059   0.76543   0.00000  Uiso   1.00
C334   C     0.02512   0.71548   0.71849   0.00000  Uiso   1.00
C335   C     0.00208   0.76223   0.63170   0.00000  Uiso   1.00
C336   C     0.89799   0.72340   0.86948   0.00000  Uiso   1.00
C337   C     0.89128   0.63697   0.88548   0.00000  Uiso   1.00
C338   C     0.82197   0.59812   0.89934   0.00000  Uiso   1.00
C339   C     0.82827   0.51902   0.91275   0.00000  Uiso   1.00
C340   C     0.95740   0.75963   0.90914   0.00000  Uiso   1.00
C341   C     0.94369   0.82391   0.94288   0.00000  Uiso   1.00
C342   C     0.00564   0.84808   0.97619   0.00000  Uiso   1.00
C343   C     0.93739   0.72467   0.81324   0.00000  Uiso   1.00
C344   C     0.90686   0.75958   0.76637   0.00000  Uiso   1.00
C345   C     0.95199   0.75434   0.71895   0.00000  Uiso   1.00
H346   H     0.08923   0.62180   0.86828   0.00000  Uiso   1.00
H347   H     0.02719   0.48913   0.89805   0.00000  Uiso   1.00
H348   H     0.14889   0.71490   0.94158   0.00000  Uiso   1.00
H349   H     0.11207   0.65057   0.76509   0.00000  Uiso   1.00
H350   H     0.92621   0.35916   0.93129   0.00000  Uiso   1.00
H351   H     0.18282   0.83520   0.02304   0.00000  Uiso   1.00
H352   H     0.10519   0.69957   0.65089   0.00000  Uiso   1.00
H353   H     0.84115   0.75359   0.86984   0.00000  Uiso   1.00
H354   H     0.76548   0.62815   0.89970   0.00000  Uiso   1.00
H355   H     0.88719   0.85391   0.94322   0.00000  Uiso   1.00
H356   H     0.85037   0.78959   0.76674   0.00000  Uiso   1.00
H357   H     0.71380   0.47199   0.93262   0.00000  Uiso   1.00
H358   H     0.97042   0.94804   0.02438   0.00000  Uiso   1.00
H359   H     0.89278   0.81240   0.65223   0.00000  Uiso   1.00
O360   O     0.77471   0.33068   0.95159   0.00000  Uiso   1.00
O361   O     0.11139   0.95525   0.07196   0.00000  Uiso   1.00
O362   O     0.00953   0.77729   0.58371   0.00000  Uiso   1.00
N363   N     0.88660   0.40292   0.92749   0.00000  Uiso   1.00
N364   N     0.12652   0.84799   0.01329   0.00000  Uiso   1.00
N365   N     0.05395   0.72120   0.66536   0.00000  Uiso   1.00
N366   N     0.77231   0.46364   0.92821   0.00000  Uiso   1.00
N367   N     0.01222   0.90871   0.01401   0.00000  Uiso   1.00
N368   N     0.93965   0.78192   0.66608   0.00000  Uiso   1.00
