data_job_03282
_audit_creation_date              2018-12-19
_audit_creation_method            'Materials Studio'
_symmetry_space_group_name_H-M    'P1'
_symmetry_Int_Tables_number       1
_symmetry_cell_setting            triclinic
loop_
_symmetry_equiv_pos_as_xyz
  x,y,z
_cell_length_a                    12.0645
_cell_length_b                    12.5628
_cell_length_c                    16.4541
_cell_angle_alpha                 107.8735
_cell_angle_beta                  90.5902
_cell_angle_gamma                 107.0379
loop_
_atom_site_label
_atom_site_type_symbol
_atom_site_fract_x
_atom_site_fract_y
_atom_site_fract_z
_atom_site_U_iso_or_equiv
_atom_site_adp_type
_atom_site_occupancy
C1     C     0.61243   0.53163   0.79329   0.00000  Uiso   1.00
C2     C     0.64695   0.48624   0.70327   0.00000  Uiso   1.00
C3     C     0.75853   0.51795   0.67894   0.00000  Uiso   1.00
C4     C     0.77211   0.46666   0.59353   0.00000  Uiso   1.00
C5     C     0.84010   0.40841   0.46271   0.00000  Uiso   1.00
C6     C     0.51638   0.58462   0.78356   0.00000  Uiso   1.00
C7     C     0.51818   0.69905   0.82674   0.00000  Uiso   1.00
C8     C     0.42183   0.73057   0.80892   0.00000  Uiso   1.00
C9     C     0.28707   0.82504   0.80279   0.00000  Uiso   1.00
C10    C     0.55452   0.42296   0.81873   0.00000  Uiso   1.00
C11    C     0.58835   0.40146   0.89150   0.00000  Uiso   1.00
C12    C     0.52410   0.29688   0.90331   0.00000  Uiso   1.00
C13    C     0.44855   0.14034   0.95179   0.00000  Uiso   1.00
C14    C     0.43813   0.38414   0.68488   0.00000  Uiso   1.00
C15    C     0.55227   0.40613   0.64439   0.00000  Uiso   1.00
C16    C     0.56569   0.35477   0.55900   0.00000  Uiso   1.00
C17    C     0.67727   0.38640   0.53454   0.00000  Uiso   1.00
C18    C     0.42171   0.50452   0.72468   0.00000  Uiso   1.00
C19    C     0.32534   0.53587   0.70680   0.00000  Uiso   1.00
C20    C     0.32699   0.65032   0.74993   0.00000  Uiso   1.00
C21    C     0.45984   0.34284   0.75985   0.00000  Uiso   1.00
C22    C     0.39551   0.23828   0.77155   0.00000  Uiso   1.00
C23    C     0.42925   0.21662   0.84432   0.00000  Uiso   1.00
H24    H     0.68613   0.59400   0.83913   0.00000  Uiso   1.00
H25    H     0.83177   0.57996   0.72453   0.00000  Uiso   1.00
H26    H     0.59145   0.76102   0.87231   0.00000  Uiso   1.00
H27    H     0.66162   0.46348   0.93705   0.00000  Uiso   1.00
H28    H     0.95148   0.52910   0.57149   0.00000  Uiso   1.00
H29    H     0.44473   0.91087   0.88312   0.00000  Uiso   1.00
H30    H     0.59269   0.28343   0.01965   0.00000  Uiso   1.00
H31    H     0.36442   0.32176   0.63903   0.00000  Uiso   1.00
H32    H     0.49241   0.29278   0.51344   0.00000  Uiso   1.00
H33    H     0.25209   0.47385   0.66123   0.00000  Uiso   1.00
H34    H     0.32226   0.17630   0.72597   0.00000  Uiso   1.00
H35    H     0.67604   0.29601   0.40017   0.00000  Uiso   1.00
H36    H     0.16928   0.67779   0.71180   0.00000  Uiso   1.00
H37    H     0.31725   0.05035   0.84833   0.00000  Uiso   1.00
O38    O     0.90375   0.39843   0.40682   0.00000  Uiso   1.00
O39    O     0.23891   0.89929   0.81568   0.00000  Uiso   1.00
O40    O     0.43304   0.07611   0.99479   0.00000  Uiso   1.00
N41    N     0.86909   0.47820   0.54841   0.00000  Uiso   1.00
N42    N     0.39532   0.83514   0.83975   0.00000  Uiso   1.00
N43    N     0.53364   0.24856   0.96741   0.00000  Uiso   1.00
N44    N     0.72088   0.35278   0.45622   0.00000  Uiso   1.00
N45    N     0.24711   0.70972   0.74757   0.00000  Uiso   1.00
N46    N     0.38543   0.12314   0.87522   0.00000  Uiso   1.00
C47    C     0.38757   0.46837   0.20671   0.00000  Uiso   1.00
C48    C     0.35305   0.51376   0.29673   0.00000  Uiso   1.00
C49    C     0.24147   0.48205   0.32106   0.00000  Uiso   1.00
C50    C     0.22789   0.53334   0.40647   0.00000  Uiso   1.00
C51    C     0.15990   0.59159   0.53729   0.00000  Uiso   1.00
C52    C     0.48362   0.41538   0.21644   0.00000  Uiso   1.00
C53    C     0.48182   0.30095   0.17326   0.00000  Uiso   1.00
C54    C     0.57817   0.26943   0.19108   0.00000  Uiso   1.00
C55    C     0.71293   0.17496   0.19721   0.00000  Uiso   1.00
C56    C     0.44548   0.57704   0.18127   0.00000  Uiso   1.00
C57    C     0.41165   0.59854   0.10850   0.00000  Uiso   1.00
C58    C     0.47590   0.70312   0.09669   0.00000  Uiso   1.00
C59    C     0.55145   0.85966   0.04821   0.00000  Uiso   1.00
C60    C     0.56187   0.61586   0.31512   0.00000  Uiso   1.00
C61    C     0.44773   0.59387   0.35561   0.00000  Uiso   1.00
C62    C     0.43431   0.64523   0.44100   0.00000  Uiso   1.00
C63    C     0.32273   0.61360   0.46546   0.00000  Uiso   1.00
C64    C     0.57829   0.49548   0.27532   0.00000  Uiso   1.00
C65    C     0.67466   0.46413   0.29320   0.00000  Uiso   1.00
C66    C     0.67301   0.34968   0.25007   0.00000  Uiso   1.00
C67    C     0.54016   0.65716   0.24015   0.00000  Uiso   1.00
C68    C     0.60449   0.76172   0.22845   0.00000  Uiso   1.00
C69    C     0.57075   0.78338   0.15568   0.00000  Uiso   1.00
H70    H     0.31387   0.40600   0.16087   0.00000  Uiso   1.00
H71    H     0.16823   0.42004   0.27547   0.00000  Uiso   1.00
H72    H     0.40855   0.23898   0.12769   0.00000  Uiso   1.00
H73    H     0.33838   0.53652   0.06295   0.00000  Uiso   1.00
H74    H     0.04852   0.47090   0.42851   0.00000  Uiso   1.00
H75    H     0.55527   0.08913   0.11688   0.00000  Uiso   1.00
H76    H     0.40731   0.71657   0.98035   0.00000  Uiso   1.00
H77    H     0.63558   0.67824   0.36097   0.00000  Uiso   1.00
H78    H     0.50759   0.70722   0.48656   0.00000  Uiso   1.00
H79    H     0.74791   0.52615   0.33877   0.00000  Uiso   1.00
H80    H     0.67774   0.82370   0.27403   0.00000  Uiso   1.00
H81    H     0.32396   0.70399   0.59983   0.00000  Uiso   1.00
H82    H     0.83072   0.32221   0.28820   0.00000  Uiso   1.00
H83    H     0.68275   0.94965   0.15167   0.00000  Uiso   1.00
O84    O     0.09625   0.60157   0.59318   0.00000  Uiso   1.00
O85    O     0.76109   0.10071   0.18432   0.00000  Uiso   1.00
O86    O     0.56696   0.92389   0.00521   0.00000  Uiso   1.00
N87    N     0.13091   0.52180   0.45159   0.00000  Uiso   1.00
N88    N     0.60468   0.16486   0.16025   0.00000  Uiso   1.00
N89    N     0.46636   0.75144   0.03259   0.00000  Uiso   1.00
N90    N     0.27912   0.64722   0.54378   0.00000  Uiso   1.00
N91    N     0.75289   0.29028   0.25243   0.00000  Uiso   1.00
N92    N     0.61457   0.87686   0.12478   0.00000  Uiso   1.00
