data_job_00884
_audit_creation_date              2018-12-19
_audit_creation_method            'Materials Studio'
_symmetry_space_group_name_H-M    'P1'
_symmetry_Int_Tables_number       1
_symmetry_cell_setting            triclinic
loop_
_symmetry_equiv_pos_as_xyz
  x,y,z
_cell_length_a                    15.2992
_cell_length_b                    13.4198
_cell_length_c                    12.8603
_cell_angle_alpha                 90.0000
_cell_angle_beta                  75.0347
_cell_angle_gamma                 90.0000
loop_
_atom_site_label
_atom_site_type_symbol
_atom_site_fract_x
_atom_site_fract_y
_atom_site_fract_z
_atom_site_U_iso_or_equiv
_atom_site_adp_type
_atom_site_occupancy
C1     C     0.37050   0.28254   0.14599   0.00000  Uiso   1.00
C2     C     0.29353   0.22167   0.21655   0.00000  Uiso   1.00
C3     C     0.26748   0.12689   0.19348   0.00000  Uiso   1.00
C4     C     0.19543   0.08382   0.26832   0.00000  Uiso   1.00
C5     C     0.08264   0.98172   0.36349   0.00000  Uiso   1.00
C6     C     0.32852   0.38080   0.12397   0.00000  Uiso   1.00
C7     C     0.33191   0.41982   0.02306   0.00000  Uiso   1.00
C8     C     0.28932   0.51072   0.01998   0.00000  Uiso   1.00
C9     C     0.23091   0.65571   0.97142   0.00000  Uiso   1.00
C10    C     0.43348   0.30825   0.21663   0.00000  Uiso   1.00
C11    C     0.52513   0.28628   0.19362   0.00000  Uiso   1.00
C12    C     0.57091   0.31612   0.26854   0.00000  Uiso   1.00
C13    C     0.67547   0.34846   0.36384   0.00000  Uiso   1.00
C14    C     0.28886   0.37462   0.31992   0.00000  Uiso   1.00
C15    C     0.24919   0.27169   0.31102   0.00000  Uiso   1.00
C16    C     0.17716   0.22876   0.38592   0.00000  Uiso   1.00
C17    C     0.15101   0.13392   0.36297   0.00000  Uiso   1.00
C18    C     0.28418   0.43082   0.21844   0.00000  Uiso   1.00
C19    C     0.24158   0.52169   0.21551   0.00000  Uiso   1.00
C20    C     0.24489   0.56083   0.11462   0.00000  Uiso   1.00
C21    C     0.38914   0.35826   0.31111   0.00000  Uiso   1.00
C22    C     0.43480   0.38815   0.38607   0.00000  Uiso   1.00
C23    C     0.52649   0.36623   0.36318   0.00000  Uiso   1.00
H24    H     0.40502   0.24361   0.07243   0.00000  Uiso   1.00
H25    H     0.30181   0.08821   0.12035   0.00000  Uiso   1.00
H26    H     0.36624   0.38110   0.94997   0.00000  Uiso   1.00
H27    H     0.55942   0.24758   0.12050   0.00000  Uiso   1.00
H28    H     0.16781   0.93799   0.21513   0.00000  Uiso   1.00
H29    H     0.30368   0.55559   0.85586   0.00000  Uiso   1.00
H30    H     0.71105   0.27403   0.21546   0.00000  Uiso   1.00
H31    H     0.25433   0.41356   0.39348   0.00000  Uiso   1.00
H32    H     0.14285   0.26748   0.45903   0.00000  Uiso   1.00
H33    H     0.20728   0.56037   0.28863   0.00000  Uiso   1.00
H34    H     0.40046   0.42685   0.45917   0.00000  Uiso   1.00
H35    H     0.03879   0.08349   0.49001   0.00000  Uiso   1.00
H36    H     0.17466   0.70109   0.13074   0.00000  Uiso   1.00
H37    H     0.58203   0.41953   0.49034   0.00000  Uiso   1.00
O38    O     0.03266   0.91160   0.38988   0.00000  Uiso   1.00
O39    O     0.21093   0.72187   0.91853   0.00000  Uiso   1.00
O40    O     0.74539   0.35246   0.39032   0.00000  Uiso   1.00
N41    N     0.15275   0.99227   0.27084   0.00000  Uiso   1.00
N42    N     0.27977   0.56968   0.93494   0.00000  Uiso   1.00
N43    N     0.66063   0.30648   0.27112   0.00000  Uiso   1.00
N44    N     0.08333   0.07057   0.41875   0.00000  Uiso   1.00
N45    N     0.21035   0.64798   0.08285   0.00000  Uiso   1.00
N46    N     0.59121   0.38477   0.41903   0.00000  Uiso   1.00
C47    C     0.62950   0.78254   0.35401   0.00000  Uiso   1.00
C48    C     0.70647   0.72167   0.28345   0.00000  Uiso   1.00
C49    C     0.73252   0.62689   0.30652   0.00000  Uiso   1.00
C50    C     0.80457   0.58382   0.23168   0.00000  Uiso   1.00
C51    C     0.91736   0.48172   0.13651   0.00000  Uiso   1.00
C52    C     0.67148   0.88080   0.37603   0.00000  Uiso   1.00
C53    C     0.66809   0.91982   0.47694   0.00000  Uiso   1.00
C54    C     0.71068   0.01072   0.48002   0.00000  Uiso   1.00
C55    C     0.76909   0.15571   0.52858   0.00000  Uiso   1.00
C56    C     0.56652   0.80825   0.28337   0.00000  Uiso   1.00
C57    C     0.47487   0.78628   0.30638   0.00000  Uiso   1.00
C58    C     0.42909   0.81612   0.23146   0.00000  Uiso   1.00
C59    C     0.32453   0.84846   0.13616   0.00000  Uiso   1.00
C60    C     0.71114   0.87462   0.18008   0.00000  Uiso   1.00
C61    C     0.75081   0.77169   0.18898   0.00000  Uiso   1.00
C62    C     0.82284   0.72876   0.11408   0.00000  Uiso   1.00
C63    C     0.84899   0.63392   0.13703   0.00000  Uiso   1.00
C64    C     0.71582   0.93082   0.28156   0.00000  Uiso   1.00
C65    C     0.75842   0.02169   0.28449   0.00000  Uiso   1.00
C66    C     0.75511   0.06083   0.38538   0.00000  Uiso   1.00
C67    C     0.61086   0.85826   0.18889   0.00000  Uiso   1.00
C68    C     0.56520   0.88815   0.11393   0.00000  Uiso   1.00
C69    C     0.47351   0.86623   0.13682   0.00000  Uiso   1.00
H70    H     0.59498   0.74361   0.42757   0.00000  Uiso   1.00
H71    H     0.69819   0.58821   0.37965   0.00000  Uiso   1.00
H72    H     0.63376   0.88110   0.55003   0.00000  Uiso   1.00
H73    H     0.44058   0.74758   0.37950   0.00000  Uiso   1.00
H74    H     0.83219   0.43799   0.28487   0.00000  Uiso   1.00
H75    H     0.69632   0.05559   0.64414   0.00000  Uiso   1.00
H76    H     0.28895   0.77403   0.28454   0.00000  Uiso   1.00
H77    H     0.74567   0.91356   0.10652   0.00000  Uiso   1.00
H78    H     0.85715   0.76748   0.04097   0.00000  Uiso   1.00
H79    H     0.79272   0.06037   0.21137   0.00000  Uiso   1.00
H80    H     0.59954   0.92685   0.04083   0.00000  Uiso   1.00
H81    H     0.96121   0.58349   0.00999   0.00000  Uiso   1.00
H82    H     0.82534   0.20109   0.36926   0.00000  Uiso   1.00
H83    H     0.41797   0.91953   0.00966   0.00000  Uiso   1.00
O84    O     0.96734   0.41160   0.11012   0.00000  Uiso   1.00
O85    O     0.78907   0.22187   0.58147   0.00000  Uiso   1.00
O86    O     0.25461   0.85246   0.10968   0.00000  Uiso   1.00
N87    N     0.84725   0.49227   0.22916   0.00000  Uiso   1.00
N88    N     0.72023   0.06968   0.56506   0.00000  Uiso   1.00
N89    N     0.33937   0.80648   0.22888   0.00000  Uiso   1.00
N90    N     0.91667   0.57057   0.08125   0.00000  Uiso   1.00
N91    N     0.78965   0.14798   0.41715   0.00000  Uiso   1.00
N92    N     0.40879   0.88477   0.08097   0.00000  Uiso   1.00
C93    C     0.62950   0.71746   0.85401   0.00000  Uiso   1.00
C94    C     0.70647   0.77833   0.78345   0.00000  Uiso   1.00
C95    C     0.73252   0.87311   0.80652   0.00000  Uiso   1.00
C96    C     0.80457   0.91618   0.73168   0.00000  Uiso   1.00
C97    C     0.91736   0.01828   0.63651   0.00000  Uiso   1.00
C98    C     0.67148   0.61920   0.87603   0.00000  Uiso   1.00
C99    C     0.66809   0.58018   0.97694   0.00000  Uiso   1.00
C100   C     0.71068   0.48928   0.98002   0.00000  Uiso   1.00
C101   C     0.76909   0.34429   0.02858   0.00000  Uiso   1.00
C102   C     0.56652   0.69175   0.78337   0.00000  Uiso   1.00
C103   C     0.47487   0.71372   0.80638   0.00000  Uiso   1.00
C104   C     0.42909   0.68388   0.73146   0.00000  Uiso   1.00
C105   C     0.32453   0.65154   0.63616   0.00000  Uiso   1.00
C106   C     0.71114   0.62538   0.68008   0.00000  Uiso   1.00
C107   C     0.75081   0.72831   0.68898   0.00000  Uiso   1.00
C108   C     0.82284   0.77124   0.61408   0.00000  Uiso   1.00
C109   C     0.84899   0.86608   0.63703   0.00000  Uiso   1.00
C110   C     0.71582   0.56918   0.78156   0.00000  Uiso   1.00
C111   C     0.75842   0.47831   0.78449   0.00000  Uiso   1.00
C112   C     0.75511   0.43917   0.88538   0.00000  Uiso   1.00
C113   C     0.61086   0.64174   0.68889   0.00000  Uiso   1.00
C114   C     0.56520   0.61185   0.61393   0.00000  Uiso   1.00
C115   C     0.47351   0.63377   0.63682   0.00000  Uiso   1.00
H116   H     0.59498   0.75639   0.92757   0.00000  Uiso   1.00
H117   H     0.69819   0.91179   0.87965   0.00000  Uiso   1.00
H118   H     0.63376   0.61890   0.05003   0.00000  Uiso   1.00
H119   H     0.44058   0.75242   0.87950   0.00000  Uiso   1.00
H120   H     0.83219   0.06201   0.78487   0.00000  Uiso   1.00
H121   H     0.69632   0.44441   0.14414   0.00000  Uiso   1.00
H122   H     0.28895   0.72597   0.78454   0.00000  Uiso   1.00
H123   H     0.74567   0.58644   0.60652   0.00000  Uiso   1.00
H124   H     0.85715   0.73252   0.54097   0.00000  Uiso   1.00
H125   H     0.79272   0.43963   0.71137   0.00000  Uiso   1.00
H126   H     0.59954   0.57315   0.54083   0.00000  Uiso   1.00
H127   H     0.96121   0.91651   0.50999   0.00000  Uiso   1.00
H128   H     0.82534   0.29891   0.86926   0.00000  Uiso   1.00
H129   H     0.41797   0.58047   0.50966   0.00000  Uiso   1.00
O130   O     0.96734   0.08840   0.61012   0.00000  Uiso   1.00
O131   O     0.78907   0.27813   0.08147   0.00000  Uiso   1.00
O132   O     0.25461   0.64754   0.60968   0.00000  Uiso   1.00
N133   N     0.84725   0.00773   0.72916   0.00000  Uiso   1.00
N134   N     0.72023   0.43032   0.06506   0.00000  Uiso   1.00
N135   N     0.33937   0.69352   0.72888   0.00000  Uiso   1.00
N136   N     0.91667   0.92943   0.58125   0.00000  Uiso   1.00
N137   N     0.78965   0.35202   0.91715   0.00000  Uiso   1.00
N138   N     0.40879   0.61523   0.58097   0.00000  Uiso   1.00
C139   C     0.37050   0.21746   0.64599   0.00000  Uiso   1.00
C140   C     0.29353   0.27833   0.71655   0.00000  Uiso   1.00
C141   C     0.26748   0.37311   0.69348   0.00000  Uiso   1.00
C142   C     0.19543   0.41618   0.76832   0.00000  Uiso   1.00
C143   C     0.08264   0.51828   0.86349   0.00000  Uiso   1.00
C144   C     0.32852   0.11920   0.62397   0.00000  Uiso   1.00
C145   C     0.33191   0.08018   0.52306   0.00000  Uiso   1.00
C146   C     0.28932   0.98928   0.51998   0.00000  Uiso   1.00
C147   C     0.23091   0.84429   0.47142   0.00000  Uiso   1.00
C148   C     0.43348   0.19175   0.71663   0.00000  Uiso   1.00
C149   C     0.52513   0.21372   0.69362   0.00000  Uiso   1.00
C150   C     0.57091   0.18388   0.76854   0.00000  Uiso   1.00
C151   C     0.67547   0.15154   0.86384   0.00000  Uiso   1.00
C152   C     0.28886   0.12538   0.81992   0.00000  Uiso   1.00
C153   C     0.24919   0.22831   0.81102   0.00000  Uiso   1.00
C154   C     0.17716   0.27124   0.88592   0.00000  Uiso   1.00
C155   C     0.15101   0.36608   0.86297   0.00000  Uiso   1.00
C156   C     0.28418   0.06918   0.71844   0.00000  Uiso   1.00
C157   C     0.24158   0.97831   0.71551   0.00000  Uiso   1.00
C158   C     0.24489   0.93917   0.61462   0.00000  Uiso   1.00
C159   C     0.38914   0.14174   0.81111   0.00000  Uiso   1.00
C160   C     0.43480   0.11185   0.88607   0.00000  Uiso   1.00
C161   C     0.52649   0.13377   0.86318   0.00000  Uiso   1.00
H162   H     0.40502   0.25639   0.57243   0.00000  Uiso   1.00
H163   H     0.30181   0.41179   0.62035   0.00000  Uiso   1.00
H164   H     0.36624   0.11890   0.44997   0.00000  Uiso   1.00
H165   H     0.55942   0.25242   0.62050   0.00000  Uiso   1.00
H166   H     0.16781   0.56201   0.71513   0.00000  Uiso   1.00
H167   H     0.30368   0.94441   0.35586   0.00000  Uiso   1.00
H168   H     0.71105   0.22597   0.71546   0.00000  Uiso   1.00
H169   H     0.25433   0.08644   0.89348   0.00000  Uiso   1.00
H170   H     0.14285   0.23252   0.95903   0.00000  Uiso   1.00
H171   H     0.20728   0.93963   0.78863   0.00000  Uiso   1.00
H172   H     0.40046   0.07315   0.95917   0.00000  Uiso   1.00
H173   H     0.03879   0.41651   0.99001   0.00000  Uiso   1.00
H174   H     0.17466   0.79891   0.63074   0.00000  Uiso   1.00
H175   H     0.58203   0.08047   0.99034   0.00000  Uiso   1.00
O176   O     0.03266   0.58840   0.88988   0.00000  Uiso   1.00
O177   O     0.21093   0.77813   0.41853   0.00000  Uiso   1.00
O178   O     0.74539   0.14754   0.89032   0.00000  Uiso   1.00
N179   N     0.15275   0.50773   0.77084   0.00000  Uiso   1.00
N180   N     0.27977   0.93032   0.43494   0.00000  Uiso   1.00
N181   N     0.66063   0.19352   0.77112   0.00000  Uiso   1.00
N182   N     0.08333   0.42943   0.91875   0.00000  Uiso   1.00
N183   N     0.21035   0.85202   0.58285   0.00000  Uiso   1.00
N184   N     0.59121   0.11523   0.91903   0.00000  Uiso   1.00
