data_job_05136
_audit_creation_date              2018-12-19
_audit_creation_method            'Materials Studio'
_symmetry_space_group_name_H-M    'P1'
_symmetry_Int_Tables_number       1
_symmetry_cell_setting            triclinic
loop_
_symmetry_equiv_pos_as_xyz
  x,y,z
_cell_length_a                    21.6596
_cell_length_b                    12.3584
_cell_length_c                    22.2204
_cell_angle_alpha                 90.0000
_cell_angle_beta                  90.0000
_cell_angle_gamma                 90.0000
loop_
_atom_site_label
_atom_site_type_symbol
_atom_site_fract_x
_atom_site_fract_y
_atom_site_fract_z
_atom_site_U_iso_or_equiv
_atom_site_adp_type
_atom_site_occupancy
C1     C     0.05423   0.10995   0.29812   0.00000  Uiso   1.00
C2     C     0.00367   0.13526   0.34376   0.00000  Uiso   1.00
C3     C     0.94061   0.12843   0.33340   0.00000  Uiso   1.00
C4     C     0.90190   0.15502   0.38096   0.00000  Uiso   1.00
C5     C     0.81982   0.18946   0.44332   0.00000  Uiso   1.00
C6     C     0.09392   0.21159   0.29396   0.00000  Uiso   1.00
C7     C     0.10674   0.26893   0.24173   0.00000  Uiso   1.00
C8     C     0.14402   0.35977   0.24737   0.00000  Uiso   1.00
C9     C     0.20208   0.51268   0.23241   0.00000  Uiso   1.00
C10    C     0.09484   0.02371   0.32713   0.00000  Uiso   1.00
C11    C     0.10844   0.92308   0.30278   0.00000  Uiso   1.00
C12    C     0.14649   0.85574   0.33634   0.00000  Uiso   1.00
C13    C     0.20597   0.71692   0.37288   0.00000  Uiso   1.00
C14    C     0.09763   0.16932   0.40100   0.00000  Uiso   1.00
C15    C     0.02725   0.16750   0.39964   0.00000  Uiso   1.00
C16    C     0.98863   0.19411   0.44723   0.00000  Uiso   1.00
C17    C     0.92552   0.18732   0.43694   0.00000  Uiso   1.00
C18    C     0.11750   0.24384   0.34984   0.00000  Uiso   1.00
C19    C     0.15476   0.33461   0.35555   0.00000  Uiso   1.00
C20    C     0.16763   0.39208   0.30335   0.00000  Uiso   1.00
C21    C     0.11841   0.05595   0.38301   0.00000  Uiso   1.00
C22    C     0.15646   0.98876   0.41661   0.00000  Uiso   1.00
C23    C     0.17011   0.88804   0.39232   0.00000  Uiso   1.00
H24    H     0.03588   0.08486   0.25461   0.00000  Uiso   1.00
H25    H     0.92238   0.10348   0.29015   0.00000  Uiso   1.00
H26    H     0.08850   0.24396   0.19850   0.00000  Uiso   1.00
H27    H     0.09019   0.89816   0.25954   0.00000  Uiso   1.00
H28    H     0.80695   0.13839   0.35419   0.00000  Uiso   1.00
H29    H     0.15723   0.43457   0.16093   0.00000  Uiso   1.00
H30    H     0.16080   0.70537   0.28964   0.00000  Uiso   1.00
H31    H     0.11599   0.19442   0.44450   0.00000  Uiso   1.00
H32    H     0.00689   0.21906   0.49046   0.00000  Uiso   1.00
H33    H     0.17300   0.35953   0.39880   0.00000  Uiso   1.00
H34    H     0.17469   0.01373   0.45985   0.00000  Uiso   1.00
H35    H     0.87554   0.23220   0.51677   0.00000  Uiso   1.00
H36    H     0.22582   0.52837   0.32350   0.00000  Uiso   1.00
H37    H     0.22938   0.79918   0.45222   0.00000  Uiso   1.00
O38    O     0.76803   0.19956   0.46228   0.00000  Uiso   1.00
O39    O     0.22759   0.58811   0.20872   0.00000  Uiso   1.00
O40    O     0.23226   0.63144   0.37760   0.00000  Uiso   1.00
N41    N     0.83806   0.15707   0.38615   0.00000  Uiso   1.00
N42    N     0.16555   0.43398   0.20546   0.00000  Uiso   1.00
N43    N     0.16889   0.75226   0.32579   0.00000  Uiso   1.00
N44    N     0.87497   0.20754   0.47363   0.00000  Uiso   1.00
N45    N     0.20245   0.48446   0.29294   0.00000  Uiso   1.00
N46    N     0.20580   0.80274   0.41327   0.00000  Uiso   1.00
C47    C     0.44577   0.89005   0.79812   0.00000  Uiso   1.00
C48    C     0.49633   0.86474   0.84376   0.00000  Uiso   1.00
C49    C     0.55939   0.87157   0.83340   0.00000  Uiso   1.00
C50    C     0.59810   0.84498   0.88096   0.00000  Uiso   1.00
C51    C     0.68018   0.81054   0.94332   0.00000  Uiso   1.00
C52    C     0.40608   0.78841   0.79396   0.00000  Uiso   1.00
C53    C     0.39326   0.73107   0.74173   0.00000  Uiso   1.00
C54    C     0.35598   0.64023   0.74737   0.00000  Uiso   1.00
C55    C     0.29792   0.48732   0.73241   0.00000  Uiso   1.00
C56    C     0.40516   0.97629   0.82713   0.00000  Uiso   1.00
C57    C     0.39156   0.07692   0.80278   0.00000  Uiso   1.00
C58    C     0.35351   0.14426   0.83634   0.00000  Uiso   1.00
C59    C     0.29403   0.28308   0.87288   0.00000  Uiso   1.00
C60    C     0.40237   0.83068   0.90100   0.00000  Uiso   1.00
C61    C     0.47275   0.83250   0.89964   0.00000  Uiso   1.00
C62    C     0.51137   0.80589   0.94723   0.00000  Uiso   1.00
C63    C     0.57448   0.81268   0.93694   0.00000  Uiso   1.00
C64    C     0.38250   0.75616   0.84984   0.00000  Uiso   1.00
C65    C     0.34524   0.66539   0.85555   0.00000  Uiso   1.00
C66    C     0.33237   0.60792   0.80335   0.00000  Uiso   1.00
C67    C     0.38159   0.94405   0.88301   0.00000  Uiso   1.00
C68    C     0.34354   0.01124   0.91661   0.00000  Uiso   1.00
C69    C     0.32989   0.11196   0.89232   0.00000  Uiso   1.00
H70    H     0.46412   0.91514   0.75461   0.00000  Uiso   1.00
H71    H     0.57762   0.89652   0.79015   0.00000  Uiso   1.00
H72    H     0.41150   0.75604   0.69850   0.00000  Uiso   1.00
H73    H     0.40981   0.10184   0.75954   0.00000  Uiso   1.00
H74    H     0.69305   0.86161   0.85419   0.00000  Uiso   1.00
H75    H     0.34277   0.56543   0.66093   0.00000  Uiso   1.00
H76    H     0.33920   0.29463   0.78964   0.00000  Uiso   1.00
H77    H     0.38401   0.80558   0.94450   0.00000  Uiso   1.00
H78    H     0.49311   0.78094   0.99046   0.00000  Uiso   1.00
H79    H     0.32700   0.64047   0.89880   0.00000  Uiso   1.00
H80    H     0.32531   0.98627   0.95985   0.00000  Uiso   1.00
H81    H     0.62446   0.76780   0.01677   0.00000  Uiso   1.00
H82    H     0.27418   0.47163   0.82350   0.00000  Uiso   1.00
H83    H     0.27062   0.20082   0.95222   0.00000  Uiso   1.00
O84    O     0.73197   0.80044   0.96228   0.00000  Uiso   1.00
O85    O     0.27241   0.41189   0.70872   0.00000  Uiso   1.00
O86    O     0.26774   0.36856   0.87760   0.00000  Uiso   1.00
N87    N     0.66194   0.84293   0.88615   0.00000  Uiso   1.00
N88    N     0.33445   0.56602   0.70546   0.00000  Uiso   1.00
N89    N     0.33111   0.24774   0.82579   0.00000  Uiso   1.00
N90    N     0.62503   0.79246   0.97363   0.00000  Uiso   1.00
N91    N     0.29755   0.51554   0.79294   0.00000  Uiso   1.00
N92    N     0.29420   0.19726   0.91327   0.00000  Uiso   1.00
C93    C     0.94577   0.60995   0.20188   0.00000  Uiso   1.00
C94    C     0.99633   0.63526   0.15624   0.00000  Uiso   1.00
C95    C     0.05939   0.62843   0.16660   0.00000  Uiso   1.00
C96    C     0.09810   0.65502   0.11904   0.00000  Uiso   1.00
C97    C     0.18018   0.68946   0.05668   0.00000  Uiso   1.00
C98    C     0.90608   0.71159   0.20604   0.00000  Uiso   1.00
C99    C     0.89326   0.76893   0.25827   0.00000  Uiso   1.00
C100   C     0.85598   0.85977   0.25263   0.00000  Uiso   1.00
C101   C     0.79792   0.01268   0.26759   0.00000  Uiso   1.00
C102   C     0.90516   0.52371   0.17287   0.00000  Uiso   1.00
C103   C     0.89156   0.42308   0.19722   0.00000  Uiso   1.00
C104   C     0.85351   0.35574   0.16366   0.00000  Uiso   1.00
C105   C     0.79403   0.21692   0.12712   0.00000  Uiso   1.00
C106   C     0.90237   0.66932   0.09900   0.00000  Uiso   1.00
C107   C     0.97275   0.66750   0.10036   0.00000  Uiso   1.00
C108   C     0.01137   0.69411   0.05277   0.00000  Uiso   1.00
C109   C     0.07448   0.68732   0.06306   0.00000  Uiso   1.00
C110   C     0.88250   0.74384   0.15016   0.00000  Uiso   1.00
C111   C     0.84524   0.83461   0.14445   0.00000  Uiso   1.00
C112   C     0.83237   0.89208   0.19665   0.00000  Uiso   1.00
C113   C     0.88159   0.55595   0.11699   0.00000  Uiso   1.00
C114   C     0.84354   0.48876   0.08339   0.00000  Uiso   1.00
C115   C     0.82989   0.38804   0.10768   0.00000  Uiso   1.00
H116   H     0.96412   0.58486   0.24539   0.00000  Uiso   1.00
H117   H     0.07762   0.60348   0.20985   0.00000  Uiso   1.00
H118   H     0.91150   0.74396   0.30150   0.00000  Uiso   1.00
H119   H     0.90981   0.39816   0.24046   0.00000  Uiso   1.00
H120   H     0.19305   0.63839   0.14581   0.00000  Uiso   1.00
H121   H     0.84277   0.93457   0.33907   0.00000  Uiso   1.00
H122   H     0.83920   0.20537   0.21036   0.00000  Uiso   1.00
H123   H     0.88401   0.69442   0.05550   0.00000  Uiso   1.00
H124   H     0.99311   0.71906   0.00954   0.00000  Uiso   1.00
H125   H     0.82700   0.85953   0.10120   0.00000  Uiso   1.00
H126   H     0.82531   0.51373   0.04015   0.00000  Uiso   1.00
H127   H     0.12446   0.73220   0.98323   0.00000  Uiso   1.00
H128   H     0.77418   0.02837   0.17650   0.00000  Uiso   1.00
H129   H     0.77062   0.29918   0.04778   0.00000  Uiso   1.00
O130   O     0.23197   0.69956   0.03772   0.00000  Uiso   1.00
O131   O     0.77241   0.08811   0.29128   0.00000  Uiso   1.00
O132   O     0.76774   0.13144   0.12240   0.00000  Uiso   1.00
N133   N     0.16194   0.65707   0.11385   0.00000  Uiso   1.00
N134   N     0.83445   0.93398   0.29454   0.00000  Uiso   1.00
N135   N     0.83111   0.25226   0.17421   0.00000  Uiso   1.00
N136   N     0.12503   0.70754   0.02637   0.00000  Uiso   1.00
N137   N     0.79755   0.98446   0.20706   0.00000  Uiso   1.00
N138   N     0.79420   0.30274   0.08673   0.00000  Uiso   1.00
C139   C     0.55423   0.39005   0.70188   0.00000  Uiso   1.00
C140   C     0.50367   0.36474   0.65624   0.00000  Uiso   1.00
C141   C     0.44061   0.37157   0.66660   0.00000  Uiso   1.00
C142   C     0.40190   0.34498   0.61904   0.00000  Uiso   1.00
C143   C     0.31982   0.31054   0.55668   0.00000  Uiso   1.00
C144   C     0.59392   0.28841   0.70604   0.00000  Uiso   1.00
C145   C     0.60674   0.23107   0.75827   0.00000  Uiso   1.00
C146   C     0.64402   0.14023   0.75263   0.00000  Uiso   1.00
C147   C     0.70208   0.98732   0.76759   0.00000  Uiso   1.00
C148   C     0.59484   0.47629   0.67287   0.00000  Uiso   1.00
C149   C     0.60844   0.57692   0.69722   0.00000  Uiso   1.00
C150   C     0.64649   0.64426   0.66366   0.00000  Uiso   1.00
C151   C     0.70597   0.78308   0.62712   0.00000  Uiso   1.00
C152   C     0.59763   0.33068   0.59900   0.00000  Uiso   1.00
C153   C     0.52725   0.33250   0.60036   0.00000  Uiso   1.00
C154   C     0.48863   0.30589   0.55277   0.00000  Uiso   1.00
C155   C     0.42552   0.31268   0.56306   0.00000  Uiso   1.00
C156   C     0.61750   0.25616   0.65016   0.00000  Uiso   1.00
C157   C     0.65476   0.16539   0.64445   0.00000  Uiso   1.00
C158   C     0.66763   0.10792   0.69665   0.00000  Uiso   1.00
C159   C     0.61841   0.44405   0.61699   0.00000  Uiso   1.00
C160   C     0.65646   0.51124   0.58339   0.00000  Uiso   1.00
C161   C     0.67011   0.61196   0.60768   0.00000  Uiso   1.00
H162   H     0.53588   0.41514   0.74539   0.00000  Uiso   1.00
H163   H     0.42238   0.39652   0.70985   0.00000  Uiso   1.00
H164   H     0.58850   0.25604   0.80150   0.00000  Uiso   1.00
H165   H     0.59019   0.60184   0.74046   0.00000  Uiso   1.00
H166   H     0.30695   0.36161   0.64581   0.00000  Uiso   1.00
H167   H     0.65723   0.06543   0.83907   0.00000  Uiso   1.00
H168   H     0.66080   0.79463   0.71036   0.00000  Uiso   1.00
H169   H     0.61599   0.30558   0.55550   0.00000  Uiso   1.00
H170   H     0.50689   0.28094   0.50954   0.00000  Uiso   1.00
H171   H     0.67300   0.14047   0.60120   0.00000  Uiso   1.00
H172   H     0.67469   0.48627   0.54015   0.00000  Uiso   1.00
H173   H     0.37554   0.26780   0.48323   0.00000  Uiso   1.00
H174   H     0.72582   0.97163   0.67650   0.00000  Uiso   1.00
H175   H     0.72938   0.70082   0.54778   0.00000  Uiso   1.00
O176   O     0.26803   0.30044   0.53772   0.00000  Uiso   1.00
O177   O     0.72759   0.91189   0.79128   0.00000  Uiso   1.00
O178   O     0.73226   0.86856   0.62240   0.00000  Uiso   1.00
N179   N     0.33806   0.34293   0.61385   0.00000  Uiso   1.00
N180   N     0.66555   0.06602   0.79454   0.00000  Uiso   1.00
N181   N     0.66889   0.74774   0.67421   0.00000  Uiso   1.00
N182   N     0.37497   0.29246   0.52637   0.00000  Uiso   1.00
N183   N     0.70245   0.01554   0.70706   0.00000  Uiso   1.00
N184   N     0.70580   0.69726   0.58673   0.00000  Uiso   1.00
C185   C     0.94577   0.89005   0.70188   0.00000  Uiso   1.00
C186   C     0.99633   0.86474   0.65624   0.00000  Uiso   1.00
C187   C     0.05939   0.87157   0.66660   0.00000  Uiso   1.00
C188   C     0.09810   0.84498   0.61904   0.00000  Uiso   1.00
C189   C     0.18018   0.81054   0.55668   0.00000  Uiso   1.00
C190   C     0.90608   0.78841   0.70604   0.00000  Uiso   1.00
C191   C     0.89326   0.73107   0.75827   0.00000  Uiso   1.00
C192   C     0.85598   0.64023   0.75263   0.00000  Uiso   1.00
C193   C     0.79792   0.48732   0.76759   0.00000  Uiso   1.00
C194   C     0.90516   0.97629   0.67287   0.00000  Uiso   1.00
C195   C     0.89156   0.07692   0.69722   0.00000  Uiso   1.00
C196   C     0.85351   0.14426   0.66366   0.00000  Uiso   1.00
C197   C     0.79403   0.28308   0.62712   0.00000  Uiso   1.00
C198   C     0.90237   0.83068   0.59900   0.00000  Uiso   1.00
C199   C     0.97275   0.83250   0.60036   0.00000  Uiso   1.00
C200   C     0.01137   0.80589   0.55277   0.00000  Uiso   1.00
C201   C     0.07448   0.81268   0.56306   0.00000  Uiso   1.00
C202   C     0.88250   0.75616   0.65016   0.00000  Uiso   1.00
C203   C     0.84524   0.66539   0.64445   0.00000  Uiso   1.00
C204   C     0.83237   0.60792   0.69665   0.00000  Uiso   1.00
C205   C     0.88159   0.94405   0.61699   0.00000  Uiso   1.00
C206   C     0.84354   0.01124   0.58339   0.00000  Uiso   1.00
C207   C     0.82989   0.11196   0.60768   0.00000  Uiso   1.00
H208   H     0.96412   0.91514   0.74539   0.00000  Uiso   1.00
H209   H     0.07762   0.89652   0.70985   0.00000  Uiso   1.00
H210   H     0.91150   0.75604   0.80150   0.00000  Uiso   1.00
H211   H     0.90981   0.10184   0.74046   0.00000  Uiso   1.00
H212   H     0.19305   0.86161   0.64581   0.00000  Uiso   1.00
H213   H     0.84277   0.56543   0.83907   0.00000  Uiso   1.00
H214   H     0.83920   0.29463   0.71036   0.00000  Uiso   1.00
H215   H     0.88401   0.80558   0.55550   0.00000  Uiso   1.00
H216   H     0.99311   0.78094   0.50954   0.00000  Uiso   1.00
H217   H     0.82700   0.64047   0.60120   0.00000  Uiso   1.00
H218   H     0.82531   0.98627   0.54015   0.00000  Uiso   1.00
H219   H     0.12446   0.76780   0.48323   0.00000  Uiso   1.00
H220   H     0.77418   0.47163   0.67650   0.00000  Uiso   1.00
H221   H     0.77062   0.20082   0.54778   0.00000  Uiso   1.00
O222   O     0.23197   0.80044   0.53772   0.00000  Uiso   1.00
O223   O     0.77241   0.41189   0.79128   0.00000  Uiso   1.00
O224   O     0.76774   0.36856   0.62240   0.00000  Uiso   1.00
N225   N     0.16194   0.84293   0.61385   0.00000  Uiso   1.00
N226   N     0.83445   0.56602   0.79454   0.00000  Uiso   1.00
N227   N     0.83111   0.24774   0.67421   0.00000  Uiso   1.00
N228   N     0.12503   0.79246   0.52637   0.00000  Uiso   1.00
N229   N     0.79755   0.51554   0.70706   0.00000  Uiso   1.00
N230   N     0.79420   0.19726   0.58673   0.00000  Uiso   1.00
C231   C     0.55423   0.10995   0.20188   0.00000  Uiso   1.00
C232   C     0.50367   0.13526   0.15624   0.00000  Uiso   1.00
C233   C     0.44061   0.12843   0.16660   0.00000  Uiso   1.00
C234   C     0.40190   0.15502   0.11904   0.00000  Uiso   1.00
C235   C     0.31982   0.18946   0.05668   0.00000  Uiso   1.00
C236   C     0.59392   0.21159   0.20604   0.00000  Uiso   1.00
C237   C     0.60674   0.26893   0.25827   0.00000  Uiso   1.00
C238   C     0.64402   0.35977   0.25263   0.00000  Uiso   1.00
C239   C     0.70208   0.51268   0.26759   0.00000  Uiso   1.00
C240   C     0.59484   0.02371   0.17287   0.00000  Uiso   1.00
C241   C     0.60844   0.92308   0.19722   0.00000  Uiso   1.00
C242   C     0.64649   0.85574   0.16366   0.00000  Uiso   1.00
C243   C     0.70597   0.71692   0.12712   0.00000  Uiso   1.00
C244   C     0.59763   0.16932   0.09900   0.00000  Uiso   1.00
C245   C     0.52725   0.16750   0.10036   0.00000  Uiso   1.00
C246   C     0.48863   0.19411   0.05277   0.00000  Uiso   1.00
C247   C     0.42552   0.18732   0.06306   0.00000  Uiso   1.00
C248   C     0.61750   0.24384   0.15016   0.00000  Uiso   1.00
C249   C     0.65476   0.33461   0.14445   0.00000  Uiso   1.00
C250   C     0.66763   0.39208   0.19665   0.00000  Uiso   1.00
C251   C     0.61841   0.05595   0.11699   0.00000  Uiso   1.00
C252   C     0.65646   0.98876   0.08339   0.00000  Uiso   1.00
C253   C     0.67011   0.88804   0.10768   0.00000  Uiso   1.00
H254   H     0.53588   0.08486   0.24539   0.00000  Uiso   1.00
H255   H     0.42238   0.10348   0.20985   0.00000  Uiso   1.00
H256   H     0.58850   0.24396   0.30150   0.00000  Uiso   1.00
H257   H     0.59019   0.89816   0.24046   0.00000  Uiso   1.00
H258   H     0.30695   0.13839   0.14581   0.00000  Uiso   1.00
H259   H     0.65723   0.43457   0.33907   0.00000  Uiso   1.00
H260   H     0.66080   0.70537   0.21036   0.00000  Uiso   1.00
H261   H     0.61599   0.19442   0.05550   0.00000  Uiso   1.00
H262   H     0.50689   0.21906   0.00954   0.00000  Uiso   1.00
H263   H     0.67300   0.35953   0.10120   0.00000  Uiso   1.00
H264   H     0.67469   0.01373   0.04015   0.00000  Uiso   1.00
H265   H     0.37554   0.23220   0.98323   0.00000  Uiso   1.00
H266   H     0.72582   0.52837   0.17650   0.00000  Uiso   1.00
H267   H     0.72938   0.79918   0.04778   0.00000  Uiso   1.00
O268   O     0.26803   0.19956   0.03772   0.00000  Uiso   1.00
O269   O     0.72759   0.58811   0.29128   0.00000  Uiso   1.00
O270   O     0.73226   0.63144   0.12240   0.00000  Uiso   1.00
N271   N     0.33806   0.15707   0.11385   0.00000  Uiso   1.00
N272   N     0.66555   0.43398   0.29454   0.00000  Uiso   1.00
N273   N     0.66889   0.75226   0.17421   0.00000  Uiso   1.00
N274   N     0.37497   0.20754   0.02637   0.00000  Uiso   1.00
N275   N     0.70245   0.48446   0.20706   0.00000  Uiso   1.00
N276   N     0.70580   0.80274   0.08673   0.00000  Uiso   1.00
C277   C     0.05423   0.39005   0.79812   0.00000  Uiso   1.00
C278   C     0.00367   0.36474   0.84376   0.00000  Uiso   1.00
C279   C     0.94061   0.37157   0.83340   0.00000  Uiso   1.00
C280   C     0.90190   0.34498   0.88096   0.00000  Uiso   1.00
C281   C     0.81982   0.31054   0.94332   0.00000  Uiso   1.00
C282   C     0.09392   0.28841   0.79396   0.00000  Uiso   1.00
C283   C     0.10674   0.23107   0.74173   0.00000  Uiso   1.00
C284   C     0.14402   0.14023   0.74737   0.00000  Uiso   1.00
C285   C     0.20208   0.98732   0.73241   0.00000  Uiso   1.00
C286   C     0.09484   0.47629   0.82713   0.00000  Uiso   1.00
C287   C     0.10844   0.57692   0.80278   0.00000  Uiso   1.00
C288   C     0.14649   0.64426   0.83634   0.00000  Uiso   1.00
C289   C     0.20597   0.78308   0.87288   0.00000  Uiso   1.00
C290   C     0.09763   0.33068   0.90100   0.00000  Uiso   1.00
C291   C     0.02725   0.33250   0.89964   0.00000  Uiso   1.00
C292   C     0.98863   0.30589   0.94723   0.00000  Uiso   1.00
C293   C     0.92552   0.31268   0.93694   0.00000  Uiso   1.00
C294   C     0.11750   0.25616   0.84984   0.00000  Uiso   1.00
C295   C     0.15476   0.16539   0.85555   0.00000  Uiso   1.00
C296   C     0.16763   0.10792   0.80335   0.00000  Uiso   1.00
C297   C     0.11841   0.44405   0.88301   0.00000  Uiso   1.00
C298   C     0.15646   0.51124   0.91661   0.00000  Uiso   1.00
C299   C     0.17011   0.61196   0.89232   0.00000  Uiso   1.00
H300   H     0.03588   0.41514   0.75461   0.00000  Uiso   1.00
H301   H     0.92238   0.39652   0.79015   0.00000  Uiso   1.00
H302   H     0.08850   0.25604   0.69850   0.00000  Uiso   1.00
H303   H     0.09019   0.60184   0.75954   0.00000  Uiso   1.00
H304   H     0.80695   0.36161   0.85419   0.00000  Uiso   1.00
H305   H     0.15723   0.06543   0.66093   0.00000  Uiso   1.00
H306   H     0.16080   0.79463   0.78964   0.00000  Uiso   1.00
H307   H     0.11599   0.30558   0.94450   0.00000  Uiso   1.00
H308   H     0.00689   0.28094   0.99046   0.00000  Uiso   1.00
H309   H     0.17300   0.14047   0.89880   0.00000  Uiso   1.00
H310   H     0.17469   0.48627   0.95985   0.00000  Uiso   1.00
H311   H     0.87554   0.26780   0.01677   0.00000  Uiso   1.00
H312   H     0.22582   0.97163   0.82350   0.00000  Uiso   1.00
H313   H     0.22938   0.70082   0.95222   0.00000  Uiso   1.00
O314   O     0.76803   0.30044   0.96228   0.00000  Uiso   1.00
O315   O     0.22759   0.91189   0.70872   0.00000  Uiso   1.00
O316   O     0.23226   0.86856   0.87760   0.00000  Uiso   1.00
N317   N     0.83806   0.34293   0.88615   0.00000  Uiso   1.00
N318   N     0.16555   0.06602   0.70546   0.00000  Uiso   1.00
N319   N     0.16889   0.74774   0.82579   0.00000  Uiso   1.00
N320   N     0.87497   0.29246   0.97363   0.00000  Uiso   1.00
N321   N     0.20245   0.01554   0.79294   0.00000  Uiso   1.00
N322   N     0.20580   0.69726   0.91327   0.00000  Uiso   1.00
C323   C     0.44577   0.60995   0.29812   0.00000  Uiso   1.00
C324   C     0.49633   0.63526   0.34376   0.00000  Uiso   1.00
C325   C     0.55939   0.62843   0.33340   0.00000  Uiso   1.00
C326   C     0.59810   0.65502   0.38096   0.00000  Uiso   1.00
C327   C     0.68018   0.68946   0.44332   0.00000  Uiso   1.00
C328   C     0.40608   0.71159   0.29396   0.00000  Uiso   1.00
C329   C     0.39326   0.76893   0.24173   0.00000  Uiso   1.00
C330   C     0.35598   0.85977   0.24737   0.00000  Uiso   1.00
C331   C     0.29792   0.01268   0.23241   0.00000  Uiso   1.00
C332   C     0.40516   0.52371   0.32713   0.00000  Uiso   1.00
C333   C     0.39156   0.42308   0.30278   0.00000  Uiso   1.00
C334   C     0.35351   0.35574   0.33634   0.00000  Uiso   1.00
C335   C     0.29403   0.21692   0.37288   0.00000  Uiso   1.00
C336   C     0.40237   0.66932   0.40100   0.00000  Uiso   1.00
C337   C     0.47275   0.66750   0.39964   0.00000  Uiso   1.00
C338   C     0.51137   0.69411   0.44723   0.00000  Uiso   1.00
C339   C     0.57448   0.68732   0.43694   0.00000  Uiso   1.00
C340   C     0.38250   0.74384   0.34984   0.00000  Uiso   1.00
C341   C     0.34524   0.83461   0.35555   0.00000  Uiso   1.00
C342   C     0.33237   0.89208   0.30335   0.00000  Uiso   1.00
C343   C     0.38159   0.55595   0.38301   0.00000  Uiso   1.00
C344   C     0.34354   0.48876   0.41661   0.00000  Uiso   1.00
C345   C     0.32989   0.38804   0.39232   0.00000  Uiso   1.00
H346   H     0.46412   0.58486   0.25461   0.00000  Uiso   1.00
H347   H     0.57762   0.60348   0.29015   0.00000  Uiso   1.00
H348   H     0.41150   0.74396   0.19850   0.00000  Uiso   1.00
H349   H     0.40981   0.39816   0.25954   0.00000  Uiso   1.00
H350   H     0.69305   0.63839   0.35419   0.00000  Uiso   1.00
H351   H     0.34277   0.93457   0.16093   0.00000  Uiso   1.00
H352   H     0.33920   0.20537   0.28964   0.00000  Uiso   1.00
H353   H     0.38401   0.69442   0.44450   0.00000  Uiso   1.00
H354   H     0.49311   0.71906   0.49046   0.00000  Uiso   1.00
H355   H     0.32700   0.85953   0.39880   0.00000  Uiso   1.00
H356   H     0.32531   0.51373   0.45985   0.00000  Uiso   1.00
H357   H     0.62446   0.73220   0.51677   0.00000  Uiso   1.00
H358   H     0.27418   0.02837   0.32350   0.00000  Uiso   1.00
H359   H     0.27062   0.29918   0.45222   0.00000  Uiso   1.00
O360   O     0.73197   0.69956   0.46228   0.00000  Uiso   1.00
O361   O     0.27241   0.08811   0.20872   0.00000  Uiso   1.00
O362   O     0.26774   0.13144   0.37760   0.00000  Uiso   1.00
N363   N     0.66194   0.65707   0.38615   0.00000  Uiso   1.00
N364   N     0.33445   0.93398   0.20546   0.00000  Uiso   1.00
N365   N     0.33111   0.25226   0.32579   0.00000  Uiso   1.00
N366   N     0.62503   0.70754   0.47363   0.00000  Uiso   1.00
N367   N     0.29755   0.98446   0.29294   0.00000  Uiso   1.00
N368   N     0.29420   0.30274   0.41327   0.00000  Uiso   1.00
