data_job_03256
_audit_creation_date              2018-12-19
_audit_creation_method            'Materials Studio'
_symmetry_space_group_name_H-M    'P1'
_symmetry_Int_Tables_number       1
_symmetry_cell_setting            triclinic
loop_
_symmetry_equiv_pos_as_xyz
  x,y,z
_cell_length_a                    21.2603
_cell_length_b                    23.2287
_cell_length_c                    13.1753
_cell_angle_alpha                 90.0000
_cell_angle_beta                  147.4035
_cell_angle_gamma                 90.0000
loop_
_atom_site_label
_atom_site_type_symbol
_atom_site_fract_x
_atom_site_fract_y
_atom_site_fract_z
_atom_site_U_iso_or_equiv
_atom_site_adp_type
_atom_site_occupancy
C1     C     0.18093   0.55553   0.58998   0.00000  Uiso   1.00
C2     C     0.16211   0.51365   0.47676   0.00000  Uiso   1.00
C3     C     0.15305   0.45427   0.47287   0.00000  Uiso   1.00
C4     C     0.13591   0.42355   0.36041   0.00000  Uiso   1.00
C5     C     0.10781   0.35432   0.20047   0.00000  Uiso   1.00
C6     C     0.08015   0.59833   0.44797   0.00000  Uiso   1.00
C7     C     0.00219   0.61015   0.41989   0.00000  Uiso   1.00
C8     C     0.91607   0.65072   0.28321   0.00000  Uiso   1.00
C9     C     0.76078   0.71298   0.07867   0.00000  Uiso   1.00
C10    C     0.29071   0.58957   0.71308   0.00000  Uiso   1.00
C11    C     0.38979   0.59404   0.90790   0.00000  Uiso   1.00
C12    C     0.48094   0.62725   0.99442   0.00000  Uiso   1.00
C13    C     0.65258   0.67592   0.20149   0.00000  Uiso   1.00
C14    C     0.16662   0.60657   0.39720   0.00000  Uiso   1.00
C15    C     0.15433   0.54138   0.37205   0.00000  Uiso   1.00
C16    C     0.13721   0.51075   0.25958   0.00000  Uiso   1.00
C17    C     0.12813   0.45133   0.25552   0.00000  Uiso   1.00
C18    C     0.07237   0.62606   0.34326   0.00000  Uiso   1.00
C19    C     0.98635   0.66663   0.20660   0.00000  Uiso   1.00
C20    C     0.90828   0.67850   0.17831   0.00000  Uiso   1.00
C21    C     0.28294   0.61730   0.60837   0.00000  Uiso   1.00
C22    C     0.37395   0.65052   0.69460   0.00000  Uiso   1.00
C23    C     0.47315   0.65503   0.88952   0.00000  Uiso   1.00
H24    H     0.18698   0.53394   0.67150   0.00000  Uiso   1.00
H25    H     0.15906   0.43283   0.55391   0.00000  Uiso   1.00
H26    H     0.00824   0.58869   0.50096   0.00000  Uiso   1.00
H27    H     0.39577   0.57258   0.98888   0.00000  Uiso   1.00
H28    H     0.12463   0.33295   0.37731   0.00000  Uiso   1.00
H29    H     0.80664   0.66161   0.26570   0.00000  Uiso   1.00
H30    H     0.62384   0.62764   0.29459   0.00000  Uiso   1.00
H31    H     0.16056   0.62816   0.31567   0.00000  Uiso   1.00
H32    H     0.13120   0.53222   0.17856   0.00000  Uiso   1.00
H33    H     0.98037   0.68808   0.12561   0.00000  Uiso   1.00
H34    H     0.36791   0.67197   0.61353   0.00000  Uiso   1.00
H35    H     0.10201   0.41362   0.07265   0.00000  Uiso   1.00
H36    H     0.78402   0.74228   0.96106   0.00000  Uiso   1.00
H37    H     0.60122   0.70831   0.98994   0.00000  Uiso   1.00
O38    O     0.09444   0.30847   0.14115   0.00000  Uiso   1.00
O39    O     0.67726   0.73966   0.99477   0.00000  Uiso   1.00
O40    O     0.74940   0.69510   0.34464   0.00000  Uiso   1.00
N41    N     0.12336   0.36511   0.32445   0.00000  Uiso   1.00
N42    N     0.82604   0.67237   0.22009   0.00000  Uiso   1.00
N43    N     0.59004   0.64063   0.18201   0.00000  Uiso   1.00
N44    N     0.11119   0.40851   0.16052   0.00000  Uiso   1.00
N45    N     0.81387   0.71578   0.05616   0.00000  Uiso   1.00
N46    N     0.57787   0.68404   0.01808   0.00000  Uiso   1.00
C47    C     0.81907   0.05553   0.91002   0.00000  Uiso   1.00
C48    C     0.83789   0.01365   0.02324   0.00000  Uiso   1.00
C49    C     0.84695   0.95427   0.02713   0.00000  Uiso   1.00
C50    C     0.86409   0.92355   0.13959   0.00000  Uiso   1.00
C51    C     0.89219   0.85432   0.29953   0.00000  Uiso   1.00
C52    C     0.91985   0.09833   0.05203   0.00000  Uiso   1.00
C53    C     0.99781   0.11015   0.08011   0.00000  Uiso   1.00
C54    C     0.08393   0.15072   0.21679   0.00000  Uiso   1.00
C55    C     0.23922   0.21298   0.42133   0.00000  Uiso   1.00
C56    C     0.70929   0.08957   0.78692   0.00000  Uiso   1.00
C57    C     0.61021   0.09404   0.59210   0.00000  Uiso   1.00
C58    C     0.51906   0.12725   0.50558   0.00000  Uiso   1.00
C59    C     0.34742   0.17592   0.29851   0.00000  Uiso   1.00
C60    C     0.83338   0.10657   0.10280   0.00000  Uiso   1.00
C61    C     0.84567   0.04138   0.12795   0.00000  Uiso   1.00
C62    C     0.86279   0.01075   0.24042   0.00000  Uiso   1.00
C63    C     0.87187   0.95133   0.24448   0.00000  Uiso   1.00
C64    C     0.92763   0.12606   0.15674   0.00000  Uiso   1.00
C65    C     0.01365   0.16663   0.29340   0.00000  Uiso   1.00
C66    C     0.09172   0.17850   0.32169   0.00000  Uiso   1.00
C67    C     0.71706   0.11730   0.89163   0.00000  Uiso   1.00
C68    C     0.62605   0.15052   0.80540   0.00000  Uiso   1.00
C69    C     0.52685   0.15503   0.61048   0.00000  Uiso   1.00
H70    H     0.81302   0.03394   0.82850   0.00000  Uiso   1.00
H71    H     0.84094   0.93283   0.94609   0.00000  Uiso   1.00
H72    H     0.99176   0.08869   0.99904   0.00000  Uiso   1.00
H73    H     0.60423   0.07258   0.51112   0.00000  Uiso   1.00
H74    H     0.87537   0.83295   0.12269   0.00000  Uiso   1.00
H75    H     0.19336   0.16161   0.23430   0.00000  Uiso   1.00
H76    H     0.37616   0.12764   0.20541   0.00000  Uiso   1.00
H77    H     0.83944   0.12816   0.18433   0.00000  Uiso   1.00
H78    H     0.86880   0.03222   0.32144   0.00000  Uiso   1.00
H79    H     0.01963   0.18808   0.37439   0.00000  Uiso   1.00
H80    H     0.63209   0.17197   0.88647   0.00000  Uiso   1.00
H81    H     0.89799   0.91362   0.42735   0.00000  Uiso   1.00
H82    H     0.21598   0.24228   0.53894   0.00000  Uiso   1.00
H83    H     0.39878   0.20831   0.51006   0.00000  Uiso   1.00
O84    O     0.90556   0.80847   0.35885   0.00000  Uiso   1.00
O85    O     0.32274   0.23966   0.50523   0.00000  Uiso   1.00
O86    O     0.25060   0.19510   0.15536   0.00000  Uiso   1.00
N87    N     0.87664   0.86511   0.17555   0.00000  Uiso   1.00
N88    N     0.17396   0.17237   0.27991   0.00000  Uiso   1.00
N89    N     0.40996   0.14063   0.31799   0.00000  Uiso   1.00
N90    N     0.88881   0.90851   0.33948   0.00000  Uiso   1.00
N91    N     0.18613   0.21578   0.44384   0.00000  Uiso   1.00
N92    N     0.42213   0.18404   0.48192   0.00000  Uiso   1.00
C93    C     0.81907   0.44447   0.41002   0.00000  Uiso   1.00
C94    C     0.83789   0.48635   0.52324   0.00000  Uiso   1.00
C95    C     0.84695   0.54573   0.52713   0.00000  Uiso   1.00
C96    C     0.86409   0.57645   0.63959   0.00000  Uiso   1.00
C97    C     0.89219   0.64568   0.79953   0.00000  Uiso   1.00
C98    C     0.91985   0.40167   0.55203   0.00000  Uiso   1.00
C99    C     0.99781   0.38985   0.58011   0.00000  Uiso   1.00
C100   C     0.08393   0.34928   0.71679   0.00000  Uiso   1.00
C101   C     0.23922   0.28702   0.92133   0.00000  Uiso   1.00
C102   C     0.70929   0.41043   0.28692   0.00000  Uiso   1.00
C103   C     0.61021   0.40596   0.09210   0.00000  Uiso   1.00
C104   C     0.51906   0.37275   0.00558   0.00000  Uiso   1.00
C105   C     0.34742   0.32408   0.79851   0.00000  Uiso   1.00
C106   C     0.83338   0.39343   0.60280   0.00000  Uiso   1.00
C107   C     0.84567   0.45862   0.62795   0.00000  Uiso   1.00
C108   C     0.86279   0.48925   0.74042   0.00000  Uiso   1.00
C109   C     0.87187   0.54867   0.74448   0.00000  Uiso   1.00
C110   C     0.92763   0.37394   0.65674   0.00000  Uiso   1.00
C111   C     0.01365   0.33337   0.79340   0.00000  Uiso   1.00
C112   C     0.09172   0.32150   0.82169   0.00000  Uiso   1.00
C113   C     0.71706   0.38270   0.39163   0.00000  Uiso   1.00
C114   C     0.62605   0.34948   0.30540   0.00000  Uiso   1.00
C115   C     0.52685   0.34497   0.11048   0.00000  Uiso   1.00
H116   H     0.81302   0.46606   0.32850   0.00000  Uiso   1.00
H117   H     0.84094   0.56717   0.44609   0.00000  Uiso   1.00
H118   H     0.99176   0.41131   0.49904   0.00000  Uiso   1.00
H119   H     0.60423   0.42742   0.01112   0.00000  Uiso   1.00
H120   H     0.87537   0.66705   0.62269   0.00000  Uiso   1.00
H121   H     0.19336   0.33839   0.73430   0.00000  Uiso   1.00
H122   H     0.37616   0.37236   0.70541   0.00000  Uiso   1.00
H123   H     0.83944   0.37184   0.68433   0.00000  Uiso   1.00
H124   H     0.86880   0.46778   0.82144   0.00000  Uiso   1.00
H125   H     0.01963   0.31192   0.87439   0.00000  Uiso   1.00
H126   H     0.63209   0.32803   0.38647   0.00000  Uiso   1.00
H127   H     0.89799   0.58638   0.92735   0.00000  Uiso   1.00
H128   H     0.21598   0.25772   0.03894   0.00000  Uiso   1.00
H129   H     0.39878   0.29169   0.01006   0.00000  Uiso   1.00
O130   O     0.90556   0.69153   0.85885   0.00000  Uiso   1.00
O131   O     0.32274   0.26034   0.00523   0.00000  Uiso   1.00
O132   O     0.25060   0.30490   0.65536   0.00000  Uiso   1.00
N133   N     0.87664   0.63489   0.67555   0.00000  Uiso   1.00
N134   N     0.17396   0.32763   0.77991   0.00000  Uiso   1.00
N135   N     0.40996   0.35937   0.81799   0.00000  Uiso   1.00
N136   N     0.88881   0.59149   0.83948   0.00000  Uiso   1.00
N137   N     0.18613   0.28422   0.94384   0.00000  Uiso   1.00
N138   N     0.42213   0.31596   0.98192   0.00000  Uiso   1.00
C139   C     0.18093   0.94447   0.08998   0.00000  Uiso   1.00
C140   C     0.16211   0.98635   0.97676   0.00000  Uiso   1.00
C141   C     0.15305   0.04573   0.97287   0.00000  Uiso   1.00
C142   C     0.13591   0.07645   0.86041   0.00000  Uiso   1.00
C143   C     0.10781   0.14568   0.70047   0.00000  Uiso   1.00
C144   C     0.08015   0.90167   0.94797   0.00000  Uiso   1.00
C145   C     0.00219   0.88985   0.91989   0.00000  Uiso   1.00
C146   C     0.91607   0.84928   0.78321   0.00000  Uiso   1.00
C147   C     0.76078   0.78702   0.57867   0.00000  Uiso   1.00
C148   C     0.29071   0.91043   0.21308   0.00000  Uiso   1.00
C149   C     0.38979   0.90596   0.40790   0.00000  Uiso   1.00
C150   C     0.48094   0.87275   0.49442   0.00000  Uiso   1.00
C151   C     0.65258   0.82408   0.70149   0.00000  Uiso   1.00
C152   C     0.16662   0.89343   0.89720   0.00000  Uiso   1.00
C153   C     0.15433   0.95862   0.87205   0.00000  Uiso   1.00
C154   C     0.13721   0.98925   0.75958   0.00000  Uiso   1.00
C155   C     0.12813   0.04867   0.75552   0.00000  Uiso   1.00
C156   C     0.07237   0.87394   0.84326   0.00000  Uiso   1.00
C157   C     0.98635   0.83337   0.70660   0.00000  Uiso   1.00
C158   C     0.90828   0.82150   0.67831   0.00000  Uiso   1.00
C159   C     0.28294   0.88270   0.10837   0.00000  Uiso   1.00
C160   C     0.37395   0.84948   0.19460   0.00000  Uiso   1.00
C161   C     0.47315   0.84497   0.38952   0.00000  Uiso   1.00
H162   H     0.18698   0.96606   0.17150   0.00000  Uiso   1.00
H163   H     0.15906   0.06717   0.05391   0.00000  Uiso   1.00
H164   H     0.00824   0.91131   0.00096   0.00000  Uiso   1.00
H165   H     0.39577   0.92742   0.48888   0.00000  Uiso   1.00
H166   H     0.12463   0.16705   0.87731   0.00000  Uiso   1.00
H167   H     0.80664   0.83839   0.76570   0.00000  Uiso   1.00
H168   H     0.62384   0.87236   0.79459   0.00000  Uiso   1.00
H169   H     0.16056   0.87184   0.81567   0.00000  Uiso   1.00
H170   H     0.13120   0.96778   0.67856   0.00000  Uiso   1.00
H171   H     0.98037   0.81192   0.62561   0.00000  Uiso   1.00
H172   H     0.36791   0.82803   0.11353   0.00000  Uiso   1.00
H173   H     0.10201   0.08638   0.57265   0.00000  Uiso   1.00
H174   H     0.78402   0.75772   0.46106   0.00000  Uiso   1.00
H175   H     0.60122   0.79169   0.48994   0.00000  Uiso   1.00
O176   O     0.09444   0.19153   0.64115   0.00000  Uiso   1.00
O177   O     0.67726   0.76034   0.49477   0.00000  Uiso   1.00
O178   O     0.74940   0.80490   0.84464   0.00000  Uiso   1.00
N179   N     0.12336   0.13489   0.82445   0.00000  Uiso   1.00
N180   N     0.82604   0.82763   0.72009   0.00000  Uiso   1.00
N181   N     0.59004   0.85937   0.68201   0.00000  Uiso   1.00
N182   N     0.11119   0.09149   0.66052   0.00000  Uiso   1.00
N183   N     0.81387   0.78422   0.55616   0.00000  Uiso   1.00
N184   N     0.57787   0.81596   0.51808   0.00000  Uiso   1.00
