data_job_02642
_audit_creation_date              2018-12-19
_audit_creation_method            'Materials Studio'
_symmetry_space_group_name_H-M    'P1'
_symmetry_Int_Tables_number       1
_symmetry_cell_setting            triclinic
loop_
_symmetry_equiv_pos_as_xyz
  x,y,z
_cell_length_a                    29.8727
_cell_length_b                    9.5543
_cell_length_c                    20.4402
_cell_angle_alpha                 90.0000
_cell_angle_beta                  90.0000
_cell_angle_gamma                 90.0000
loop_
_atom_site_label
_atom_site_type_symbol
_atom_site_fract_x
_atom_site_fract_y
_atom_site_fract_z
_atom_site_U_iso_or_equiv
_atom_site_adp_type
_atom_site_occupancy
C1     C     0.88574   0.99963   0.77839   0.00000  Uiso   1.00
C2     C     0.86099   0.10301   0.82224   0.00000  Uiso   1.00
C3     C     0.86512   0.24761   0.82018   0.00000  Uiso   1.00
C4     C     0.83961   0.32383   0.86440   0.00000  Uiso   1.00
C5     C     0.80555   0.49440   0.92572   0.00000  Uiso   1.00
C6     C     0.91047   0.90035   0.82428   0.00000  Uiso   1.00
C7     C     0.95619   0.87455   0.82393   0.00000  Uiso   1.00
C8     C     0.97233   0.78014   0.86987   0.00000  Uiso   1.00
C9     C     0.01508   0.63601   0.93432   0.00000  Uiso   1.00
C10    C     0.84971   0.91207   0.74497   0.00000  Uiso   1.00
C11    C     0.84434   0.89610   0.67794   0.00000  Uiso   1.00
C12    C     0.80933   0.81153   0.65711   0.00000  Uiso   1.00
C13    C     0.75773   0.68560   0.59843   0.00000  Uiso   1.00
C14    C     0.83312   0.87783   0.86057   0.00000  Uiso   1.00
C15    C     0.83241   0.03684   0.86688   0.00000  Uiso   1.00
C16    C     0.80689   0.11285   0.91111   0.00000  Uiso   1.00
C17    C     0.81098   0.25755   0.90912   0.00000  Uiso   1.00
C18    C     0.88189   0.83419   0.86892   0.00000  Uiso   1.00
C19    C     0.89797   0.73979   0.91486   0.00000  Uiso   1.00
C20    C     0.94370   0.71386   0.91459   0.00000  Uiso   1.00
C21    C     0.82112   0.84591   0.78961   0.00000  Uiso   1.00
C22    C     0.78612   0.76134   0.76888   0.00000  Uiso   1.00
C23    C     0.78070   0.74525   0.70183   0.00000  Uiso   1.00
H24    H     0.90800   0.05113   0.74363   0.00000  Uiso   1.00
H25    H     0.88724   0.29878   0.78563   0.00000  Uiso   1.00
H26    H     0.97830   0.92575   0.78938   0.00000  Uiso   1.00
H27    H     0.86647   0.94731   0.64342   0.00000  Uiso   1.00
H28    H     0.85164   0.54415   0.85189   0.00000  Uiso   1.00
H29    H     0.04364   0.75758   0.85978   0.00000  Uiso   1.00
H30    H     0.80782   0.80303   0.55199   0.00000  Uiso   1.00
H31    H     0.81087   0.82631   0.89533   0.00000  Uiso   1.00
H32    H     0.78478   0.06163   0.94565   0.00000  Uiso   1.00
H33    H     0.87584   0.68860   0.94940   0.00000  Uiso   1.00
H34    H     0.76401   0.71016   0.80344   0.00000  Uiso   1.00
H35    H     0.76848   0.35168   0.98178   0.00000  Uiso   1.00
H36    H     0.96048   0.56510   0.98966   0.00000  Uiso   1.00
H37    H     0.72465   0.61055   0.68187   0.00000  Uiso   1.00
O38    O     0.79466   0.60676   0.94722   0.00000  Uiso   1.00
O39    O     0.04655   0.57480   0.95755   0.00000  Uiso   1.00
O40    O     0.73716   0.63443   0.55374   0.00000  Uiso   1.00
N41    N     0.83564   0.46656   0.87555   0.00000  Uiso   1.00
N42    N     0.01515   0.73118   0.88293   0.00000  Uiso   1.00
N43    N     0.79468   0.77364   0.59517   0.00000  Uiso   1.00
N44    N     0.79089   0.36299   0.94543   0.00000  Uiso   1.00
N45    N     0.97040   0.62761   0.95281   0.00000  Uiso   1.00
N46    N     0.74993   0.67007   0.66505   0.00000  Uiso   1.00
C47    C     0.61426   0.50037   0.27839   0.00000  Uiso   1.00
C48    C     0.63901   0.39699   0.32224   0.00000  Uiso   1.00
C49    C     0.63488   0.25239   0.32018   0.00000  Uiso   1.00
C50    C     0.66039   0.17617   0.36440   0.00000  Uiso   1.00
C51    C     0.69445   0.00560   0.42572   0.00000  Uiso   1.00
C52    C     0.58953   0.59965   0.32428   0.00000  Uiso   1.00
C53    C     0.54381   0.62545   0.32393   0.00000  Uiso   1.00
C54    C     0.52767   0.71986   0.36987   0.00000  Uiso   1.00
C55    C     0.48492   0.86399   0.43432   0.00000  Uiso   1.00
C56    C     0.65029   0.58793   0.24497   0.00000  Uiso   1.00
C57    C     0.65566   0.60390   0.17794   0.00000  Uiso   1.00
C58    C     0.69067   0.68847   0.15711   0.00000  Uiso   1.00
C59    C     0.74227   0.81440   0.09843   0.00000  Uiso   1.00
C60    C     0.66688   0.62217   0.36057   0.00000  Uiso   1.00
C61    C     0.66759   0.46316   0.36688   0.00000  Uiso   1.00
C62    C     0.69311   0.38715   0.41111   0.00000  Uiso   1.00
C63    C     0.68902   0.24245   0.40912   0.00000  Uiso   1.00
C64    C     0.61811   0.66581   0.36892   0.00000  Uiso   1.00
C65    C     0.60203   0.76021   0.41486   0.00000  Uiso   1.00
C66    C     0.55630   0.78614   0.41459   0.00000  Uiso   1.00
C67    C     0.67888   0.65409   0.28961   0.00000  Uiso   1.00
C68    C     0.71388   0.73866   0.26888   0.00000  Uiso   1.00
C69    C     0.71930   0.75475   0.20183   0.00000  Uiso   1.00
H70    H     0.59200   0.44887   0.24363   0.00000  Uiso   1.00
H71    H     0.61276   0.20122   0.28563   0.00000  Uiso   1.00
H72    H     0.52170   0.57425   0.28938   0.00000  Uiso   1.00
H73    H     0.63353   0.55269   0.14342   0.00000  Uiso   1.00
H74    H     0.64836   0.95585   0.35189   0.00000  Uiso   1.00
H75    H     0.45636   0.74242   0.35978   0.00000  Uiso   1.00
H76    H     0.69218   0.69697   0.05199   0.00000  Uiso   1.00
H77    H     0.68913   0.67369   0.39533   0.00000  Uiso   1.00
H78    H     0.71522   0.43837   0.44565   0.00000  Uiso   1.00
H79    H     0.62416   0.81140   0.44940   0.00000  Uiso   1.00
H80    H     0.73599   0.78984   0.30344   0.00000  Uiso   1.00
H81    H     0.73152   0.14832   0.48178   0.00000  Uiso   1.00
H82    H     0.53952   0.93490   0.48966   0.00000  Uiso   1.00
H83    H     0.77535   0.88945   0.18187   0.00000  Uiso   1.00
O84    O     0.70534   0.89324   0.44722   0.00000  Uiso   1.00
O85    O     0.45345   0.92520   0.45755   0.00000  Uiso   1.00
O86    O     0.76284   0.86557   0.05374   0.00000  Uiso   1.00
N87    N     0.66436   0.03344   0.37555   0.00000  Uiso   1.00
N88    N     0.48485   0.76882   0.38293   0.00000  Uiso   1.00
N89    N     0.70532   0.72636   0.09517   0.00000  Uiso   1.00
N90    N     0.70911   0.13701   0.44543   0.00000  Uiso   1.00
N91    N     0.52960   0.87239   0.45281   0.00000  Uiso   1.00
N92    N     0.75007   0.82993   0.16505   0.00000  Uiso   1.00
C93    C     0.11426   0.99963   0.72161   0.00000  Uiso   1.00
C94    C     0.13901   0.10301   0.67776   0.00000  Uiso   1.00
C95    C     0.13488   0.24761   0.67982   0.00000  Uiso   1.00
C96    C     0.16039   0.32383   0.63560   0.00000  Uiso   1.00
C97    C     0.19445   0.49440   0.57428   0.00000  Uiso   1.00
C98    C     0.08953   0.90035   0.67572   0.00000  Uiso   1.00
C99    C     0.04381   0.87455   0.67607   0.00000  Uiso   1.00
C100   C     0.02767   0.78014   0.63013   0.00000  Uiso   1.00
C101   C     0.98492   0.63601   0.56568   0.00000  Uiso   1.00
C102   C     0.15029   0.91207   0.75503   0.00000  Uiso   1.00
C103   C     0.15566   0.89610   0.82206   0.00000  Uiso   1.00
C104   C     0.19067   0.81153   0.84289   0.00000  Uiso   1.00
C105   C     0.24227   0.68560   0.90157   0.00000  Uiso   1.00
C106   C     0.16688   0.87783   0.63943   0.00000  Uiso   1.00
C107   C     0.16759   0.03684   0.63312   0.00000  Uiso   1.00
C108   C     0.19311   0.11285   0.58889   0.00000  Uiso   1.00
C109   C     0.18902   0.25755   0.59088   0.00000  Uiso   1.00
C110   C     0.11811   0.83419   0.63108   0.00000  Uiso   1.00
C111   C     0.10203   0.73979   0.58514   0.00000  Uiso   1.00
C112   C     0.05630   0.71386   0.58541   0.00000  Uiso   1.00
C113   C     0.17888   0.84591   0.71039   0.00000  Uiso   1.00
C114   C     0.21388   0.76134   0.73112   0.00000  Uiso   1.00
C115   C     0.21930   0.74525   0.79817   0.00000  Uiso   1.00
H116   H     0.09200   0.05113   0.75637   0.00000  Uiso   1.00
H117   H     0.11276   0.29878   0.71437   0.00000  Uiso   1.00
H118   H     0.02170   0.92575   0.71062   0.00000  Uiso   1.00
H119   H     0.13353   0.94731   0.85658   0.00000  Uiso   1.00
H120   H     0.14836   0.54415   0.64811   0.00000  Uiso   1.00
H121   H     0.95636   0.75758   0.64022   0.00000  Uiso   1.00
H122   H     0.19218   0.80303   0.94801   0.00000  Uiso   1.00
H123   H     0.18913   0.82631   0.60467   0.00000  Uiso   1.00
H124   H     0.21522   0.06163   0.55435   0.00000  Uiso   1.00
H125   H     0.12416   0.68860   0.55060   0.00000  Uiso   1.00
H126   H     0.23599   0.71016   0.69656   0.00000  Uiso   1.00
H127   H     0.23152   0.35168   0.51822   0.00000  Uiso   1.00
H128   H     0.03952   0.56510   0.51034   0.00000  Uiso   1.00
H129   H     0.27535   0.61055   0.81813   0.00000  Uiso   1.00
O130   O     0.20534   0.60676   0.55278   0.00000  Uiso   1.00
O131   O     0.95345   0.57480   0.54245   0.00000  Uiso   1.00
O132   O     0.26284   0.63443   0.94626   0.00000  Uiso   1.00
N133   N     0.16436   0.46656   0.62445   0.00000  Uiso   1.00
N134   N     0.98485   0.73118   0.61707   0.00000  Uiso   1.00
N135   N     0.20532   0.77364   0.90483   0.00000  Uiso   1.00
N136   N     0.20911   0.36299   0.55457   0.00000  Uiso   1.00
N137   N     0.02960   0.62761   0.54719   0.00000  Uiso   1.00
N138   N     0.25007   0.67007   0.83495   0.00000  Uiso   1.00
C139   C     0.38574   0.50037   0.22161   0.00000  Uiso   1.00
C140   C     0.36099   0.39699   0.17776   0.00000  Uiso   1.00
C141   C     0.36512   0.25239   0.17982   0.00000  Uiso   1.00
C142   C     0.33961   0.17617   0.13560   0.00000  Uiso   1.00
C143   C     0.30555   0.00560   0.07428   0.00000  Uiso   1.00
C144   C     0.41047   0.59965   0.17572   0.00000  Uiso   1.00
C145   C     0.45619   0.62545   0.17607   0.00000  Uiso   1.00
C146   C     0.47233   0.71986   0.13013   0.00000  Uiso   1.00
C147   C     0.51508   0.86399   0.06568   0.00000  Uiso   1.00
C148   C     0.34971   0.58793   0.25503   0.00000  Uiso   1.00
C149   C     0.34434   0.60390   0.32206   0.00000  Uiso   1.00
C150   C     0.30933   0.68847   0.34289   0.00000  Uiso   1.00
C151   C     0.25773   0.81440   0.40157   0.00000  Uiso   1.00
C152   C     0.33312   0.62217   0.13943   0.00000  Uiso   1.00
C153   C     0.33241   0.46316   0.13312   0.00000  Uiso   1.00
C154   C     0.30689   0.38715   0.08889   0.00000  Uiso   1.00
C155   C     0.31098   0.24245   0.09088   0.00000  Uiso   1.00
C156   C     0.38189   0.66581   0.13108   0.00000  Uiso   1.00
C157   C     0.39797   0.76021   0.08514   0.00000  Uiso   1.00
C158   C     0.44370   0.78614   0.08541   0.00000  Uiso   1.00
C159   C     0.32112   0.65409   0.21039   0.00000  Uiso   1.00
C160   C     0.28612   0.73866   0.23112   0.00000  Uiso   1.00
C161   C     0.28070   0.75475   0.29817   0.00000  Uiso   1.00
H162   H     0.40800   0.44887   0.25637   0.00000  Uiso   1.00
H163   H     0.38724   0.20122   0.21437   0.00000  Uiso   1.00
H164   H     0.47830   0.57425   0.21062   0.00000  Uiso   1.00
H165   H     0.36647   0.55269   0.35658   0.00000  Uiso   1.00
H166   H     0.35164   0.95585   0.14811   0.00000  Uiso   1.00
H167   H     0.54364   0.74242   0.14022   0.00000  Uiso   1.00
H168   H     0.30782   0.69697   0.44801   0.00000  Uiso   1.00
H169   H     0.31087   0.67369   0.10467   0.00000  Uiso   1.00
H170   H     0.28478   0.43837   0.05435   0.00000  Uiso   1.00
H171   H     0.37584   0.81140   0.05060   0.00000  Uiso   1.00
H172   H     0.26401   0.78984   0.19656   0.00000  Uiso   1.00
H173   H     0.26848   0.14832   0.01822   0.00000  Uiso   1.00
H174   H     0.46048   0.93490   0.01034   0.00000  Uiso   1.00
H175   H     0.22465   0.88945   0.31813   0.00000  Uiso   1.00
O176   O     0.29466   0.89324   0.05278   0.00000  Uiso   1.00
O177   O     0.54655   0.92520   0.04245   0.00000  Uiso   1.00
O178   O     0.23716   0.86557   0.44626   0.00000  Uiso   1.00
N179   N     0.33564   0.03344   0.12445   0.00000  Uiso   1.00
N180   N     0.51515   0.76882   0.11707   0.00000  Uiso   1.00
N181   N     0.29468   0.72636   0.40483   0.00000  Uiso   1.00
N182   N     0.29089   0.13701   0.05457   0.00000  Uiso   1.00
N183   N     0.47040   0.87239   0.04719   0.00000  Uiso   1.00
N184   N     0.24993   0.82993   0.33495   0.00000  Uiso   1.00
C185   C     0.11426   0.00037   0.22161   0.00000  Uiso   1.00
C186   C     0.13901   0.89699   0.17776   0.00000  Uiso   1.00
C187   C     0.13488   0.75239   0.17982   0.00000  Uiso   1.00
C188   C     0.16039   0.67617   0.13560   0.00000  Uiso   1.00
C189   C     0.19445   0.50560   0.07428   0.00000  Uiso   1.00
C190   C     0.08953   0.09965   0.17572   0.00000  Uiso   1.00
C191   C     0.04381   0.12545   0.17607   0.00000  Uiso   1.00
C192   C     0.02767   0.21986   0.13013   0.00000  Uiso   1.00
C193   C     0.98492   0.36399   0.06568   0.00000  Uiso   1.00
C194   C     0.15029   0.08793   0.25503   0.00000  Uiso   1.00
C195   C     0.15566   0.10390   0.32206   0.00000  Uiso   1.00
C196   C     0.19067   0.18847   0.34289   0.00000  Uiso   1.00
C197   C     0.24227   0.31440   0.40157   0.00000  Uiso   1.00
C198   C     0.16688   0.12217   0.13943   0.00000  Uiso   1.00
C199   C     0.16759   0.96316   0.13312   0.00000  Uiso   1.00
C200   C     0.19311   0.88715   0.08889   0.00000  Uiso   1.00
C201   C     0.18902   0.74245   0.09088   0.00000  Uiso   1.00
C202   C     0.11811   0.16581   0.13108   0.00000  Uiso   1.00
C203   C     0.10203   0.26021   0.08514   0.00000  Uiso   1.00
C204   C     0.05630   0.28614   0.08541   0.00000  Uiso   1.00
C205   C     0.17888   0.15409   0.21039   0.00000  Uiso   1.00
C206   C     0.21388   0.23866   0.23112   0.00000  Uiso   1.00
C207   C     0.21930   0.25475   0.29817   0.00000  Uiso   1.00
H208   H     0.09200   0.94887   0.25637   0.00000  Uiso   1.00
H209   H     0.11276   0.70122   0.21437   0.00000  Uiso   1.00
H210   H     0.02170   0.07425   0.21062   0.00000  Uiso   1.00
H211   H     0.13353   0.05269   0.35658   0.00000  Uiso   1.00
H212   H     0.14836   0.45585   0.14811   0.00000  Uiso   1.00
H213   H     0.95636   0.24242   0.14022   0.00000  Uiso   1.00
H214   H     0.19218   0.19697   0.44801   0.00000  Uiso   1.00
H215   H     0.18913   0.17369   0.10467   0.00000  Uiso   1.00
H216   H     0.21522   0.93837   0.05435   0.00000  Uiso   1.00
H217   H     0.12416   0.31140   0.05060   0.00000  Uiso   1.00
H218   H     0.23599   0.28984   0.19656   0.00000  Uiso   1.00
H219   H     0.23152   0.64832   0.01822   0.00000  Uiso   1.00
H220   H     0.03952   0.43490   0.01034   0.00000  Uiso   1.00
H221   H     0.27535   0.38945   0.31813   0.00000  Uiso   1.00
O222   O     0.20534   0.39324   0.05278   0.00000  Uiso   1.00
O223   O     0.95345   0.42520   0.04245   0.00000  Uiso   1.00
O224   O     0.26284   0.36557   0.44626   0.00000  Uiso   1.00
N225   N     0.16436   0.53344   0.12445   0.00000  Uiso   1.00
N226   N     0.98485   0.26882   0.11707   0.00000  Uiso   1.00
N227   N     0.20532   0.22636   0.40483   0.00000  Uiso   1.00
N228   N     0.20911   0.63701   0.05457   0.00000  Uiso   1.00
N229   N     0.02960   0.37239   0.04719   0.00000  Uiso   1.00
N230   N     0.25007   0.32993   0.33495   0.00000  Uiso   1.00
C231   C     0.38574   0.49963   0.72161   0.00000  Uiso   1.00
C232   C     0.36099   0.60301   0.67776   0.00000  Uiso   1.00
C233   C     0.36512   0.74761   0.67982   0.00000  Uiso   1.00
C234   C     0.33961   0.82383   0.63560   0.00000  Uiso   1.00
C235   C     0.30555   0.99440   0.57428   0.00000  Uiso   1.00
C236   C     0.41047   0.40035   0.67572   0.00000  Uiso   1.00
C237   C     0.45619   0.37455   0.67607   0.00000  Uiso   1.00
C238   C     0.47233   0.28014   0.63013   0.00000  Uiso   1.00
C239   C     0.51508   0.13601   0.56568   0.00000  Uiso   1.00
C240   C     0.34971   0.41207   0.75503   0.00000  Uiso   1.00
C241   C     0.34434   0.39610   0.82206   0.00000  Uiso   1.00
C242   C     0.30933   0.31153   0.84289   0.00000  Uiso   1.00
C243   C     0.25773   0.18560   0.90157   0.00000  Uiso   1.00
C244   C     0.33312   0.37783   0.63943   0.00000  Uiso   1.00
C245   C     0.33241   0.53684   0.63312   0.00000  Uiso   1.00
C246   C     0.30689   0.61285   0.58889   0.00000  Uiso   1.00
C247   C     0.31098   0.75755   0.59088   0.00000  Uiso   1.00
C248   C     0.38189   0.33419   0.63108   0.00000  Uiso   1.00
C249   C     0.39797   0.23979   0.58514   0.00000  Uiso   1.00
C250   C     0.44370   0.21386   0.58541   0.00000  Uiso   1.00
C251   C     0.32112   0.34591   0.71039   0.00000  Uiso   1.00
C252   C     0.28612   0.26134   0.73112   0.00000  Uiso   1.00
C253   C     0.28070   0.24525   0.79817   0.00000  Uiso   1.00
H254   H     0.40800   0.55113   0.75637   0.00000  Uiso   1.00
H255   H     0.38724   0.79878   0.71437   0.00000  Uiso   1.00
H256   H     0.47830   0.42575   0.71062   0.00000  Uiso   1.00
H257   H     0.36647   0.44731   0.85658   0.00000  Uiso   1.00
H258   H     0.35164   0.04415   0.64811   0.00000  Uiso   1.00
H259   H     0.54364   0.25758   0.64022   0.00000  Uiso   1.00
H260   H     0.30782   0.30303   0.94801   0.00000  Uiso   1.00
H261   H     0.31087   0.32631   0.60467   0.00000  Uiso   1.00
H262   H     0.28478   0.56163   0.55435   0.00000  Uiso   1.00
H263   H     0.37584   0.18860   0.55060   0.00000  Uiso   1.00
H264   H     0.26401   0.21016   0.69656   0.00000  Uiso   1.00
H265   H     0.26848   0.85168   0.51822   0.00000  Uiso   1.00
H266   H     0.46048   0.06510   0.51034   0.00000  Uiso   1.00
H267   H     0.22465   0.11055   0.81813   0.00000  Uiso   1.00
O268   O     0.29466   0.10676   0.55278   0.00000  Uiso   1.00
O269   O     0.54655   0.07480   0.54245   0.00000  Uiso   1.00
O270   O     0.23716   0.13443   0.94626   0.00000  Uiso   1.00
N271   N     0.33564   0.96656   0.62445   0.00000  Uiso   1.00
N272   N     0.51515   0.23118   0.61707   0.00000  Uiso   1.00
N273   N     0.29468   0.27364   0.90483   0.00000  Uiso   1.00
N274   N     0.29089   0.86299   0.55457   0.00000  Uiso   1.00
N275   N     0.47040   0.12761   0.54719   0.00000  Uiso   1.00
N276   N     0.24993   0.17007   0.83495   0.00000  Uiso   1.00
C277   C     0.88574   0.00037   0.27839   0.00000  Uiso   1.00
C278   C     0.86099   0.89699   0.32224   0.00000  Uiso   1.00
C279   C     0.86512   0.75239   0.32018   0.00000  Uiso   1.00
C280   C     0.83961   0.67617   0.36440   0.00000  Uiso   1.00
C281   C     0.80555   0.50560   0.42572   0.00000  Uiso   1.00
C282   C     0.91047   0.09965   0.32428   0.00000  Uiso   1.00
C283   C     0.95619   0.12545   0.32393   0.00000  Uiso   1.00
C284   C     0.97233   0.21986   0.36987   0.00000  Uiso   1.00
C285   C     0.01508   0.36399   0.43432   0.00000  Uiso   1.00
C286   C     0.84971   0.08793   0.24497   0.00000  Uiso   1.00
C287   C     0.84434   0.10390   0.17794   0.00000  Uiso   1.00
C288   C     0.80933   0.18847   0.15711   0.00000  Uiso   1.00
C289   C     0.75773   0.31440   0.09843   0.00000  Uiso   1.00
C290   C     0.83312   0.12217   0.36057   0.00000  Uiso   1.00
C291   C     0.83241   0.96316   0.36688   0.00000  Uiso   1.00
C292   C     0.80689   0.88715   0.41111   0.00000  Uiso   1.00
C293   C     0.81098   0.74245   0.40912   0.00000  Uiso   1.00
C294   C     0.88189   0.16581   0.36892   0.00000  Uiso   1.00
C295   C     0.89797   0.26021   0.41486   0.00000  Uiso   1.00
C296   C     0.94370   0.28614   0.41459   0.00000  Uiso   1.00
C297   C     0.82112   0.15409   0.28961   0.00000  Uiso   1.00
C298   C     0.78612   0.23866   0.26888   0.00000  Uiso   1.00
C299   C     0.78070   0.25475   0.20183   0.00000  Uiso   1.00
H300   H     0.90800   0.94887   0.24363   0.00000  Uiso   1.00
H301   H     0.88724   0.70122   0.28563   0.00000  Uiso   1.00
H302   H     0.97830   0.07425   0.28938   0.00000  Uiso   1.00
H303   H     0.86647   0.05269   0.14342   0.00000  Uiso   1.00
H304   H     0.85164   0.45585   0.35189   0.00000  Uiso   1.00
H305   H     0.04364   0.24242   0.35978   0.00000  Uiso   1.00
H306   H     0.80782   0.19697   0.05199   0.00000  Uiso   1.00
H307   H     0.81087   0.17369   0.39533   0.00000  Uiso   1.00
H308   H     0.78478   0.93837   0.44565   0.00000  Uiso   1.00
H309   H     0.87584   0.31140   0.44940   0.00000  Uiso   1.00
H310   H     0.76401   0.28984   0.30344   0.00000  Uiso   1.00
H311   H     0.76848   0.64832   0.48178   0.00000  Uiso   1.00
H312   H     0.96048   0.43490   0.48966   0.00000  Uiso   1.00
H313   H     0.72465   0.38945   0.18187   0.00000  Uiso   1.00
O314   O     0.79466   0.39324   0.44722   0.00000  Uiso   1.00
O315   O     0.04655   0.42520   0.45755   0.00000  Uiso   1.00
O316   O     0.73716   0.36557   0.05374   0.00000  Uiso   1.00
N317   N     0.83564   0.53344   0.37555   0.00000  Uiso   1.00
N318   N     0.01515   0.26882   0.38293   0.00000  Uiso   1.00
N319   N     0.79468   0.22636   0.09517   0.00000  Uiso   1.00
N320   N     0.79089   0.63701   0.44543   0.00000  Uiso   1.00
N321   N     0.97040   0.37239   0.45281   0.00000  Uiso   1.00
N322   N     0.74993   0.32993   0.16505   0.00000  Uiso   1.00
C323   C     0.61426   0.49963   0.77839   0.00000  Uiso   1.00
C324   C     0.63901   0.60301   0.82224   0.00000  Uiso   1.00
C325   C     0.63488   0.74761   0.82018   0.00000  Uiso   1.00
C326   C     0.66039   0.82383   0.86440   0.00000  Uiso   1.00
C327   C     0.69445   0.99440   0.92572   0.00000  Uiso   1.00
C328   C     0.58953   0.40035   0.82428   0.00000  Uiso   1.00
C329   C     0.54381   0.37455   0.82393   0.00000  Uiso   1.00
C330   C     0.52767   0.28014   0.86987   0.00000  Uiso   1.00
C331   C     0.48492   0.13601   0.93432   0.00000  Uiso   1.00
C332   C     0.65029   0.41207   0.74497   0.00000  Uiso   1.00
C333   C     0.65566   0.39610   0.67794   0.00000  Uiso   1.00
C334   C     0.69067   0.31153   0.65711   0.00000  Uiso   1.00
C335   C     0.74227   0.18560   0.59843   0.00000  Uiso   1.00
C336   C     0.66688   0.37783   0.86057   0.00000  Uiso   1.00
C337   C     0.66759   0.53684   0.86688   0.00000  Uiso   1.00
C338   C     0.69311   0.61285   0.91111   0.00000  Uiso   1.00
C339   C     0.68902   0.75755   0.90912   0.00000  Uiso   1.00
C340   C     0.61811   0.33419   0.86892   0.00000  Uiso   1.00
C341   C     0.60203   0.23979   0.91486   0.00000  Uiso   1.00
C342   C     0.55630   0.21386   0.91459   0.00000  Uiso   1.00
C343   C     0.67888   0.34591   0.78961   0.00000  Uiso   1.00
C344   C     0.71388   0.26134   0.76888   0.00000  Uiso   1.00
C345   C     0.71930   0.24525   0.70183   0.00000  Uiso   1.00
H346   H     0.59200   0.55113   0.74363   0.00000  Uiso   1.00
H347   H     0.61276   0.79878   0.78563   0.00000  Uiso   1.00
H348   H     0.52170   0.42575   0.78938   0.00000  Uiso   1.00
H349   H     0.63353   0.44731   0.64342   0.00000  Uiso   1.00
H350   H     0.64836   0.04415   0.85189   0.00000  Uiso   1.00
H351   H     0.45636   0.25758   0.85978   0.00000  Uiso   1.00
H352   H     0.69218   0.30303   0.55199   0.00000  Uiso   1.00
H353   H     0.68913   0.32631   0.89533   0.00000  Uiso   1.00
H354   H     0.71522   0.56163   0.94565   0.00000  Uiso   1.00
H355   H     0.62416   0.18860   0.94940   0.00000  Uiso   1.00
H356   H     0.73599   0.21016   0.80344   0.00000  Uiso   1.00
H357   H     0.73152   0.85168   0.98178   0.00000  Uiso   1.00
H358   H     0.53952   0.06510   0.98966   0.00000  Uiso   1.00
H359   H     0.77535   0.11055   0.68187   0.00000  Uiso   1.00
O360   O     0.70534   0.10676   0.94722   0.00000  Uiso   1.00
O361   O     0.45345   0.07480   0.95755   0.00000  Uiso   1.00
O362   O     0.76284   0.13443   0.55374   0.00000  Uiso   1.00
N363   N     0.66436   0.96656   0.87555   0.00000  Uiso   1.00
N364   N     0.48485   0.23118   0.88293   0.00000  Uiso   1.00
N365   N     0.70532   0.27364   0.59517   0.00000  Uiso   1.00
N366   N     0.70911   0.86299   0.94543   0.00000  Uiso   1.00
N367   N     0.52960   0.12761   0.95281   0.00000  Uiso   1.00
N368   N     0.75007   0.17007   0.66505   0.00000  Uiso   1.00
