data_job_00864
_audit_creation_date              2018-12-19
_audit_creation_method            'Materials Studio'
_symmetry_space_group_name_H-M    'P1'
_symmetry_Int_Tables_number       1
_symmetry_cell_setting            triclinic
loop_
_symmetry_equiv_pos_as_xyz
  x,y,z
_cell_length_a                    25.0268
_cell_length_b                    7.1293
_cell_length_c                    18.6508
_cell_angle_alpha                 90.0000
_cell_angle_beta                  68.9213
_cell_angle_gamma                 90.0000
loop_
_atom_site_label
_atom_site_type_symbol
_atom_site_fract_x
_atom_site_fract_y
_atom_site_fract_z
_atom_site_U_iso_or_equiv
_atom_site_adp_type
_atom_site_occupancy
C1     C     0.75668   0.70897   0.06842   0.00000  Uiso   1.00
C2     C     0.75574   0.82707   0.13703   0.00000  Uiso   1.00
C3     C     0.75819   0.75844   0.20541   0.00000  Uiso   1.00
C4     C     0.75677   0.88934   0.26118   0.00000  Uiso   1.00
C5     C     0.75584   0.04343   0.36960   0.00000  Uiso   1.00
C6     C     0.70274   0.76130   0.05294   0.00000  Uiso   1.00
C7     C     0.66063   0.63735   0.05060   0.00000  Uiso   1.00
C8     C     0.61461   0.71289   0.03557   0.00000  Uiso   1.00
C9     C     0.53142   0.76483   0.01338   0.00000  Uiso   1.00
C10    C     0.80685   0.78151   0.99983   0.00000  Uiso   1.00
C11    C     0.85229   0.67455   0.95281   0.00000  Uiso   1.00
C12    C     0.89391   0.76710   0.89305   0.00000  Uiso   1.00
C13    C     0.97238   0.85042   0.78840   0.00000  Uiso   1.00
C14    C     0.74981   0.06352   0.04586   0.00000  Uiso   1.00
C15    C     0.75200   0.01965   0.12478   0.00000  Uiso   1.00
C16    C     0.75059   0.15070   0.18046   0.00000  Uiso   1.00
C17    C     0.75304   0.08227   0.24890   0.00000  Uiso   1.00
C18    C     0.69900   0.95386   0.04069   0.00000  Uiso   1.00
C19    C     0.65303   0.02961   0.02565   0.00000  Uiso   1.00
C20    C     0.61087   0.90581   0.02330   0.00000  Uiso   1.00
C21    C     0.80312   0.97409   0.98757   0.00000  Uiso   1.00
C22    C     0.84468   0.06682   0.92787   0.00000  Uiso   1.00
C23    C     0.89017   0.96002   0.88078   0.00000  Uiso   1.00
H24    H     0.75958   0.55905   0.07795   0.00000  Uiso   1.00
H25    H     0.76107   0.60939   0.21487   0.00000  Uiso   1.00
H26    H     0.66354   0.48833   0.06008   0.00000  Uiso   1.00
H27    H     0.85516   0.52553   0.96231   0.00000  Uiso   1.00
H28    H     0.76105   0.75014   0.36128   0.00000  Uiso   1.00
H29    H     0.55540   0.49485   0.03487   0.00000  Uiso   1.00
H30    H     0.95948   0.57329   0.82870   0.00000  Uiso   1.00
H31    H     0.74690   0.21345   0.03632   0.00000  Uiso   1.00
H32    H     0.74770   0.29971   0.17096   0.00000  Uiso   1.00
H33    H     0.65016   0.17864   0.01617   0.00000  Uiso   1.00
H34    H     0.84178   0.21584   0.91840   0.00000  Uiso   1.00
H35    H     0.75019   0.31042   0.32564   0.00000  Uiso   1.00
H36    H     0.54455   0.05513   0.99923   0.00000  Uiso   1.00
H37    H     0.94862   0.13358   0.79307   0.00000  Uiso   1.00
O38    O     0.75635   0.07521   0.43279   0.00000  Uiso   1.00
O39    O     0.48656   0.74027   0.00453   0.00000  Uiso   1.00
O40    O     0.01670   0.84319   0.73406   0.00000  Uiso   1.00
N41    N     0.75840   0.87016   0.33441   0.00000  Uiso   1.00
N42    N     0.56613   0.63148   0.02924   0.00000  Uiso   1.00
N43    N     0.94390   0.70481   0.83649   0.00000  Uiso   1.00
N44    N     0.75256   0.17165   0.31523   0.00000  Uiso   1.00
N45    N     0.56028   0.93297   0.01007   0.00000  Uiso   1.00
N46    N     0.93806   0.00630   0.81731   0.00000  Uiso   1.00
C47    C     0.24332   0.20897   0.43158   0.00000  Uiso   1.00
C48    C     0.24426   0.32707   0.36297   0.00000  Uiso   1.00
C49    C     0.24181   0.25844   0.29459   0.00000  Uiso   1.00
C50    C     0.24323   0.38934   0.23882   0.00000  Uiso   1.00
C51    C     0.24416   0.54343   0.13040   0.00000  Uiso   1.00
C52    C     0.29726   0.26130   0.44706   0.00000  Uiso   1.00
C53    C     0.33937   0.13735   0.44940   0.00000  Uiso   1.00
C54    C     0.38539   0.21289   0.46443   0.00000  Uiso   1.00
C55    C     0.46858   0.26483   0.48662   0.00000  Uiso   1.00
C56    C     0.19315   0.28151   0.50017   0.00000  Uiso   1.00
C57    C     0.14771   0.17455   0.54719   0.00000  Uiso   1.00
C58    C     0.10609   0.26710   0.60695   0.00000  Uiso   1.00
C59    C     0.02762   0.35042   0.71160   0.00000  Uiso   1.00
C60    C     0.25019   0.56352   0.45414   0.00000  Uiso   1.00
C61    C     0.24800   0.51965   0.37522   0.00000  Uiso   1.00
C62    C     0.24941   0.65070   0.31954   0.00000  Uiso   1.00
C63    C     0.24696   0.58227   0.25110   0.00000  Uiso   1.00
C64    C     0.30100   0.45386   0.45931   0.00000  Uiso   1.00
C65    C     0.34697   0.52961   0.47435   0.00000  Uiso   1.00
C66    C     0.38913   0.40581   0.47670   0.00000  Uiso   1.00
C67    C     0.19688   0.47409   0.51243   0.00000  Uiso   1.00
C68    C     0.15532   0.56682   0.57213   0.00000  Uiso   1.00
C69    C     0.10983   0.46002   0.61922   0.00000  Uiso   1.00
H70    H     0.24042   0.05905   0.42205   0.00000  Uiso   1.00
H71    H     0.23893   0.10939   0.28513   0.00000  Uiso   1.00
H72    H     0.33646   0.98833   0.43992   0.00000  Uiso   1.00
H73    H     0.14484   0.02553   0.53769   0.00000  Uiso   1.00
H74    H     0.23895   0.25014   0.13872   0.00000  Uiso   1.00
H75    H     0.44460   0.99485   0.46513   0.00000  Uiso   1.00
H76    H     0.04052   0.07329   0.67130   0.00000  Uiso   1.00
H77    H     0.25310   0.71345   0.46368   0.00000  Uiso   1.00
H78    H     0.25230   0.79971   0.32904   0.00000  Uiso   1.00
H79    H     0.34984   0.67864   0.48383   0.00000  Uiso   1.00
H80    H     0.15822   0.71584   0.58160   0.00000  Uiso   1.00
H81    H     0.24981   0.81042   0.17436   0.00000  Uiso   1.00
H82    H     0.45545   0.55513   0.50077   0.00000  Uiso   1.00
H83    H     0.05138   0.63358   0.70693   0.00000  Uiso   1.00
O84    O     0.24365   0.57521   0.06721   0.00000  Uiso   1.00
O85    O     0.51344   0.24027   0.49547   0.00000  Uiso   1.00
O86    O     0.98330   0.34319   0.76594   0.00000  Uiso   1.00
N87    N     0.24160   0.37016   0.16559   0.00000  Uiso   1.00
N88    N     0.43387   0.13148   0.47076   0.00000  Uiso   1.00
N89    N     0.05610   0.20481   0.66351   0.00000  Uiso   1.00
N90    N     0.24744   0.67165   0.18477   0.00000  Uiso   1.00
N91    N     0.43972   0.43297   0.48993   0.00000  Uiso   1.00
N92    N     0.06194   0.50630   0.68269   0.00000  Uiso   1.00
C93    C     0.24332   0.29103   0.93158   0.00000  Uiso   1.00
C94    C     0.24426   0.17293   0.86297   0.00000  Uiso   1.00
C95    C     0.24181   0.24156   0.79459   0.00000  Uiso   1.00
C96    C     0.24323   0.11066   0.73882   0.00000  Uiso   1.00
C97    C     0.24416   0.95657   0.63040   0.00000  Uiso   1.00
C98    C     0.29726   0.23870   0.94706   0.00000  Uiso   1.00
C99    C     0.33937   0.36265   0.94940   0.00000  Uiso   1.00
C100   C     0.38539   0.28711   0.96443   0.00000  Uiso   1.00
C101   C     0.46858   0.23517   0.98662   0.00000  Uiso   1.00
C102   C     0.19315   0.21849   0.00017   0.00000  Uiso   1.00
C103   C     0.14771   0.32545   0.04719   0.00000  Uiso   1.00
C104   C     0.10609   0.23290   0.10695   0.00000  Uiso   1.00
C105   C     0.02762   0.14958   0.21160   0.00000  Uiso   1.00
C106   C     0.25019   0.93648   0.95414   0.00000  Uiso   1.00
C107   C     0.24800   0.98035   0.87522   0.00000  Uiso   1.00
C108   C     0.24941   0.84930   0.81954   0.00000  Uiso   1.00
C109   C     0.24696   0.91773   0.75110   0.00000  Uiso   1.00
C110   C     0.30100   0.04614   0.95931   0.00000  Uiso   1.00
C111   C     0.34697   0.97039   0.97435   0.00000  Uiso   1.00
C112   C     0.38913   0.09419   0.97670   0.00000  Uiso   1.00
C113   C     0.19688   0.02591   0.01243   0.00000  Uiso   1.00
C114   C     0.15532   0.93318   0.07213   0.00000  Uiso   1.00
C115   C     0.10983   0.03998   0.11922   0.00000  Uiso   1.00
H116   H     0.24042   0.44095   0.92205   0.00000  Uiso   1.00
H117   H     0.23893   0.39061   0.78513   0.00000  Uiso   1.00
H118   H     0.33646   0.51167   0.93992   0.00000  Uiso   1.00
H119   H     0.14484   0.47447   0.03769   0.00000  Uiso   1.00
H120   H     0.23895   0.24986   0.63872   0.00000  Uiso   1.00
H121   H     0.44460   0.50515   0.96513   0.00000  Uiso   1.00
H122   H     0.04052   0.42671   0.17130   0.00000  Uiso   1.00
H123   H     0.25310   0.78655   0.96368   0.00000  Uiso   1.00
H124   H     0.25230   0.70029   0.82904   0.00000  Uiso   1.00
H125   H     0.34984   0.82136   0.98383   0.00000  Uiso   1.00
H126   H     0.15822   0.78416   0.08160   0.00000  Uiso   1.00
H127   H     0.24981   0.68958   0.67436   0.00000  Uiso   1.00
H128   H     0.45545   0.94487   0.00077   0.00000  Uiso   1.00
H129   H     0.05138   0.86642   0.20693   0.00000  Uiso   1.00
O130   O     0.24365   0.92479   0.56721   0.00000  Uiso   1.00
O131   O     0.51344   0.25973   0.99547   0.00000  Uiso   1.00
O132   O     0.98330   0.15681   0.26594   0.00000  Uiso   1.00
N133   N     0.24160   0.12984   0.66559   0.00000  Uiso   1.00
N134   N     0.43387   0.36852   0.97076   0.00000  Uiso   1.00
N135   N     0.05610   0.29519   0.16351   0.00000  Uiso   1.00
N136   N     0.24744   0.82835   0.68477   0.00000  Uiso   1.00
N137   N     0.43972   0.06703   0.98993   0.00000  Uiso   1.00
N138   N     0.06194   0.99370   0.18269   0.00000  Uiso   1.00
C139   C     0.75668   0.79103   0.56842   0.00000  Uiso   1.00
C140   C     0.75574   0.67293   0.63703   0.00000  Uiso   1.00
C141   C     0.75819   0.74156   0.70541   0.00000  Uiso   1.00
C142   C     0.75677   0.61066   0.76118   0.00000  Uiso   1.00
C143   C     0.75584   0.45657   0.86960   0.00000  Uiso   1.00
C144   C     0.70274   0.73870   0.55294   0.00000  Uiso   1.00
C145   C     0.66063   0.86265   0.55060   0.00000  Uiso   1.00
C146   C     0.61461   0.78711   0.53557   0.00000  Uiso   1.00
C147   C     0.53142   0.73517   0.51338   0.00000  Uiso   1.00
C148   C     0.80685   0.71849   0.49983   0.00000  Uiso   1.00
C149   C     0.85229   0.82545   0.45281   0.00000  Uiso   1.00
C150   C     0.89391   0.73290   0.39305   0.00000  Uiso   1.00
C151   C     0.97238   0.64958   0.28840   0.00000  Uiso   1.00
C152   C     0.74981   0.43648   0.54586   0.00000  Uiso   1.00
C153   C     0.75200   0.48035   0.62478   0.00000  Uiso   1.00
C154   C     0.75059   0.34930   0.68046   0.00000  Uiso   1.00
C155   C     0.75304   0.41773   0.74890   0.00000  Uiso   1.00
C156   C     0.69900   0.54614   0.54069   0.00000  Uiso   1.00
C157   C     0.65303   0.47039   0.52565   0.00000  Uiso   1.00
C158   C     0.61087   0.59419   0.52330   0.00000  Uiso   1.00
C159   C     0.80312   0.52591   0.48757   0.00000  Uiso   1.00
C160   C     0.84468   0.43318   0.42787   0.00000  Uiso   1.00
C161   C     0.89017   0.53998   0.38078   0.00000  Uiso   1.00
H162   H     0.75958   0.94095   0.57795   0.00000  Uiso   1.00
H163   H     0.76107   0.89061   0.71487   0.00000  Uiso   1.00
H164   H     0.66354   0.01167   0.56008   0.00000  Uiso   1.00
H165   H     0.85516   0.97447   0.46231   0.00000  Uiso   1.00
H166   H     0.76105   0.74986   0.86128   0.00000  Uiso   1.00
H167   H     0.55540   0.00515   0.53487   0.00000  Uiso   1.00
H168   H     0.95948   0.92671   0.32870   0.00000  Uiso   1.00
H169   H     0.74690   0.28655   0.53632   0.00000  Uiso   1.00
H170   H     0.74770   0.20029   0.67096   0.00000  Uiso   1.00
H171   H     0.65016   0.32136   0.51617   0.00000  Uiso   1.00
H172   H     0.84178   0.28416   0.41840   0.00000  Uiso   1.00
H173   H     0.75019   0.18958   0.82564   0.00000  Uiso   1.00
H174   H     0.54455   0.44487   0.49923   0.00000  Uiso   1.00
H175   H     0.94862   0.36642   0.29307   0.00000  Uiso   1.00
O176   O     0.75635   0.42479   0.93279   0.00000  Uiso   1.00
O177   O     0.48656   0.75973   0.50453   0.00000  Uiso   1.00
O178   O     0.01670   0.65681   0.23406   0.00000  Uiso   1.00
N179   N     0.75840   0.62984   0.83441   0.00000  Uiso   1.00
N180   N     0.56613   0.86852   0.52924   0.00000  Uiso   1.00
N181   N     0.94390   0.79519   0.33649   0.00000  Uiso   1.00
N182   N     0.75256   0.32835   0.81523   0.00000  Uiso   1.00
N183   N     0.56028   0.56703   0.51007   0.00000  Uiso   1.00
N184   N     0.93806   0.49370   0.31731   0.00000  Uiso   1.00
