data_job_00721
_audit_creation_date              2018-12-19
_audit_creation_method            'Materials Studio'
_symmetry_space_group_name_H-M    'P1'
_symmetry_Int_Tables_number       1
_symmetry_cell_setting            triclinic
loop_
_symmetry_equiv_pos_as_xyz
  x,y,z
_cell_length_a                    32.0774
_cell_length_b                    32.0774
_cell_length_c                    7.0544
_cell_angle_alpha                 90.0000
_cell_angle_beta                  90.0000
_cell_angle_gamma                 90.0000
loop_
_atom_site_label
_atom_site_type_symbol
_atom_site_fract_x
_atom_site_fract_y
_atom_site_fract_z
_atom_site_U_iso_or_equiv
_atom_site_adp_type
_atom_site_occupancy
C1     C     0.00634   0.71023   0.26221   0.00000  Uiso   1.00
C2     C     0.04097   0.73215   0.15270   0.00000  Uiso   1.00
C3     C     0.07605   0.75060   0.23160   0.00000  Uiso   1.00
C4     C     0.10408   0.76906   0.10736   0.00000  Uiso   1.00
C5     C     0.15889   0.80312   0.96714   0.00000  Uiso   1.00
C6     C     0.96596   0.73215   0.20676   0.00000  Uiso   1.00
C7     C     0.93796   0.75059   0.33113   0.00000  Uiso   1.00
C8     C     0.90285   0.76905   0.25238   0.00000  Uiso   1.00
C9     C     0.84118   0.80308   0.19612   0.00000  Uiso   1.00
C10    C     0.00346   0.66638   0.17980   0.00000  Uiso   1.00
C11    C     0.00699   0.62951   0.28151   0.00000  Uiso   1.00
C12    C     0.00344   0.59259   0.18007   0.00000  Uiso   1.00
C13    C    -0.00000   0.52450   0.08195   0.00000  Uiso   1.00
C14    C     0.99375   0.71021   0.90123   0.00000  Uiso   1.00
C15    C     0.03413   0.73214   0.95662   0.00000  Uiso   1.00
C16    C     0.06212   0.75058   0.83222   0.00000  Uiso   1.00
C17    C     0.09724   0.76905   0.91093   0.00000  Uiso   1.00
C18    C     0.95912   0.73214   0.01070   0.00000  Uiso   1.00
C19    C     0.92404   0.75057   0.93175   0.00000  Uiso   1.00
C20    C     0.89600   0.76904   0.05596   0.00000  Uiso   1.00
C21    C     0.99663   0.66637   0.98373   0.00000  Uiso   1.00
C22    C     0.99307   0.62949   0.88212   0.00000  Uiso   1.00
C23    C     0.99659   0.59258   0.98365   0.00000  Uiso   1.00
H24    H     0.01166   0.71024   0.41486   0.00000  Uiso   1.00
H25    H     0.08132   0.75060   0.38335   0.00000  Uiso   1.00
H26    H     0.94326   0.75059   0.48285   0.00000  Uiso   1.00
H27    H     0.01228   0.62953   0.43323   0.00000  Uiso   1.00
H28    H     0.15554   0.79536   0.26195   0.00000  Uiso   1.00
H29    H     0.86441   0.79533   0.47177   0.00000  Uiso   1.00
H30    H     0.00995   0.54005   0.36715   0.00000  Uiso   1.00
H31    H     0.98843   0.71020   0.74857   0.00000  Uiso   1.00
H32    H     0.05682   0.75056   0.68050   0.00000  Uiso   1.00
H33    H     0.91876   0.75056   0.78001   0.00000  Uiso   1.00
H34    H     0.98778   0.62950   0.73039   0.00000  Uiso   1.00
H35    H     0.13565   0.79533   0.69149   0.00000  Uiso   1.00
H36    H     0.84453   0.79530   0.90132   0.00000  Uiso   1.00
H37    H     0.99006   0.54002   0.79669   0.00000  Uiso   1.00
O38    O     0.19100   0.82191   0.94397   0.00000  Uiso   1.00
O39    O     0.80905   0.82186   0.21925   0.00000  Uiso   1.00
O40    O    -0.00001   0.48694   0.08198   0.00000  Uiso   1.00
N41    N     0.14148   0.78981   0.13704   0.00000  Uiso   1.00
N42    N     0.86929   0.78978   0.33321   0.00000  Uiso   1.00
N43    N     0.00535   0.55112   0.23539   0.00000  Uiso   1.00
N44    N     0.13078   0.78979   0.83008   0.00000  Uiso   1.00
N45    N     0.85859   0.78977   0.02625   0.00000  Uiso   1.00
N46    N     0.99465   0.55110   0.92843   0.00000  Uiso   1.00
C47    C     0.99366   0.28977   0.76221   0.00000  Uiso   1.00
C48    C     0.95903   0.26785   0.65270   0.00000  Uiso   1.00
C49    C     0.92395   0.24940   0.73160   0.00000  Uiso   1.00
C50    C     0.89592   0.23094   0.60736   0.00000  Uiso   1.00
C51    C     0.84111   0.19688   0.46714   0.00000  Uiso   1.00
C52    C     0.03404   0.26785   0.70676   0.00000  Uiso   1.00
C53    C     0.06204   0.24941   0.83113   0.00000  Uiso   1.00
C54    C     0.09715   0.23095   0.75238   0.00000  Uiso   1.00
C55    C     0.15882   0.19692   0.69612   0.00000  Uiso   1.00
C56    C     0.99654   0.33362   0.67980   0.00000  Uiso   1.00
C57    C     0.99301   0.37049   0.78151   0.00000  Uiso   1.00
C58    C     0.99656   0.40741   0.68007   0.00000  Uiso   1.00
C59    C     0.00000   0.47550   0.58195   0.00000  Uiso   1.00
C60    C     0.00625   0.28979   0.40123   0.00000  Uiso   1.00
C61    C     0.96587   0.26786   0.45662   0.00000  Uiso   1.00
C62    C     0.93788   0.24942   0.33222   0.00000  Uiso   1.00
C63    C     0.90276   0.23095   0.41093   0.00000  Uiso   1.00
C64    C     0.04088   0.26786   0.51070   0.00000  Uiso   1.00
C65    C     0.07596   0.24943   0.43175   0.00000  Uiso   1.00
C66    C     0.10400   0.23096   0.55596   0.00000  Uiso   1.00
C67    C     0.00337   0.33363   0.48373   0.00000  Uiso   1.00
C68    C     0.00693   0.37051   0.38212   0.00000  Uiso   1.00
C69    C     0.00341   0.40742   0.48365   0.00000  Uiso   1.00
H70    H     0.98834   0.28976   0.91486   0.00000  Uiso   1.00
H71    H     0.91868   0.24940   0.88335   0.00000  Uiso   1.00
H72    H     0.05674   0.24941   0.98285   0.00000  Uiso   1.00
H73    H     0.98772   0.37047   0.93323   0.00000  Uiso   1.00
H74    H     0.84446   0.20464   0.76195   0.00000  Uiso   1.00
H75    H     0.13559   0.20467   0.97177   0.00000  Uiso   1.00
H76    H     0.99005   0.45995   0.86715   0.00000  Uiso   1.00
H77    H     0.01157   0.28980   0.24857   0.00000  Uiso   1.00
H78    H     0.94318   0.24944   0.18050   0.00000  Uiso   1.00
H79    H     0.08124   0.24944   0.28001   0.00000  Uiso   1.00
H80    H     0.01222   0.37050   0.23039   0.00000  Uiso   1.00
H81    H     0.86435   0.20467   0.19149   0.00000  Uiso   1.00
H82    H     0.15547   0.20470   0.40132   0.00000  Uiso   1.00
H83    H     0.00994   0.45998   0.29669   0.00000  Uiso   1.00
O84    O     0.80900   0.17809   0.44397   0.00000  Uiso   1.00
O85    O     0.19095   0.17814   0.71925   0.00000  Uiso   1.00
O86    O     0.00001   0.51306   0.58198   0.00000  Uiso   1.00
N87    N     0.85852   0.21019   0.63704   0.00000  Uiso   1.00
N88    N     0.13071   0.21022   0.83321   0.00000  Uiso   1.00
N89    N     0.99465   0.44888   0.73539   0.00000  Uiso   1.00
N90    N     0.86922   0.21021   0.33008   0.00000  Uiso   1.00
N91    N     0.14141   0.21023   0.52625   0.00000  Uiso   1.00
N92    N     0.00535   0.44890   0.42843   0.00000  Uiso   1.00
C93    C     0.28977   0.00634   0.51221   0.00000  Uiso   1.00
C94    C     0.26785   0.04097   0.40270   0.00000  Uiso   1.00
C95    C     0.24940   0.07605   0.48160   0.00000  Uiso   1.00
C96    C     0.23094   0.10408   0.35736   0.00000  Uiso   1.00
C97    C     0.19688   0.15889   0.21714   0.00000  Uiso   1.00
C98    C     0.26785   0.96596   0.45676   0.00000  Uiso   1.00
C99    C     0.24941   0.93796   0.58113   0.00000  Uiso   1.00
C100   C     0.23095   0.90285   0.50238   0.00000  Uiso   1.00
C101   C     0.19692   0.84118   0.44612   0.00000  Uiso   1.00
C102   C     0.33362   0.00346   0.42980   0.00000  Uiso   1.00
C103   C     0.37049   0.00699   0.53151   0.00000  Uiso   1.00
C104   C     0.40741   0.00344   0.43007   0.00000  Uiso   1.00
C105   C     0.47550  -0.00000   0.33195   0.00000  Uiso   1.00
C106   C     0.28979   0.99375   0.15123   0.00000  Uiso   1.00
C107   C     0.26786   0.03413   0.20662   0.00000  Uiso   1.00
C108   C     0.24942   0.06212   0.08222   0.00000  Uiso   1.00
C109   C     0.23095   0.09724   0.16093   0.00000  Uiso   1.00
C110   C     0.26786   0.95912   0.26070   0.00000  Uiso   1.00
C111   C     0.24943   0.92404   0.18175   0.00000  Uiso   1.00
C112   C     0.23096   0.89600   0.30596   0.00000  Uiso   1.00
C113   C     0.33363   0.99663   0.23373   0.00000  Uiso   1.00
C114   C     0.37051   0.99307   0.13212   0.00000  Uiso   1.00
C115   C     0.40742   0.99659   0.23365   0.00000  Uiso   1.00
H116   H     0.28976   0.01166   0.66486   0.00000  Uiso   1.00
H117   H     0.24940   0.08132   0.63335   0.00000  Uiso   1.00
H118   H     0.24941   0.94326   0.73285   0.00000  Uiso   1.00
H119   H     0.37047   0.01228   0.68323   0.00000  Uiso   1.00
H120   H     0.20464   0.15554   0.51195   0.00000  Uiso   1.00
H121   H     0.20467   0.86441   0.72177   0.00000  Uiso   1.00
H122   H     0.45995   0.00995   0.61715   0.00000  Uiso   1.00
H123   H     0.28980   0.98843   0.99857   0.00000  Uiso   1.00
H124   H     0.24944   0.05682   0.93050   0.00000  Uiso   1.00
H125   H     0.24944   0.91876   0.03001   0.00000  Uiso   1.00
H126   H     0.37050   0.98778   0.98039   0.00000  Uiso   1.00
H127   H     0.20467   0.13565   0.94149   0.00000  Uiso   1.00
H128   H     0.20470   0.84453   0.15132   0.00000  Uiso   1.00
H129   H     0.45998   0.99006   0.04669   0.00000  Uiso   1.00
O130   O     0.17809   0.19100   0.19397   0.00000  Uiso   1.00
O131   O     0.17814   0.80905   0.46925   0.00000  Uiso   1.00
O132   O     0.51306  -0.00001   0.33198   0.00000  Uiso   1.00
N133   N     0.21019   0.14148   0.38704   0.00000  Uiso   1.00
N134   N     0.21022   0.86929   0.58321   0.00000  Uiso   1.00
N135   N     0.44888   0.00535   0.48539   0.00000  Uiso   1.00
N136   N     0.21021   0.13078   0.08008   0.00000  Uiso   1.00
N137   N     0.21023   0.85859   0.27625   0.00000  Uiso   1.00
N138   N     0.44890   0.99465   0.17843   0.00000  Uiso   1.00
C139   C     0.71023   0.99366   0.01221   0.00000  Uiso   1.00
C140   C     0.73215   0.95903   0.90270   0.00000  Uiso   1.00
C141   C     0.75060   0.92395   0.98160   0.00000  Uiso   1.00
C142   C     0.76906   0.89592   0.85736   0.00000  Uiso   1.00
C143   C     0.80312   0.84111   0.71714   0.00000  Uiso   1.00
C144   C     0.73215   0.03404   0.95676   0.00000  Uiso   1.00
C145   C     0.75059   0.06204   0.08113   0.00000  Uiso   1.00
C146   C     0.76905   0.09715   0.00238   0.00000  Uiso   1.00
C147   C     0.80308   0.15882   0.94612   0.00000  Uiso   1.00
C148   C     0.66638   0.99654   0.92980   0.00000  Uiso   1.00
C149   C     0.62951   0.99301   0.03151   0.00000  Uiso   1.00
C150   C     0.59259   0.99656   0.93007   0.00000  Uiso   1.00
C151   C     0.52450   0.00000   0.83195   0.00000  Uiso   1.00
C152   C     0.71021   0.00625   0.65123   0.00000  Uiso   1.00
C153   C     0.73214   0.96587   0.70662   0.00000  Uiso   1.00
C154   C     0.75058   0.93788   0.58222   0.00000  Uiso   1.00
C155   C     0.76905   0.90276   0.66093   0.00000  Uiso   1.00
C156   C     0.73214   0.04088   0.76070   0.00000  Uiso   1.00
C157   C     0.75057   0.07596   0.68175   0.00000  Uiso   1.00
C158   C     0.76904   0.10400   0.80596   0.00000  Uiso   1.00
C159   C     0.66637   0.00337   0.73373   0.00000  Uiso   1.00
C160   C     0.62949   0.00693   0.63212   0.00000  Uiso   1.00
C161   C     0.59258   0.00341   0.73365   0.00000  Uiso   1.00
H162   H     0.71024   0.98834   0.16486   0.00000  Uiso   1.00
H163   H     0.75060   0.91868   0.13335   0.00000  Uiso   1.00
H164   H     0.75059   0.05674   0.23285   0.00000  Uiso   1.00
H165   H     0.62953   0.98772   0.18323   0.00000  Uiso   1.00
H166   H     0.79536   0.84446   0.01195   0.00000  Uiso   1.00
H167   H     0.79533   0.13559   0.22177   0.00000  Uiso   1.00
H168   H     0.54005   0.99005   0.11715   0.00000  Uiso   1.00
H169   H     0.71020   0.01157   0.49857   0.00000  Uiso   1.00
H170   H     0.75056   0.94318   0.43050   0.00000  Uiso   1.00
H171   H     0.75056   0.08124   0.53001   0.00000  Uiso   1.00
H172   H     0.62950   0.01222   0.48039   0.00000  Uiso   1.00
H173   H     0.79533   0.86435   0.44149   0.00000  Uiso   1.00
H174   H     0.79530   0.15547   0.65132   0.00000  Uiso   1.00
H175   H     0.54002   0.00994   0.54669   0.00000  Uiso   1.00
O176   O     0.82191   0.80900   0.69397   0.00000  Uiso   1.00
O177   O     0.82186   0.19095   0.96925   0.00000  Uiso   1.00
O178   O     0.48694   0.00001   0.83198   0.00000  Uiso   1.00
N179   N     0.78981   0.85852   0.88704   0.00000  Uiso   1.00
N180   N     0.78978   0.13071   0.08321   0.00000  Uiso   1.00
N181   N     0.55112   0.99465   0.98539   0.00000  Uiso   1.00
N182   N     0.78979   0.86922   0.58008   0.00000  Uiso   1.00
N183   N     0.78977   0.14141   0.77625   0.00000  Uiso   1.00
N184   N     0.55110   0.00535   0.67843   0.00000  Uiso   1.00
