data_job_00816
_audit_creation_date              2018-12-19
_audit_creation_method            'Materials Studio'
_symmetry_space_group_name_H-M    'P1'
_symmetry_Int_Tables_number       1
_symmetry_cell_setting            triclinic
loop_
_symmetry_equiv_pos_as_xyz
  x,y,z
_cell_length_a                    17.9716
_cell_length_b                    12.5041
_cell_length_c                    23.1416
_cell_angle_alpha                 90.0000
_cell_angle_beta                  90.0000
_cell_angle_gamma                 90.0000
loop_
_atom_site_label
_atom_site_type_symbol
_atom_site_fract_x
_atom_site_fract_y
_atom_site_fract_z
_atom_site_U_iso_or_equiv
_atom_site_adp_type
_atom_site_occupancy
C1     C     0.83540   0.07198   0.90999   0.00000  Uiso   1.00
C2     C     0.88246   0.97166   0.90171   0.00000  Uiso   1.00
C3     C     0.95803   0.96957   0.88943   0.00000  Uiso   1.00
C4     C     0.99090   0.86969   0.88345   0.00000  Uiso   1.00
C5     C     0.07024   0.72828   0.86964   0.00000  Uiso   1.00
C6     C     0.77197   0.06377   0.86645   0.00000  Uiso   1.00
C7     C     0.75463   0.13912   0.82452   0.00000  Uiso   1.00
C8     C     0.69448   0.11678   0.78886   0.00000  Uiso   1.00
C9     C     0.60225   0.11839   0.72033   0.00000  Uiso   1.00
C10    C     0.79968   0.06152   0.96949   0.00000  Uiso   1.00
C11    C     0.80562   0.13499   0.01420   0.00000  Uiso   1.00
C12    C     0.76878   0.11077   0.06529   0.00000  Uiso   1.00
C13    C     0.71958   0.10889   0.15675   0.00000  Uiso   1.00
C14    C     0.75939   0.89834   0.92121   0.00000  Uiso   1.00
C15    C     0.84117   0.87735   0.90780   0.00000  Uiso   1.00
C16    C     0.87393   0.77745   0.90184   0.00000  Uiso   1.00
C17    C     0.94954   0.77521   0.88956   0.00000  Uiso   1.00
C18    C     0.73068   0.96946   0.87254   0.00000  Uiso   1.00
C19    C     0.67054   0.94701   0.83693   0.00000  Uiso   1.00
C20    C     0.65312   0.02230   0.79496   0.00000  Uiso   1.00
C21    C     0.75839   0.96720   0.97558   0.00000  Uiso   1.00
C22    C     0.72153   0.94287   0.02661   0.00000  Uiso   1.00
C23    C     0.72742   0.01629   0.07139   0.00000  Uiso   1.00
H24    H     0.86754   0.14541   0.90524   0.00000  Uiso   1.00
H25    H     0.98996   0.04257   0.88471   0.00000  Uiso   1.00
H26    H     0.78659   0.21210   0.81982   0.00000  Uiso   1.00
H27    H     0.83757   0.20797   0.00947   0.00000  Uiso   1.00
H28    H     0.10747   0.88697   0.86462   0.00000  Uiso   1.00
H29    H     0.67864   0.24444   0.72780   0.00000  Uiso   1.00
H30    H     0.78615   0.23573   0.12772   0.00000  Uiso   1.00
H31    H     0.72724   0.82491   0.92595   0.00000  Uiso   1.00
H32    H     0.84197   0.70448   0.90656   0.00000  Uiso   1.00
H33    H     0.63860   0.87401   0.84166   0.00000  Uiso   1.00
H34    H     0.68958   0.86988   0.03131   0.00000  Uiso   1.00
H35    H     0.98736   0.61256   0.88235   0.00000  Uiso   1.00
H36    H     0.55852   0.97004   0.74552   0.00000  Uiso   1.00
H37    H     0.66604   0.96132   0.14544   0.00000  Uiso   1.00
O38    O     0.12541   0.67633   0.86034   0.00000  Uiso   1.00
O39    O     0.56279   0.14533   0.68084   0.00000  Uiso   1.00
O40    O     0.70385   0.13390   0.20552   0.00000  Uiso   1.00
N41    N     0.06346   0.83891   0.87147   0.00000  Uiso   1.00
N42    N     0.66254   0.17312   0.74354   0.00000  Uiso   1.00
N43    N     0.76303   0.16499   0.11742   0.00000  Uiso   1.00
N44    N     0.99883   0.69126   0.88101   0.00000  Uiso   1.00
N45    N     0.59790   0.02547   0.75308   0.00000  Uiso   1.00
N46    N     0.69840   0.01734   0.12696   0.00000  Uiso   1.00
C47    C     0.66460   0.92802   0.40999   0.00000  Uiso   1.00
C48    C     0.61754   0.02834   0.40171   0.00000  Uiso   1.00
C49    C     0.54197   0.03043   0.38943   0.00000  Uiso   1.00
C50    C     0.50910   0.13031   0.38345   0.00000  Uiso   1.00
C51    C     0.42976   0.27172   0.36964   0.00000  Uiso   1.00
C52    C     0.72803   0.93623   0.36645   0.00000  Uiso   1.00
C53    C     0.74537   0.86088   0.32452   0.00000  Uiso   1.00
C54    C     0.80552   0.88322   0.28886   0.00000  Uiso   1.00
C55    C     0.89775   0.88161   0.22033   0.00000  Uiso   1.00
C56    C     0.70032   0.93848   0.46949   0.00000  Uiso   1.00
C57    C     0.69438   0.86501   0.51420   0.00000  Uiso   1.00
C58    C     0.73122   0.88923   0.56529   0.00000  Uiso   1.00
C59    C     0.78042   0.89111   0.65675   0.00000  Uiso   1.00
C60    C     0.74061   0.10166   0.42121   0.00000  Uiso   1.00
C61    C     0.65883   0.12265   0.40780   0.00000  Uiso   1.00
C62    C     0.62607   0.22255   0.40184   0.00000  Uiso   1.00
C63    C     0.55046   0.22479   0.38956   0.00000  Uiso   1.00
C64    C     0.76932   0.03054   0.37254   0.00000  Uiso   1.00
C65    C     0.82946   0.05299   0.33693   0.00000  Uiso   1.00
C66    C     0.84688   0.97770   0.29496   0.00000  Uiso   1.00
C67    C     0.74161   0.03280   0.47558   0.00000  Uiso   1.00
C68    C     0.77847   0.05713   0.52661   0.00000  Uiso   1.00
C69    C     0.77258   0.98371   0.57139   0.00000  Uiso   1.00
H70    H     0.63246   0.85459   0.40524   0.00000  Uiso   1.00
H71    H     0.51004   0.95743   0.38471   0.00000  Uiso   1.00
H72    H     0.71341   0.78790   0.31982   0.00000  Uiso   1.00
H73    H     0.66243   0.79204   0.50947   0.00000  Uiso   1.00
H74    H     0.39253   0.11303   0.36462   0.00000  Uiso   1.00
H75    H     0.82136   0.75556   0.22780   0.00000  Uiso   1.00
H76    H     0.71385   0.76427   0.62772   0.00000  Uiso   1.00
H77    H     0.77276   0.17509   0.42595   0.00000  Uiso   1.00
H78    H     0.65803   0.29552   0.40656   0.00000  Uiso   1.00
H79    H     0.86140   0.12599   0.34166   0.00000  Uiso   1.00
H80    H     0.81042   0.13012   0.53131   0.00000  Uiso   1.00
H81    H     0.51264   0.38744   0.38235   0.00000  Uiso   1.00
H82    H     0.94148   0.02996   0.24552   0.00000  Uiso   1.00
H83    H     0.83396   0.03868   0.64544   0.00000  Uiso   1.00
O84    O     0.37459   0.32367   0.36034   0.00000  Uiso   1.00
O85    O     0.93721   0.85467   0.18084   0.00000  Uiso   1.00
O86    O     0.79615   0.86610   0.70552   0.00000  Uiso   1.00
N87    N     0.43654   0.16109   0.37147   0.00000  Uiso   1.00
N88    N     0.83746   0.82688   0.24354   0.00000  Uiso   1.00
N89    N     0.73697   0.83501   0.61742   0.00000  Uiso   1.00
N90    N     0.50117   0.30874   0.38101   0.00000  Uiso   1.00
N91    N     0.90210   0.97453   0.25308   0.00000  Uiso   1.00
N92    N     0.80160   0.98266   0.62696   0.00000  Uiso   1.00
C93    C     0.16460   0.57198   0.59001   0.00000  Uiso   1.00
C94    C     0.11754   0.47166   0.59829   0.00000  Uiso   1.00
C95    C     0.04197   0.46957   0.61057   0.00000  Uiso   1.00
C96    C     0.00910   0.36969   0.61655   0.00000  Uiso   1.00
C97    C     0.92976   0.22828   0.63036   0.00000  Uiso   1.00
C98    C     0.22803   0.56377   0.63355   0.00000  Uiso   1.00
C99    C     0.24537   0.63912   0.67548   0.00000  Uiso   1.00
C100   C     0.30552   0.61678   0.71114   0.00000  Uiso   1.00
C101   C     0.39775   0.61839   0.77967   0.00000  Uiso   1.00
C102   C     0.20032   0.56152   0.53051   0.00000  Uiso   1.00
C103   C     0.19438   0.63499   0.48580   0.00000  Uiso   1.00
C104   C     0.23122   0.61077   0.43471   0.00000  Uiso   1.00
C105   C     0.28042   0.60889   0.34325   0.00000  Uiso   1.00
C106   C     0.24061   0.39834   0.57879   0.00000  Uiso   1.00
C107   C     0.15883   0.37735   0.59220   0.00000  Uiso   1.00
C108   C     0.12607   0.27745   0.59816   0.00000  Uiso   1.00
C109   C     0.05046   0.27521   0.61044   0.00000  Uiso   1.00
C110   C     0.26932   0.46946   0.62746   0.00000  Uiso   1.00
C111   C     0.32946   0.44701   0.66307   0.00000  Uiso   1.00
C112   C     0.34688   0.52230   0.70504   0.00000  Uiso   1.00
C113   C     0.24161   0.46720   0.52442   0.00000  Uiso   1.00
C114   C     0.27847   0.44287   0.47339   0.00000  Uiso   1.00
C115   C     0.27258   0.51629   0.42861   0.00000  Uiso   1.00
H116   H     0.13246   0.64541   0.59476   0.00000  Uiso   1.00
H117   H     0.01004   0.54257   0.61529   0.00000  Uiso   1.00
H118   H     0.21341   0.71210   0.68018   0.00000  Uiso   1.00
H119   H     0.16243   0.70797   0.49053   0.00000  Uiso   1.00
H120   H     0.89253   0.38697   0.63538   0.00000  Uiso   1.00
H121   H     0.32136   0.74444   0.77220   0.00000  Uiso   1.00
H122   H     0.21385   0.73573   0.37228   0.00000  Uiso   1.00
H123   H     0.27276   0.32491   0.57405   0.00000  Uiso   1.00
H124   H     0.15803   0.20448   0.59344   0.00000  Uiso   1.00
H125   H     0.36140   0.37401   0.65834   0.00000  Uiso   1.00
H126   H     0.31042   0.36988   0.46869   0.00000  Uiso   1.00
H127   H     0.01264   0.11256   0.61765   0.00000  Uiso   1.00
H128   H     0.44148   0.47004   0.75448   0.00000  Uiso   1.00
H129   H     0.33396   0.46132   0.35456   0.00000  Uiso   1.00
O130   O     0.87459   0.17633   0.63966   0.00000  Uiso   1.00
O131   O     0.43721   0.64533   0.81916   0.00000  Uiso   1.00
O132   O     0.29615   0.63390   0.29448   0.00000  Uiso   1.00
N133   N     0.93654   0.33891   0.62853   0.00000  Uiso   1.00
N134   N     0.33746   0.67312   0.75646   0.00000  Uiso   1.00
N135   N     0.23697   0.66499   0.38258   0.00000  Uiso   1.00
N136   N     0.00117   0.19126   0.61899   0.00000  Uiso   1.00
N137   N     0.40210   0.52547   0.74692   0.00000  Uiso   1.00
N138   N     0.30160   0.51734   0.37304   0.00000  Uiso   1.00
C139   C     0.33540   0.42802   0.09001   0.00000  Uiso   1.00
C140   C     0.38246   0.52834   0.09829   0.00000  Uiso   1.00
C141   C     0.45803   0.53043   0.11057   0.00000  Uiso   1.00
C142   C     0.49090   0.63031   0.11655   0.00000  Uiso   1.00
C143   C     0.57024   0.77172   0.13036   0.00000  Uiso   1.00
C144   C     0.27197   0.43623   0.13355   0.00000  Uiso   1.00
C145   C     0.25463   0.36088   0.17548   0.00000  Uiso   1.00
C146   C     0.19448   0.38322   0.21114   0.00000  Uiso   1.00
C147   C     0.10225   0.38161   0.27967   0.00000  Uiso   1.00
C148   C     0.29968   0.43848   0.03051   0.00000  Uiso   1.00
C149   C     0.30562   0.36501   0.98580   0.00000  Uiso   1.00
C150   C     0.26878   0.38923   0.93471   0.00000  Uiso   1.00
C151   C     0.21958   0.39111   0.84325   0.00000  Uiso   1.00
C152   C     0.25939   0.60166   0.07879   0.00000  Uiso   1.00
C153   C     0.34117   0.62265   0.09220   0.00000  Uiso   1.00
C154   C     0.37393   0.72255   0.09816   0.00000  Uiso   1.00
C155   C     0.44954   0.72479   0.11044   0.00000  Uiso   1.00
C156   C     0.23068   0.53054   0.12746   0.00000  Uiso   1.00
C157   C     0.17054   0.55299   0.16307   0.00000  Uiso   1.00
C158   C     0.15312   0.47770   0.20504   0.00000  Uiso   1.00
C159   C     0.25839   0.53280   0.02442   0.00000  Uiso   1.00
C160   C     0.22153   0.55713   0.97339   0.00000  Uiso   1.00
C161   C     0.22742   0.48371   0.92861   0.00000  Uiso   1.00
H162   H     0.36754   0.35459   0.09476   0.00000  Uiso   1.00
H163   H     0.48996   0.45743   0.11529   0.00000  Uiso   1.00
H164   H     0.28659   0.28790   0.18018   0.00000  Uiso   1.00
H165   H     0.33757   0.29203   0.99053   0.00000  Uiso   1.00
H166   H     0.60747   0.61303   0.13538   0.00000  Uiso   1.00
H167   H     0.17864   0.25556   0.27220   0.00000  Uiso   1.00
H168   H     0.28615   0.26427   0.87228   0.00000  Uiso   1.00
H169   H     0.22724   0.67509   0.07405   0.00000  Uiso   1.00
H170   H     0.34197   0.79552   0.09344   0.00000  Uiso   1.00
H171   H     0.13860   0.62599   0.15834   0.00000  Uiso   1.00
H172   H     0.18958   0.63012   0.96869   0.00000  Uiso   1.00
H173   H     0.48736   0.88744   0.11765   0.00000  Uiso   1.00
H174   H     0.05852   0.52996   0.25448   0.00000  Uiso   1.00
H175   H     0.16604   0.53868   0.85456   0.00000  Uiso   1.00
O176   O     0.62541   0.82367   0.13966   0.00000  Uiso   1.00
O177   O     0.06279   0.35467   0.31916   0.00000  Uiso   1.00
O178   O     0.20385   0.36610   0.79448   0.00000  Uiso   1.00
N179   N     0.56346   0.66109   0.12853   0.00000  Uiso   1.00
N180   N     0.16254   0.32688   0.25646   0.00000  Uiso   1.00
N181   N     0.26303   0.33501   0.88258   0.00000  Uiso   1.00
N182   N     0.49883   0.80874   0.11899   0.00000  Uiso   1.00
N183   N     0.09790   0.47453   0.24692   0.00000  Uiso   1.00
N184   N     0.19840   0.48266   0.87304   0.00000  Uiso   1.00
C185   C     0.16460   0.92802   0.09001   0.00000  Uiso   1.00
C186   C     0.11754   0.02834   0.09829   0.00000  Uiso   1.00
C187   C     0.04197   0.03043   0.11057   0.00000  Uiso   1.00
C188   C     0.00910   0.13031   0.11655   0.00000  Uiso   1.00
C189   C     0.92976   0.27172   0.13036   0.00000  Uiso   1.00
C190   C     0.22803   0.93623   0.13355   0.00000  Uiso   1.00
C191   C     0.24537   0.86088   0.17548   0.00000  Uiso   1.00
C192   C     0.30552   0.88322   0.21114   0.00000  Uiso   1.00
C193   C     0.39775   0.88161   0.27967   0.00000  Uiso   1.00
C194   C     0.20032   0.93848   0.03051   0.00000  Uiso   1.00
C195   C     0.19438   0.86501   0.98580   0.00000  Uiso   1.00
C196   C     0.23122   0.88923   0.93471   0.00000  Uiso   1.00
C197   C     0.28042   0.89111   0.84325   0.00000  Uiso   1.00
C198   C     0.24061   0.10166   0.07879   0.00000  Uiso   1.00
C199   C     0.15883   0.12265   0.09220   0.00000  Uiso   1.00
C200   C     0.12607   0.22255   0.09816   0.00000  Uiso   1.00
C201   C     0.05046   0.22479   0.11044   0.00000  Uiso   1.00
C202   C     0.26932   0.03054   0.12746   0.00000  Uiso   1.00
C203   C     0.32946   0.05299   0.16307   0.00000  Uiso   1.00
C204   C     0.34688   0.97770   0.20504   0.00000  Uiso   1.00
C205   C     0.24161   0.03280   0.02442   0.00000  Uiso   1.00
C206   C     0.27847   0.05713   0.97339   0.00000  Uiso   1.00
C207   C     0.27258   0.98371   0.92861   0.00000  Uiso   1.00
H208   H     0.13246   0.85459   0.09476   0.00000  Uiso   1.00
H209   H     0.01004   0.95743   0.11529   0.00000  Uiso   1.00
H210   H     0.21341   0.78790   0.18018   0.00000  Uiso   1.00
H211   H     0.16243   0.79204   0.99053   0.00000  Uiso   1.00
H212   H     0.89253   0.11303   0.13538   0.00000  Uiso   1.00
H213   H     0.32136   0.75556   0.27220   0.00000  Uiso   1.00
H214   H     0.21385   0.76427   0.87228   0.00000  Uiso   1.00
H215   H     0.27276   0.17509   0.07405   0.00000  Uiso   1.00
H216   H     0.15803   0.29552   0.09344   0.00000  Uiso   1.00
H217   H     0.36140   0.12599   0.15834   0.00000  Uiso   1.00
H218   H     0.31042   0.13012   0.96869   0.00000  Uiso   1.00
H219   H     0.01264   0.38744   0.11765   0.00000  Uiso   1.00
H220   H     0.44148   0.02996   0.25448   0.00000  Uiso   1.00
H221   H     0.33396   0.03868   0.85456   0.00000  Uiso   1.00
O222   O     0.87459   0.32367   0.13966   0.00000  Uiso   1.00
O223   O     0.43721   0.85467   0.31916   0.00000  Uiso   1.00
O224   O     0.29615   0.86610   0.79448   0.00000  Uiso   1.00
N225   N     0.93654   0.16109   0.12853   0.00000  Uiso   1.00
N226   N     0.33746   0.82688   0.25646   0.00000  Uiso   1.00
N227   N     0.23697   0.83501   0.88258   0.00000  Uiso   1.00
N228   N     0.00117   0.30874   0.11899   0.00000  Uiso   1.00
N229   N     0.40210   0.97453   0.24692   0.00000  Uiso   1.00
N230   N     0.30160   0.98266   0.87304   0.00000  Uiso   1.00
C231   C     0.33540   0.07198   0.59001   0.00000  Uiso   1.00
C232   C     0.38246   0.97166   0.59829   0.00000  Uiso   1.00
C233   C     0.45803   0.96957   0.61057   0.00000  Uiso   1.00
C234   C     0.49090   0.86969   0.61655   0.00000  Uiso   1.00
C235   C     0.57024   0.72828   0.63036   0.00000  Uiso   1.00
C236   C     0.27197   0.06377   0.63355   0.00000  Uiso   1.00
C237   C     0.25463   0.13912   0.67548   0.00000  Uiso   1.00
C238   C     0.19448   0.11678   0.71114   0.00000  Uiso   1.00
C239   C     0.10225   0.11839   0.77967   0.00000  Uiso   1.00
C240   C     0.29968   0.06152   0.53051   0.00000  Uiso   1.00
C241   C     0.30562   0.13499   0.48580   0.00000  Uiso   1.00
C242   C     0.26878   0.11077   0.43471   0.00000  Uiso   1.00
C243   C     0.21958   0.10889   0.34325   0.00000  Uiso   1.00
C244   C     0.25939   0.89834   0.57879   0.00000  Uiso   1.00
C245   C     0.34117   0.87735   0.59220   0.00000  Uiso   1.00
C246   C     0.37393   0.77745   0.59816   0.00000  Uiso   1.00
C247   C     0.44954   0.77521   0.61044   0.00000  Uiso   1.00
C248   C     0.23068   0.96946   0.62746   0.00000  Uiso   1.00
C249   C     0.17054   0.94701   0.66307   0.00000  Uiso   1.00
C250   C     0.15312   0.02230   0.70504   0.00000  Uiso   1.00
C251   C     0.25839   0.96720   0.52442   0.00000  Uiso   1.00
C252   C     0.22153   0.94287   0.47339   0.00000  Uiso   1.00
C253   C     0.22742   0.01629   0.42861   0.00000  Uiso   1.00
H254   H     0.36754   0.14541   0.59476   0.00000  Uiso   1.00
H255   H     0.48996   0.04257   0.61529   0.00000  Uiso   1.00
H256   H     0.28659   0.21210   0.68018   0.00000  Uiso   1.00
H257   H     0.33757   0.20797   0.49053   0.00000  Uiso   1.00
H258   H     0.60747   0.88697   0.63538   0.00000  Uiso   1.00
H259   H     0.17864   0.24444   0.77220   0.00000  Uiso   1.00
H260   H     0.28615   0.23573   0.37228   0.00000  Uiso   1.00
H261   H     0.22724   0.82491   0.57405   0.00000  Uiso   1.00
H262   H     0.34197   0.70448   0.59344   0.00000  Uiso   1.00
H263   H     0.13860   0.87401   0.65834   0.00000  Uiso   1.00
H264   H     0.18958   0.86988   0.46869   0.00000  Uiso   1.00
H265   H     0.48736   0.61256   0.61765   0.00000  Uiso   1.00
H266   H     0.05852   0.97004   0.75448   0.00000  Uiso   1.00
H267   H     0.16604   0.96132   0.35456   0.00000  Uiso   1.00
O268   O     0.62541   0.67633   0.63966   0.00000  Uiso   1.00
O269   O     0.06279   0.14533   0.81916   0.00000  Uiso   1.00
O270   O     0.20385   0.13390   0.29448   0.00000  Uiso   1.00
N271   N     0.56346   0.83891   0.62853   0.00000  Uiso   1.00
N272   N     0.16254   0.17312   0.75646   0.00000  Uiso   1.00
N273   N     0.26303   0.16499   0.38258   0.00000  Uiso   1.00
N274   N     0.49883   0.69126   0.61899   0.00000  Uiso   1.00
N275   N     0.09790   0.02547   0.74692   0.00000  Uiso   1.00
N276   N     0.19840   0.01734   0.37304   0.00000  Uiso   1.00
C277   C     0.83540   0.42802   0.40999   0.00000  Uiso   1.00
C278   C     0.88246   0.52834   0.40171   0.00000  Uiso   1.00
C279   C     0.95803   0.53043   0.38943   0.00000  Uiso   1.00
C280   C     0.99090   0.63031   0.38345   0.00000  Uiso   1.00
C281   C     0.07024   0.77172   0.36964   0.00000  Uiso   1.00
C282   C     0.77197   0.43623   0.36645   0.00000  Uiso   1.00
C283   C     0.75463   0.36088   0.32452   0.00000  Uiso   1.00
C284   C     0.69448   0.38322   0.28886   0.00000  Uiso   1.00
C285   C     0.60225   0.38161   0.22033   0.00000  Uiso   1.00
C286   C     0.79968   0.43848   0.46949   0.00000  Uiso   1.00
C287   C     0.80562   0.36501   0.51420   0.00000  Uiso   1.00
C288   C     0.76878   0.38923   0.56529   0.00000  Uiso   1.00
C289   C     0.71958   0.39111   0.65675   0.00000  Uiso   1.00
C290   C     0.75939   0.60166   0.42121   0.00000  Uiso   1.00
C291   C     0.84117   0.62265   0.40780   0.00000  Uiso   1.00
C292   C     0.87393   0.72255   0.40184   0.00000  Uiso   1.00
C293   C     0.94954   0.72479   0.38956   0.00000  Uiso   1.00
C294   C     0.73068   0.53054   0.37254   0.00000  Uiso   1.00
C295   C     0.67054   0.55299   0.33693   0.00000  Uiso   1.00
C296   C     0.65312   0.47770   0.29496   0.00000  Uiso   1.00
C297   C     0.75839   0.53280   0.47558   0.00000  Uiso   1.00
C298   C     0.72153   0.55713   0.52661   0.00000  Uiso   1.00
C299   C     0.72742   0.48371   0.57139   0.00000  Uiso   1.00
H300   H     0.86754   0.35459   0.40524   0.00000  Uiso   1.00
H301   H     0.98996   0.45743   0.38471   0.00000  Uiso   1.00
H302   H     0.78659   0.28790   0.31982   0.00000  Uiso   1.00
H303   H     0.83757   0.29203   0.50947   0.00000  Uiso   1.00
H304   H     0.10747   0.61303   0.36462   0.00000  Uiso   1.00
H305   H     0.67864   0.25556   0.22780   0.00000  Uiso   1.00
H306   H     0.78615   0.26427   0.62772   0.00000  Uiso   1.00
H307   H     0.72724   0.67509   0.42595   0.00000  Uiso   1.00
H308   H     0.84197   0.79552   0.40656   0.00000  Uiso   1.00
H309   H     0.63860   0.62599   0.34166   0.00000  Uiso   1.00
H310   H     0.68958   0.63012   0.53131   0.00000  Uiso   1.00
H311   H     0.98736   0.88744   0.38235   0.00000  Uiso   1.00
H312   H     0.55852   0.52996   0.24552   0.00000  Uiso   1.00
H313   H     0.66604   0.53868   0.64544   0.00000  Uiso   1.00
O314   O     0.12541   0.82367   0.36034   0.00000  Uiso   1.00
O315   O     0.56279   0.35467   0.18084   0.00000  Uiso   1.00
O316   O     0.70385   0.36610   0.70552   0.00000  Uiso   1.00
N317   N     0.06346   0.66109   0.37147   0.00000  Uiso   1.00
N318   N     0.66254   0.32688   0.24354   0.00000  Uiso   1.00
N319   N     0.76303   0.33501   0.61742   0.00000  Uiso   1.00
N320   N     0.99883   0.80874   0.38101   0.00000  Uiso   1.00
N321   N     0.59790   0.47453   0.25308   0.00000  Uiso   1.00
N322   N     0.69840   0.48266   0.62696   0.00000  Uiso   1.00
C323   C     0.66460   0.57198   0.90999   0.00000  Uiso   1.00
C324   C     0.61754   0.47166   0.90171   0.00000  Uiso   1.00
C325   C     0.54197   0.46957   0.88943   0.00000  Uiso   1.00
C326   C     0.50910   0.36969   0.88345   0.00000  Uiso   1.00
C327   C     0.42976   0.22828   0.86964   0.00000  Uiso   1.00
C328   C     0.72803   0.56377   0.86645   0.00000  Uiso   1.00
C329   C     0.74537   0.63912   0.82452   0.00000  Uiso   1.00
C330   C     0.80552   0.61678   0.78886   0.00000  Uiso   1.00
C331   C     0.89775   0.61839   0.72033   0.00000  Uiso   1.00
C332   C     0.70032   0.56152   0.96949   0.00000  Uiso   1.00
C333   C     0.69438   0.63499   0.01420   0.00000  Uiso   1.00
C334   C     0.73122   0.61077   0.06529   0.00000  Uiso   1.00
C335   C     0.78042   0.60889   0.15675   0.00000  Uiso   1.00
C336   C     0.74061   0.39834   0.92121   0.00000  Uiso   1.00
C337   C     0.65883   0.37735   0.90780   0.00000  Uiso   1.00
C338   C     0.62607   0.27745   0.90184   0.00000  Uiso   1.00
C339   C     0.55046   0.27521   0.88956   0.00000  Uiso   1.00
C340   C     0.76932   0.46946   0.87254   0.00000  Uiso   1.00
C341   C     0.82946   0.44701   0.83693   0.00000  Uiso   1.00
C342   C     0.84688   0.52230   0.79496   0.00000  Uiso   1.00
C343   C     0.74161   0.46720   0.97558   0.00000  Uiso   1.00
C344   C     0.77847   0.44287   0.02661   0.00000  Uiso   1.00
C345   C     0.77258   0.51629   0.07139   0.00000  Uiso   1.00
H346   H     0.63246   0.64541   0.90524   0.00000  Uiso   1.00
H347   H     0.51004   0.54257   0.88471   0.00000  Uiso   1.00
H348   H     0.71341   0.71210   0.81982   0.00000  Uiso   1.00
H349   H     0.66243   0.70797   0.00947   0.00000  Uiso   1.00
H350   H     0.39253   0.38697   0.86462   0.00000  Uiso   1.00
H351   H     0.82136   0.74444   0.72780   0.00000  Uiso   1.00
H352   H     0.71385   0.73573   0.12772   0.00000  Uiso   1.00
H353   H     0.77276   0.32491   0.92595   0.00000  Uiso   1.00
H354   H     0.65803   0.20448   0.90656   0.00000  Uiso   1.00
H355   H     0.86140   0.37401   0.84166   0.00000  Uiso   1.00
H356   H     0.81042   0.36988   0.03131   0.00000  Uiso   1.00
H357   H     0.51264   0.11256   0.88235   0.00000  Uiso   1.00
H358   H     0.94148   0.47004   0.74552   0.00000  Uiso   1.00
H359   H     0.83396   0.46132   0.14544   0.00000  Uiso   1.00
O360   O     0.37459   0.17633   0.86034   0.00000  Uiso   1.00
O361   O     0.93721   0.64533   0.68084   0.00000  Uiso   1.00
O362   O     0.79615   0.63390   0.20552   0.00000  Uiso   1.00
N363   N     0.43654   0.33891   0.87147   0.00000  Uiso   1.00
N364   N     0.83746   0.67312   0.74354   0.00000  Uiso   1.00
N365   N     0.73697   0.66499   0.11742   0.00000  Uiso   1.00
N366   N     0.50117   0.19126   0.88101   0.00000  Uiso   1.00
N367   N     0.90210   0.52547   0.75308   0.00000  Uiso   1.00
N368   N     0.80160   0.51734   0.12696   0.00000  Uiso   1.00
