data_job_02610
_audit_creation_date              2018-12-19
_audit_creation_method            'Materials Studio'
_symmetry_space_group_name_H-M    'P1'
_symmetry_Int_Tables_number       1
_symmetry_cell_setting            triclinic
loop_
_symmetry_equiv_pos_as_xyz
  x,y,z
_cell_length_a                    18.7811
_cell_length_b                    13.0168
_cell_length_c                    22.0879
_cell_angle_alpha                 90.0000
_cell_angle_beta                  34.7264
_cell_angle_gamma                 90.0000
loop_
_atom_site_label
_atom_site_type_symbol
_atom_site_fract_x
_atom_site_fract_y
_atom_site_fract_z
_atom_site_U_iso_or_equiv
_atom_site_adp_type
_atom_site_occupancy
C1     C     0.12312   0.85003   0.46239   0.00000  Uiso   1.00
C2     C     0.01006   0.80563   0.57431   0.00000  Uiso   1.00
C3     C     0.89160   0.84895   0.65889   0.00000  Uiso   1.00
C4     C     0.80082   0.79646   0.75490   0.00000  Uiso   1.00
C5     C     0.62120   0.74161   0.92703   0.00000  Uiso   1.00
C6     C     0.22526   0.86148   0.43870   0.00000  Uiso   1.00
C7     C     0.28773   0.95175   0.40924   0.00000  Uiso   1.00
C8     C     0.37811   0.94627   0.39108   0.00000  Uiso   1.00
C9     C     0.53265   0.97812   0.35260   0.00000  Uiso   1.00
C10    C     0.16792   0.76631   0.38795   0.00000  Uiso   1.00
C11    C     0.18222   0.77657   0.31580   0.00000  Uiso   1.00
C12    C     0.22435   0.69097   0.25489   0.00000  Uiso   1.00
C13    C     0.28986   0.57505   0.13761   0.00000  Uiso   1.00
C14    C     0.17255   0.67977   0.48249   0.00000  Uiso   1.00
C15    C     0.03692   0.71315   0.58522   0.00000  Uiso   1.00
C16    C     0.94629   0.66058   0.68113   0.00000  Uiso   1.00
C17    C     0.82771   0.70382   0.76584   0.00000  Uiso   1.00
C18    C     0.25210   0.76901   0.44961   0.00000  Uiso   1.00
C19    C     0.34242   0.76339   0.43148   0.00000  Uiso   1.00
C20    C     0.40501   0.85363   0.40202   0.00000  Uiso   1.00
C21    C     0.19476   0.67383   0.39886   0.00000  Uiso   1.00
C22    C     0.23689   0.58820   0.33804   0.00000  Uiso   1.00
C23    C     0.25125   0.59833   0.26582   0.00000  Uiso   1.00
H24    H     0.10222   0.92202   0.45389   0.00000  Uiso   1.00
H25    H     0.87086   0.92052   0.65042   0.00000  Uiso   1.00
H26    H     0.26694   0.02330   0.40079   0.00000  Uiso   1.00
H27    H     0.16143   0.84814   0.30737   0.00000  Uiso   1.00
H28    H     0.62621   0.87809   0.87312   0.00000  Uiso   1.00
H29    H     0.46139   0.09481   0.34675   0.00000  Uiso   1.00
H30    H     0.23891   0.72545   0.14975   0.00000  Uiso   1.00
H31    H     0.19346   0.60777   0.49099   0.00000  Uiso   1.00
H32    H     0.96709   0.58902   0.68955   0.00000  Uiso   1.00
H33    H     0.36317   0.69181   0.43993   0.00000  Uiso   1.00
H34    H     0.25766   0.51665   0.34651   0.00000  Uiso   1.00
H35    H     0.70431   0.60904   0.90489   0.00000  Uiso   1.00
H36    H     0.53950   0.82576   0.37851   0.00000  Uiso   1.00
H37    H     0.31701   0.45640   0.18151   0.00000  Uiso   1.00
O38    O     0.51472   0.73692   0.01897   0.00000  Uiso   1.00
O39    O     0.61046   0.02124   0.32837   0.00000  Uiso   1.00
O40    O     0.31856   0.53665   0.06991   0.00000  Uiso   1.00
N41    N     0.67565   0.81733   0.85334   0.00000  Uiso   1.00
N42    N     0.45648   0.01995   0.36123   0.00000  Uiso   1.00
N43    N     0.24851   0.67465   0.17703   0.00000  Uiso   1.00
N44    N     0.71768   0.67256   0.87044   0.00000  Uiso   1.00
N45    N     0.49851   0.87518   0.37833   0.00000  Uiso   1.00
N46    N     0.29054   0.52987   0.19412   0.00000  Uiso   1.00
C47    C     0.87688   0.85003   0.03761   0.00000  Uiso   1.00
C48    C     0.98994   0.80563   0.92569   0.00000  Uiso   1.00
C49    C     0.10840   0.84895   0.84111   0.00000  Uiso   1.00
C50    C     0.19918   0.79646   0.74510   0.00000  Uiso   1.00
C51    C     0.37880   0.74161   0.57297   0.00000  Uiso   1.00
C52    C     0.77474   0.86148   0.06130   0.00000  Uiso   1.00
C53    C     0.71227   0.95175   0.09076   0.00000  Uiso   1.00
C54    C     0.62189   0.94627   0.10892   0.00000  Uiso   1.00
C55    C     0.46735   0.97812   0.14740   0.00000  Uiso   1.00
C56    C     0.83208   0.76631   0.11205   0.00000  Uiso   1.00
C57    C     0.81778   0.77657   0.18420   0.00000  Uiso   1.00
C58    C     0.77565   0.69097   0.24511   0.00000  Uiso   1.00
C59    C     0.71014   0.57505   0.36239   0.00000  Uiso   1.00
C60    C     0.82745   0.67977   0.01751   0.00000  Uiso   1.00
C61    C     0.96308   0.71315   0.91478   0.00000  Uiso   1.00
C62    C     0.05371   0.66058   0.81887   0.00000  Uiso   1.00
C63    C     0.17229   0.70382   0.73416   0.00000  Uiso   1.00
C64    C     0.74790   0.76901   0.05039   0.00000  Uiso   1.00
C65    C     0.65758   0.76339   0.06852   0.00000  Uiso   1.00
C66    C     0.59499   0.85363   0.09798   0.00000  Uiso   1.00
C67    C     0.80524   0.67383   0.10114   0.00000  Uiso   1.00
C68    C     0.76311   0.58820   0.16196   0.00000  Uiso   1.00
C69    C     0.74875   0.59833   0.23418   0.00000  Uiso   1.00
H70    H     0.89778   0.92202   0.04611   0.00000  Uiso   1.00
H71    H     0.12914   0.92052   0.84958   0.00000  Uiso   1.00
H72    H     0.73306   0.02330   0.09921   0.00000  Uiso   1.00
H73    H     0.83857   0.84814   0.19263   0.00000  Uiso   1.00
H74    H     0.37379   0.87809   0.62688   0.00000  Uiso   1.00
H75    H     0.53861   0.09481   0.15325   0.00000  Uiso   1.00
H76    H     0.76109   0.72545   0.35025   0.00000  Uiso   1.00
H77    H     0.80654   0.60777   0.00901   0.00000  Uiso   1.00
H78    H     0.03291   0.58902   0.81045   0.00000  Uiso   1.00
H79    H     0.63683   0.69181   0.06007   0.00000  Uiso   1.00
H80    H     0.74234   0.51665   0.15349   0.00000  Uiso   1.00
H81    H     0.29569   0.60904   0.59511   0.00000  Uiso   1.00
H82    H     0.46050   0.82576   0.12149   0.00000  Uiso   1.00
H83    H     0.68299   0.45640   0.31849   0.00000  Uiso   1.00
O84    O     0.48528   0.73692   0.48103   0.00000  Uiso   1.00
O85    O     0.38954   0.02124   0.17163   0.00000  Uiso   1.00
O86    O     0.68144   0.53665   0.43009   0.00000  Uiso   1.00
N87    N     0.32435   0.81733   0.64666   0.00000  Uiso   1.00
N88    N     0.54352   0.01995   0.13877   0.00000  Uiso   1.00
N89    N     0.75149   0.67465   0.32297   0.00000  Uiso   1.00
N90    N     0.28232   0.67256   0.62956   0.00000  Uiso   1.00
N91    N     0.50149   0.87518   0.12167   0.00000  Uiso   1.00
N92    N     0.70946   0.52987   0.30588   0.00000  Uiso   1.00
C93    C     0.87688   0.14997   0.53761   0.00000  Uiso   1.00
C94    C     0.98994   0.19437   0.42569   0.00000  Uiso   1.00
C95    C     0.10840   0.15105   0.34111   0.00000  Uiso   1.00
C96    C     0.19918   0.20354   0.24510   0.00000  Uiso   1.00
C97    C     0.37880   0.25839   0.07297   0.00000  Uiso   1.00
C98    C     0.77474   0.13852   0.56130   0.00000  Uiso   1.00
C99    C     0.71227   0.04825   0.59076   0.00000  Uiso   1.00
C100   C     0.62189   0.05373   0.60892   0.00000  Uiso   1.00
C101   C     0.46735   0.02188   0.64740   0.00000  Uiso   1.00
C102   C     0.83208   0.23369   0.61205   0.00000  Uiso   1.00
C103   C     0.81778   0.22343   0.68420   0.00000  Uiso   1.00
C104   C     0.77565   0.30903   0.74511   0.00000  Uiso   1.00
C105   C     0.71014   0.42495   0.86239   0.00000  Uiso   1.00
C106   C     0.82745   0.32023   0.51751   0.00000  Uiso   1.00
C107   C     0.96308   0.28685   0.41478   0.00000  Uiso   1.00
C108   C     0.05371   0.33942   0.31887   0.00000  Uiso   1.00
C109   C     0.17229   0.29618   0.23416   0.00000  Uiso   1.00
C110   C     0.74790   0.23099   0.55039   0.00000  Uiso   1.00
C111   C     0.65758   0.23661   0.56852   0.00000  Uiso   1.00
C112   C     0.59499   0.14637   0.59798   0.00000  Uiso   1.00
C113   C     0.80524   0.32617   0.60114   0.00000  Uiso   1.00
C114   C     0.76311   0.41180   0.66196   0.00000  Uiso   1.00
C115   C     0.74875   0.40167   0.73418   0.00000  Uiso   1.00
H116   H     0.89778   0.07798   0.54611   0.00000  Uiso   1.00
H117   H     0.12914   0.07948   0.34958   0.00000  Uiso   1.00
H118   H     0.73306   0.97670   0.59921   0.00000  Uiso   1.00
H119   H     0.83857   0.15186   0.69263   0.00000  Uiso   1.00
H120   H     0.37379   0.12191   0.12688   0.00000  Uiso   1.00
H121   H     0.53861   0.90519   0.65325   0.00000  Uiso   1.00
H122   H     0.76109   0.27455   0.85025   0.00000  Uiso   1.00
H123   H     0.80654   0.39223   0.50901   0.00000  Uiso   1.00
H124   H     0.03291   0.41098   0.31045   0.00000  Uiso   1.00
H125   H     0.63683   0.30819   0.56007   0.00000  Uiso   1.00
H126   H     0.74234   0.48335   0.65349   0.00000  Uiso   1.00
H127   H     0.29569   0.39096   0.09511   0.00000  Uiso   1.00
H128   H     0.46050   0.17424   0.62149   0.00000  Uiso   1.00
H129   H     0.68299   0.54360   0.81849   0.00000  Uiso   1.00
O130   O     0.48528   0.26308   0.98103   0.00000  Uiso   1.00
O131   O     0.38954   0.97876   0.67163   0.00000  Uiso   1.00
O132   O     0.68144   0.46335   0.93009   0.00000  Uiso   1.00
N133   N     0.32435   0.18267   0.14666   0.00000  Uiso   1.00
N134   N     0.54352   0.98005   0.63877   0.00000  Uiso   1.00
N135   N     0.75149   0.32535   0.82297   0.00000  Uiso   1.00
N136   N     0.28232   0.32744   0.12956   0.00000  Uiso   1.00
N137   N     0.50149   0.12482   0.62167   0.00000  Uiso   1.00
N138   N     0.70946   0.47013   0.80588   0.00000  Uiso   1.00
C139   C     0.12312   0.14997   0.96239   0.00000  Uiso   1.00
C140   C     0.01006   0.19437   0.07431   0.00000  Uiso   1.00
C141   C     0.89160   0.15105   0.15889   0.00000  Uiso   1.00
C142   C     0.80082   0.20354   0.25490   0.00000  Uiso   1.00
C143   C     0.62120   0.25839   0.42703   0.00000  Uiso   1.00
C144   C     0.22526   0.13852   0.93870   0.00000  Uiso   1.00
C145   C     0.28773   0.04825   0.90924   0.00000  Uiso   1.00
C146   C     0.37811   0.05373   0.89108   0.00000  Uiso   1.00
C147   C     0.53265   0.02188   0.85260   0.00000  Uiso   1.00
C148   C     0.16792   0.23369   0.88795   0.00000  Uiso   1.00
C149   C     0.18222   0.22343   0.81580   0.00000  Uiso   1.00
C150   C     0.22435   0.30903   0.75489   0.00000  Uiso   1.00
C151   C     0.28986   0.42495   0.63761   0.00000  Uiso   1.00
C152   C     0.17255   0.32023   0.98249   0.00000  Uiso   1.00
C153   C     0.03692   0.28685   0.08522   0.00000  Uiso   1.00
C154   C     0.94629   0.33942   0.18113   0.00000  Uiso   1.00
C155   C     0.82771   0.29618   0.26584   0.00000  Uiso   1.00
C156   C     0.25210   0.23099   0.94961   0.00000  Uiso   1.00
C157   C     0.34242   0.23661   0.93148   0.00000  Uiso   1.00
C158   C     0.40501   0.14637   0.90202   0.00000  Uiso   1.00
C159   C     0.19476   0.32617   0.89886   0.00000  Uiso   1.00
C160   C     0.23689   0.41180   0.83804   0.00000  Uiso   1.00
C161   C     0.25125   0.40167   0.76582   0.00000  Uiso   1.00
H162   H     0.10222   0.07798   0.95389   0.00000  Uiso   1.00
H163   H     0.87086   0.07948   0.15042   0.00000  Uiso   1.00
H164   H     0.26694   0.97670   0.90079   0.00000  Uiso   1.00
H165   H     0.16143   0.15186   0.80737   0.00000  Uiso   1.00
H166   H     0.62621   0.12191   0.37312   0.00000  Uiso   1.00
H167   H     0.46139   0.90519   0.84675   0.00000  Uiso   1.00
H168   H     0.23891   0.27455   0.64975   0.00000  Uiso   1.00
H169   H     0.19346   0.39223   0.99099   0.00000  Uiso   1.00
H170   H     0.96709   0.41098   0.18955   0.00000  Uiso   1.00
H171   H     0.36317   0.30819   0.93993   0.00000  Uiso   1.00
H172   H     0.25766   0.48335   0.84651   0.00000  Uiso   1.00
H173   H     0.70431   0.39096   0.40489   0.00000  Uiso   1.00
H174   H     0.53950   0.17424   0.87851   0.00000  Uiso   1.00
H175   H     0.31701   0.54360   0.68151   0.00000  Uiso   1.00
O176   O     0.51472   0.26308   0.51897   0.00000  Uiso   1.00
O177   O     0.61046   0.97876   0.82837   0.00000  Uiso   1.00
O178   O     0.31856   0.46335   0.56991   0.00000  Uiso   1.00
N179   N     0.67565   0.18267   0.35334   0.00000  Uiso   1.00
N180   N     0.45648   0.98005   0.86123   0.00000  Uiso   1.00
N181   N     0.24851   0.32535   0.67703   0.00000  Uiso   1.00
N182   N     0.71768   0.32744   0.37044   0.00000  Uiso   1.00
N183   N     0.49851   0.12482   0.87833   0.00000  Uiso   1.00
N184   N     0.29054   0.47013   0.69412   0.00000  Uiso   1.00
