data_job_06043
_audit_creation_date              2018-12-19
_audit_creation_method            'Materials Studio'
_symmetry_space_group_name_H-M    'P1'
_symmetry_Int_Tables_number       1
_symmetry_cell_setting            triclinic
loop_
_symmetry_equiv_pos_as_xyz
  x,y,z
_cell_length_a                    15.8774
_cell_length_b                    15.8742
_cell_length_c                    15.8647
_cell_angle_alpha                 85.9572
_cell_angle_beta                  85.8789
_cell_angle_gamma                 85.7797
loop_
_atom_site_label
_atom_site_type_symbol
_atom_site_fract_x
_atom_site_fract_y
_atom_site_fract_z
_atom_site_U_iso_or_equiv
_atom_site_adp_type
_atom_site_occupancy
C1     C     0.58575   0.85910   0.17531   0.00000  Uiso   1.00
C2     C     0.62452   0.93679   0.13077   0.00000  Uiso   1.00
C3     C     0.58588   0.01810   0.12506   0.00000  Uiso   1.00
C4     C     0.63186   0.08050   0.08160   0.00000  Uiso   1.00
C5     C     0.67961   0.20392   0.01794   0.00000  Uiso   1.00
C6     C     0.58821   0.79380   0.10897   0.00000  Uiso   1.00
C7     C     0.51904   0.75490   0.08495   0.00000  Uiso   1.00
C8     C     0.53447   0.69693   0.02315   0.00000  Uiso   1.00
C9     C     0.52586   0.59831   0.92569   0.00000  Uiso   1.00
C10    C     0.64759   0.82355   0.24024   0.00000  Uiso   1.00
C11    C     0.62834   0.80963   0.32659   0.00000  Uiso   1.00
C12    C     0.69375   0.77669   0.37531   0.00000  Uiso   1.00
C13    C     0.77733   0.72427   0.48167   0.00000  Uiso   1.00
C14    C     0.73615   0.82532   0.10827   0.00000  Uiso   1.00
C15    C     0.70621   0.91844   0.09435   0.00000  Uiso   1.00
C16    C     0.75227   0.98073   0.05089   0.00000  Uiso   1.00
C17    C     0.71370   0.06213   0.04512   0.00000  Uiso   1.00
C18    C     0.66990   0.77546   0.07256   0.00000  Uiso   1.00
C19    C     0.68543   0.71752   0.01078   0.00000  Uiso   1.00
C20    C     0.61630   0.67855   0.98667   0.00000  Uiso   1.00
C21    C     0.72928   0.80521   0.20383   0.00000  Uiso   1.00
C22    C     0.79473   0.77227   0.25242   0.00000  Uiso   1.00
C23    C     0.77559   0.75831   0.33883   0.00000  Uiso   1.00
H24    H     0.52216   0.87338   0.20366   0.00000  Uiso   1.00
H25    H     0.52265   0.03227   0.15325   0.00000  Uiso   1.00
H26    H     0.45583   0.76910   0.11315   0.00000  Uiso   1.00
H27    H     0.56511   0.82384   0.35475   0.00000  Uiso   1.00
H28    H     0.55922   0.20034   0.08127   0.00000  Uiso   1.00
H29    H     0.41833   0.64541   0.99674   0.00000  Uiso   1.00
H30    H     0.64877   0.76083   0.50621   0.00000  Uiso   1.00
H31    H     0.79975   0.81103   0.07992   0.00000  Uiso   1.00
H32    H     0.81548   0.96651   0.02272   0.00000  Uiso   1.00
H33    H     0.74866   0.70334   0.98262   0.00000  Uiso   1.00
H34    H     0.85794   0.75808   0.22422   0.00000  Uiso   1.00
H35    H     0.79688   0.14697   0.97532   0.00000  Uiso   1.00
H36    H     0.65600   0.59203   0.89080   0.00000  Uiso   1.00
H37    H     0.88644   0.70746   0.40026   0.00000  Uiso   1.00
O38    O     0.68338   0.27706   0.99287   0.00000  Uiso   1.00
O39    O     0.49854   0.54899   0.88199   0.00000  Uiso   1.00
O40    O     0.80087   0.70043   0.55039   0.00000  Uiso   1.00
N41    N     0.61300   0.16645   0.06420   0.00000  Uiso   1.00
N42    N     0.48127   0.64763   0.98516   0.00000  Uiso   1.00
N43    N     0.69671   0.75551   0.46147   0.00000  Uiso   1.00
N44    N     0.74089   0.13773   0.00719   0.00000  Uiso   1.00
N45    N     0.60916   0.61891   0.92815   0.00000  Uiso   1.00
N46    N     0.82460   0.72679   0.40446   0.00000  Uiso   1.00
C47    C     0.17482   0.58610   0.85887   0.00000  Uiso   1.00
C48    C     0.13020   0.62503   0.93669   0.00000  Uiso   1.00
C49    C     0.12447   0.58652   0.01799   0.00000  Uiso   1.00
C50    C     0.08093   0.63264   0.08053   0.00000  Uiso   1.00
C51    C     0.01716   0.68065   0.20412   0.00000  Uiso   1.00
C52    C     0.10858   0.58851   0.79358   0.00000  Uiso   1.00
C53    C     0.08468   0.51928   0.75455   0.00000  Uiso   1.00
C54    C     0.02295   0.53467   0.69661   0.00000  Uiso   1.00
C55    C     0.92566   0.52598   0.59798   0.00000  Uiso   1.00
C56    C     0.23967   0.64784   0.82337   0.00000  Uiso   1.00
C57    C     0.32599   0.62850   0.80937   0.00000  Uiso   1.00
C58    C     0.37463   0.69383   0.77649   0.00000  Uiso   1.00
C59    C     0.48088   0.77726   0.72411   0.00000  Uiso   1.00
C60    C     0.10770   0.73652   0.82536   0.00000  Uiso   1.00
C61    C     0.09374   0.70673   0.91849   0.00000  Uiso   1.00
C62    C     0.05020   0.75293   0.98091   0.00000  Uiso   1.00
C63    C     0.04441   0.71449   0.06229   0.00000  Uiso   1.00
C64    C     0.07212   0.67021   0.77538   0.00000  Uiso   1.00
C65    C     0.01042   0.68570   0.71748   0.00000  Uiso   1.00
C66    C     0.98643   0.61651   0.67838   0.00000  Uiso   1.00
C67    C     0.20321   0.72954   0.80517   0.00000  Uiso   1.00
C68    C     0.25173   0.79492   0.77230   0.00000  Uiso   1.00
C69    C     0.33811   0.77568   0.75825   0.00000  Uiso   1.00
H70    H     0.20320   0.52250   0.87304   0.00000  Uiso   1.00
H71    H     0.15268   0.52328   0.03205   0.00000  Uiso   1.00
H72    H     0.11291   0.45607   0.76865   0.00000  Uiso   1.00
H73    H     0.35418   0.56527   0.82346   0.00000  Uiso   1.00
H74    H     0.08057   0.56018   0.20031   0.00000  Uiso   1.00
H75    H     0.99673   0.41845   0.64489   0.00000  Uiso   1.00
H76    H     0.50550   0.64871   0.76047   0.00000  Uiso   1.00
H77    H     0.07931   0.80013   0.81118   0.00000  Uiso   1.00
H78    H     0.02200   0.81616   0.96681   0.00000  Uiso   1.00
H79    H     0.98223   0.74893   0.70341   0.00000  Uiso   1.00
H80    H     0.22350   0.85813   0.75822   0.00000  Uiso   1.00
H81    H     0.97450   0.79788   0.14736   0.00000  Uiso   1.00
H82    H     0.89066   0.65615   0.59193   0.00000  Uiso   1.00
H83    H     0.39943   0.88642   0.70752   0.00000  Uiso   1.00
O84    O     0.99204   0.68455   0.27732   0.00000  Uiso   1.00
O85    O     0.88206   0.49861   0.54862   0.00000  Uiso   1.00
O86    O     0.54955   0.80071   0.70026   0.00000  Uiso   1.00
N87    N     0.06349   0.61393   0.16650   0.00000  Uiso   1.00
N88    N     0.98509   0.48142   0.64722   0.00000  Uiso   1.00
N89    N     0.46075   0.69669   0.75526   0.00000  Uiso   1.00
N90    N     0.00641   0.74183   0.13800   0.00000  Uiso   1.00
N91    N     0.92802   0.60932   0.61873   0.00000  Uiso   1.00
N92    N     0.40367   0.82460   0.72676   0.00000  Uiso   1.00
C93    C     0.85890   0.17472   0.58644   0.00000  Uiso   1.00
C94    C     0.93668   0.13010   0.62527   0.00000  Uiso   1.00
C95    C     0.01796   0.12424   0.58668   0.00000  Uiso   1.00
C96    C     0.08046   0.08072   0.63272   0.00000  Uiso   1.00
C97    C     0.20399   0.01692   0.68058   0.00000  Uiso   1.00
C98    C     0.79373   0.10853   0.58877   0.00000  Uiso   1.00
C99    C     0.75481   0.08454   0.51949   0.00000  Uiso   1.00
C100   C     0.69696   0.02288   0.53481   0.00000  Uiso   1.00
C101   C     0.59851   0.92563   0.52601   0.00000  Uiso   1.00
C102   C     0.82331   0.23971   0.64834   0.00000  Uiso   1.00
C103   C     0.80924   0.32603   0.62913   0.00000  Uiso   1.00
C104   C     0.77627   0.37480   0.69460   0.00000  Uiso   1.00
C105   C     0.72375   0.48124   0.77828   0.00000  Uiso   1.00
C106   C     0.82535   0.10785   0.73684   0.00000  Uiso   1.00
C107   C     0.91845   0.09378   0.70697   0.00000  Uiso   1.00
C108   C     0.98084   0.05026   0.75309   0.00000  Uiso   1.00
C109   C     0.06221   0.04434   0.71457   0.00000  Uiso   1.00
C110   C     0.77550   0.07221   0.67046   0.00000  Uiso   1.00
C111   C     0.71769   0.01056   0.68590   0.00000  Uiso   1.00
C112   C     0.67870   0.98649   0.61666   0.00000  Uiso   1.00
C113   C     0.80508   0.20339   0.73003   0.00000  Uiso   1.00
C114   C     0.77213   0.25204   0.79554   0.00000  Uiso   1.00
C115   C     0.75801   0.33842   0.77644   0.00000  Uiso   1.00
H116   H     0.87308   0.20299   0.52283   0.00000  Uiso   1.00
H117   H     0.03204   0.15235   0.52345   0.00000  Uiso   1.00
H118   H     0.76892   0.11267   0.45628   0.00000  Uiso   1.00
H119   H     0.82335   0.35411   0.56590   0.00000  Uiso   1.00
H120   H     0.20022   0.08015   0.56015   0.00000  Uiso   1.00
H121   H     0.64540   0.99650   0.41852   0.00000  Uiso   1.00
H122   H     0.76017   0.50563   0.64968   0.00000  Uiso   1.00
H123   H     0.81116   0.07958   0.80045   0.00000  Uiso   1.00
H124   H     0.96672   0.02216   0.81630   0.00000  Uiso   1.00
H125   H     0.70360   0.98248   0.74913   0.00000  Uiso   1.00
H126   H     0.75803   0.22392   0.85875   0.00000  Uiso   1.00
H127   H     0.14721   0.97448   0.79784   0.00000  Uiso   1.00
H128   H     0.59238   0.89084   0.65620   0.00000  Uiso   1.00
H129   H     0.70716   0.39996   0.88737   0.00000  Uiso   1.00
O130   O     0.27716   0.99175   0.68440   0.00000  Uiso   1.00
O131   O     0.54925   0.88202   0.49859   0.00000  Uiso   1.00
O132   O     0.69983   0.54998   0.80187   0.00000  Uiso   1.00
N133   N     0.16640   0.06318   0.61392   0.00000  Uiso   1.00
N134   N     0.64769   0.98496   0.48150   0.00000  Uiso   1.00
N135   N     0.75496   0.46095   0.69761   0.00000  Uiso   1.00
N136   N     0.13788   0.00632   0.74182   0.00000  Uiso   1.00
N137   N     0.61916   0.92810   0.60940   0.00000  Uiso   1.00
N138   N     0.72644   0.40409   0.82551   0.00000  Uiso   1.00
C139   C     0.41425   0.14090   0.82469   0.00000  Uiso   1.00
C140   C     0.37548   0.06321   0.86923   0.00000  Uiso   1.00
C141   C     0.41412   0.98190   0.87494   0.00000  Uiso   1.00
C142   C     0.36814   0.91950   0.91840   0.00000  Uiso   1.00
C143   C     0.32039   0.79608   0.98206   0.00000  Uiso   1.00
C144   C     0.41179   0.20620   0.89103   0.00000  Uiso   1.00
C145   C     0.48096   0.24510   0.91505   0.00000  Uiso   1.00
C146   C     0.46553   0.30307   0.97685   0.00000  Uiso   1.00
C147   C     0.47414   0.40169   0.07431   0.00000  Uiso   1.00
C148   C     0.35241   0.17645   0.75976   0.00000  Uiso   1.00
C149   C     0.37166   0.19037   0.67341   0.00000  Uiso   1.00
C150   C     0.30625   0.22331   0.62469   0.00000  Uiso   1.00
C151   C     0.22267   0.27573   0.51833   0.00000  Uiso   1.00
C152   C     0.26385   0.17468   0.89173   0.00000  Uiso   1.00
C153   C     0.29379   0.08156   0.90565   0.00000  Uiso   1.00
C154   C     0.24773   0.01927   0.94911   0.00000  Uiso   1.00
C155   C     0.28630   0.93787   0.95488   0.00000  Uiso   1.00
C156   C     0.33010   0.22454   0.92744   0.00000  Uiso   1.00
C157   C     0.31456   0.28248   0.98922   0.00000  Uiso   1.00
C158   C     0.38370   0.32145   0.01333   0.00000  Uiso   1.00
C159   C     0.27072   0.19479   0.79617   0.00000  Uiso   1.00
C160   C     0.20527   0.22773   0.74758   0.00000  Uiso   1.00
C161   C     0.22441   0.24169   0.66117   0.00000  Uiso   1.00
H162   H     0.47784   0.12662   0.79634   0.00000  Uiso   1.00
H163   H     0.47735   0.96773   0.84675   0.00000  Uiso   1.00
H164   H     0.54417   0.23090   0.88685   0.00000  Uiso   1.00
H165   H     0.43489   0.17616   0.64525   0.00000  Uiso   1.00
H166   H     0.44078   0.79966   0.91873   0.00000  Uiso   1.00
H167   H     0.58167   0.35459   0.00326   0.00000  Uiso   1.00
H168   H     0.35123   0.23917   0.49379   0.00000  Uiso   1.00
H169   H     0.20025   0.18897   0.92008   0.00000  Uiso   1.00
H170   H     0.18452   0.03349   0.97728   0.00000  Uiso   1.00
H171   H     0.25134   0.29666   0.01738   0.00000  Uiso   1.00
H172   H     0.14206   0.24192   0.77578   0.00000  Uiso   1.00
H173   H     0.20312   0.85303   0.02468   0.00000  Uiso   1.00
H174   H     0.34400   0.40797   0.10920   0.00000  Uiso   1.00
H175   H     0.11356   0.29254   0.59974   0.00000  Uiso   1.00
O176   O     0.31662   0.72294   0.00713   0.00000  Uiso   1.00
O177   O     0.50146   0.45101   0.11801   0.00000  Uiso   1.00
O178   O     0.19913   0.29957   0.44961   0.00000  Uiso   1.00
N179   N     0.38700   0.83355   0.93580   0.00000  Uiso   1.00
N180   N     0.51873   0.35237   0.01484   0.00000  Uiso   1.00
N181   N     0.30329   0.24449   0.53853   0.00000  Uiso   1.00
N182   N     0.25911   0.86227   0.99281   0.00000  Uiso   1.00
N183   N     0.39084   0.38109   0.07185   0.00000  Uiso   1.00
N184   N     0.17540   0.27321   0.59554   0.00000  Uiso   1.00
C185   C     0.82518   0.41390   0.14113   0.00000  Uiso   1.00
C186   C     0.86980   0.37497   0.06331   0.00000  Uiso   1.00
C187   C     0.87553   0.41348   0.98201   0.00000  Uiso   1.00
C188   C     0.91907   0.36736   0.91947   0.00000  Uiso   1.00
C189   C     0.98284   0.31935   0.79588   0.00000  Uiso   1.00
C190   C     0.89142   0.41149   0.20642   0.00000  Uiso   1.00
C191   C     0.91532   0.48072   0.24545   0.00000  Uiso   1.00
C192   C     0.97705   0.46533   0.30339   0.00000  Uiso   1.00
C193   C     0.07434   0.47402   0.40202   0.00000  Uiso   1.00
C194   C     0.76033   0.35216   0.17663   0.00000  Uiso   1.00
C195   C     0.67401   0.37150   0.19063   0.00000  Uiso   1.00
C196   C     0.62537   0.30617   0.22351   0.00000  Uiso   1.00
C197   C     0.51912   0.22274   0.27589   0.00000  Uiso   1.00
C198   C     0.89230   0.26348   0.17464   0.00000  Uiso   1.00
C199   C     0.90626   0.29327   0.08151   0.00000  Uiso   1.00
C200   C     0.94980   0.24707   0.01909   0.00000  Uiso   1.00
C201   C     0.95559   0.28551   0.93771   0.00000  Uiso   1.00
C202   C     0.92788   0.32979   0.22462   0.00000  Uiso   1.00
C203   C     0.98958   0.31430   0.28252   0.00000  Uiso   1.00
C204   C     0.01357   0.38349   0.32162   0.00000  Uiso   1.00
C205   C     0.79678   0.27046   0.19483   0.00000  Uiso   1.00
C206   C     0.74827   0.20508   0.22770   0.00000  Uiso   1.00
C207   C     0.66189   0.22432   0.24175   0.00000  Uiso   1.00
H208   H     0.79680   0.47750   0.12696   0.00000  Uiso   1.00
H209   H     0.84732   0.47672   0.96795   0.00000  Uiso   1.00
H210   H     0.88709   0.54393   0.23135   0.00000  Uiso   1.00
H211   H     0.64582   0.43473   0.17654   0.00000  Uiso   1.00
H212   H     0.91943   0.43982   0.79969   0.00000  Uiso   1.00
H213   H     0.00327   0.58155   0.35511   0.00000  Uiso   1.00
H214   H     0.49450   0.35129   0.23953   0.00000  Uiso   1.00
H215   H     0.92069   0.19987   0.18882   0.00000  Uiso   1.00
H216   H     0.97800   0.18384   0.03319   0.00000  Uiso   1.00
H217   H     0.01777   0.25107   0.29659   0.00000  Uiso   1.00
H218   H     0.77650   0.14187   0.24178   0.00000  Uiso   1.00
H219   H     0.02550   0.20212   0.85264   0.00000  Uiso   1.00
H220   H     0.10934   0.34385   0.40807   0.00000  Uiso   1.00
H221   H     0.60057   0.11358   0.29248   0.00000  Uiso   1.00
O222   O     0.00796   0.31545   0.72268   0.00000  Uiso   1.00
O223   O     0.11794   0.50139   0.45138   0.00000  Uiso   1.00
O224   O     0.45045   0.19929   0.29974   0.00000  Uiso   1.00
N225   N     0.93651   0.38607   0.83350   0.00000  Uiso   1.00
N226   N     0.01491   0.51858   0.35278   0.00000  Uiso   1.00
N227   N     0.53925   0.30331   0.24474   0.00000  Uiso   1.00
N228   N     0.99359   0.25817   0.86200   0.00000  Uiso   1.00
N229   N     0.07198   0.39068   0.38127   0.00000  Uiso   1.00
N230   N     0.59633   0.17540   0.27324   0.00000  Uiso   1.00
C231   C     0.14110   0.82528   0.41356   0.00000  Uiso   1.00
C232   C     0.06332   0.86990   0.37473   0.00000  Uiso   1.00
C233   C     0.98204   0.87576   0.41332   0.00000  Uiso   1.00
C234   C     0.91954   0.91928   0.36728   0.00000  Uiso   1.00
C235   C     0.79601   0.98308   0.31942   0.00000  Uiso   1.00
C236   C     0.20627   0.89147   0.41123   0.00000  Uiso   1.00
C237   C     0.24519   0.91546   0.48051   0.00000  Uiso   1.00
C238   C     0.30304   0.97712   0.46519   0.00000  Uiso   1.00
C239   C     0.40149   0.07437   0.47399   0.00000  Uiso   1.00
C240   C     0.17669   0.76029   0.35166   0.00000  Uiso   1.00
C241   C     0.19076   0.67397   0.37087   0.00000  Uiso   1.00
C242   C     0.22373   0.62520   0.30540   0.00000  Uiso   1.00
C243   C     0.27625   0.51876   0.22172   0.00000  Uiso   1.00
C244   C     0.17465   0.89215   0.26316   0.00000  Uiso   1.00
C245   C     0.08155   0.90622   0.29303   0.00000  Uiso   1.00
C246   C     0.01916   0.94974   0.24691   0.00000  Uiso   1.00
C247   C     0.93779   0.95566   0.28543   0.00000  Uiso   1.00
C248   C     0.22450   0.92779   0.32954   0.00000  Uiso   1.00
C249   C     0.28231   0.98943   0.31410   0.00000  Uiso   1.00
C250   C     0.32130   0.01351   0.38334   0.00000  Uiso   1.00
C251   C     0.19491   0.79661   0.26997   0.00000  Uiso   1.00
C252   C     0.22787   0.74796   0.20446   0.00000  Uiso   1.00
C253   C     0.24198   0.66158   0.22356   0.00000  Uiso   1.00
H254   H     0.12692   0.79701   0.47717   0.00000  Uiso   1.00
H255   H     0.96796   0.84765   0.47655   0.00000  Uiso   1.00
H256   H     0.23108   0.88733   0.54372   0.00000  Uiso   1.00
H257   H     0.17665   0.64589   0.43410   0.00000  Uiso   1.00
H258   H     0.79978   0.91985   0.43985   0.00000  Uiso   1.00
H259   H     0.35460   0.00350   0.58148   0.00000  Uiso   1.00
H260   H     0.23983   0.49437   0.35032   0.00000  Uiso   1.00
H261   H     0.18884   0.92042   0.19955   0.00000  Uiso   1.00
H262   H     0.03328   0.97784   0.18370   0.00000  Uiso   1.00
H263   H     0.29640   0.01752   0.25087   0.00000  Uiso   1.00
H264   H     0.24197   0.77608   0.14125   0.00000  Uiso   1.00
H265   H     0.85279   0.02552   0.20216   0.00000  Uiso   1.00
H266   H     0.40762   0.10916   0.34380   0.00000  Uiso   1.00
H267   H     0.29284   0.60004   0.11263   0.00000  Uiso   1.00
O268   O     0.72284   0.00825   0.31560   0.00000  Uiso   1.00
O269   O     0.45075   0.11798   0.50141   0.00000  Uiso   1.00
O270   O     0.30017   0.45002   0.19813   0.00000  Uiso   1.00
N271   N     0.83360   0.93682   0.38608   0.00000  Uiso   1.00
N272   N     0.35231   0.01504   0.51850   0.00000  Uiso   1.00
N273   N     0.24504   0.53905   0.30239   0.00000  Uiso   1.00
N274   N     0.86212   0.99368   0.25818   0.00000  Uiso   1.00
N275   N     0.38084   0.07190   0.39060   0.00000  Uiso   1.00
N276   N     0.27356   0.59591   0.17449   0.00000  Uiso   1.00
