data_job_02400
_audit_creation_date              2018-12-19
_audit_creation_method            'Materials Studio'
_symmetry_space_group_name_H-M    'P1'
_symmetry_Int_Tables_number       1
_symmetry_cell_setting            triclinic
loop_
_symmetry_equiv_pos_as_xyz
  x,y,z
_cell_length_a                    19.6440
_cell_length_b                    15.2728
_cell_length_c                    18.7996
_cell_angle_alpha                 90.0000
_cell_angle_beta                  90.0000
_cell_angle_gamma                 90.0000
loop_
_atom_site_label
_atom_site_type_symbol
_atom_site_fract_x
_atom_site_fract_y
_atom_site_fract_z
_atom_site_U_iso_or_equiv
_atom_site_adp_type
_atom_site_occupancy
C1     C     0.39710   0.17596   0.34551   0.00000  Uiso   1.00
C2     C     0.46065   0.16871   0.39172   0.00000  Uiso   1.00
C3     C     0.46466   0.12665   0.45702   0.00000  Uiso   1.00
C4     C     0.52742   0.12730   0.49098   0.00000  Uiso   1.00
C5     C     0.61747   0.10980   0.56736   0.00000  Uiso   1.00
C6     C     0.38584   0.27358   0.33321   0.00000  Uiso   1.00
C7     C     0.32694   0.31969   0.34930   0.00000  Uiso   1.00
C8     C     0.32673   0.40863   0.33398   0.00000  Uiso   1.00
C9     C     0.30060   0.55393   0.31947   0.00000  Uiso   1.00
C10    C     0.41631   0.13764   0.27335   0.00000  Uiso   1.00
C11    C     0.38303   0.06947   0.23910   0.00000  Uiso   1.00
C12    C     0.40847   0.04396   0.17338   0.00000  Uiso   1.00
C13    C     0.42966   0.97820   0.06594   0.00000  Uiso   1.00
C14    C     0.50144   0.25190   0.28968   0.00000  Uiso   1.00
C15    C     0.51732   0.20996   0.36140   0.00000  Uiso   1.00
C16    C     0.58010   0.21067   0.39526   0.00000  Uiso   1.00
C17    C     0.58420   0.16862   0.46060   0.00000  Uiso   1.00
C18    C     0.44251   0.31483   0.30289   0.00000  Uiso   1.00
C19    C     0.44238   0.40372   0.28754   0.00000  Uiso   1.00
C20    C     0.38350   0.44995   0.30361   0.00000  Uiso   1.00
C21    C     0.47299   0.17889   0.24303   0.00000  Uiso   1.00
C22    C     0.49847   0.15349   0.17734   0.00000  Uiso   1.00
C23    C     0.46524   0.08529   0.14301   0.00000  Uiso   1.00
H24    H     0.35298   0.14385   0.36912   0.00000  Uiso   1.00
H25    H     0.42079   0.09474   0.48047   0.00000  Uiso   1.00
H26    H     0.28309   0.28775   0.37276   0.00000  Uiso   1.00
H27    H     0.33918   0.03756   0.26258   0.00000  Uiso   1.00
H28    H     0.52095   0.05851   0.59057   0.00000  Uiso   1.00
H29    H     0.23060   0.46548   0.36343   0.00000  Uiso   1.00
H30    H     0.34887   0.93791   0.13110   0.00000  Uiso   1.00
H31    H     0.54556   0.28402   0.26608   0.00000  Uiso   1.00
H32    H     0.62394   0.24260   0.37178   0.00000  Uiso   1.00
H33    H     0.48624   0.43561   0.26407   0.00000  Uiso   1.00
H34    H     0.54233   0.18543   0.15389   0.00000  Uiso   1.00
H35    H     0.68584   0.17853   0.50236   0.00000  Uiso   1.00
H36    H     0.39549   0.58550   0.27521   0.00000  Uiso   1.00
H37    H     0.51376   0.05792   0.04289   0.00000  Uiso   1.00
O38    O     0.65148   0.08877   0.61787   0.00000  Uiso   1.00
O39    O     0.27054   0.62269   0.31985   0.00000  Uiso   1.00
O40    O     0.42571   0.93053   0.01505   0.00000  Uiso   1.00
N41    N     0.54901   0.09243   0.55530   0.00000  Uiso   1.00
N42    N     0.27755   0.47292   0.34294   0.00000  Uiso   1.00
N43    N     0.38811   0.97970   0.12573   0.00000  Uiso   1.00
N44    N     0.63773   0.15700   0.50783   0.00000  Uiso   1.00
N45    N     0.36627   0.53750   0.29547   0.00000  Uiso   1.00
N46    N     0.47683   0.04428   0.07826   0.00000  Uiso   1.00
C47    C     0.10290   0.82404   0.84551   0.00000  Uiso   1.00
C48    C     0.03935   0.83129   0.89172   0.00000  Uiso   1.00
C49    C     0.03534   0.87335   0.95702   0.00000  Uiso   1.00
C50    C     0.97258   0.87270   0.99098   0.00000  Uiso   1.00
C51    C     0.88253   0.89020   0.06736   0.00000  Uiso   1.00
C52    C     0.11416   0.72642   0.83321   0.00000  Uiso   1.00
C53    C     0.17306   0.68031   0.84930   0.00000  Uiso   1.00
C54    C     0.17327   0.59137   0.83398   0.00000  Uiso   1.00
C55    C     0.19940   0.44607   0.81947   0.00000  Uiso   1.00
C56    C     0.08369   0.86236   0.77335   0.00000  Uiso   1.00
C57    C     0.11697   0.93053   0.73910   0.00000  Uiso   1.00
C58    C     0.09153   0.95604   0.67338   0.00000  Uiso   1.00
C59    C     0.07034   0.02180   0.56594   0.00000  Uiso   1.00
C60    C     0.99856   0.74810   0.78968   0.00000  Uiso   1.00
C61    C     0.98268   0.79004   0.86140   0.00000  Uiso   1.00
C62    C     0.91990   0.78933   0.89526   0.00000  Uiso   1.00
C63    C     0.91580   0.83138   0.96060   0.00000  Uiso   1.00
C64    C     0.05749   0.68517   0.80289   0.00000  Uiso   1.00
C65    C     0.05762   0.59628   0.78754   0.00000  Uiso   1.00
C66    C     0.11650   0.55005   0.80361   0.00000  Uiso   1.00
C67    C     0.02701   0.82111   0.74303   0.00000  Uiso   1.00
C68    C     0.00153   0.84651   0.67734   0.00000  Uiso   1.00
C69    C     0.03476   0.91471   0.64301   0.00000  Uiso   1.00
H70    H     0.14702   0.85615   0.86912   0.00000  Uiso   1.00
H71    H     0.07921   0.90526   0.98047   0.00000  Uiso   1.00
H72    H     0.21691   0.71225   0.87276   0.00000  Uiso   1.00
H73    H     0.16082   0.96244   0.76258   0.00000  Uiso   1.00
H74    H     0.97905   0.94149   0.09057   0.00000  Uiso   1.00
H75    H     0.26940   0.53452   0.86343   0.00000  Uiso   1.00
H76    H     0.15113   0.06209   0.63110   0.00000  Uiso   1.00
H77    H     0.95444   0.71598   0.76608   0.00000  Uiso   1.00
H78    H     0.87606   0.75740   0.87178   0.00000  Uiso   1.00
H79    H     0.01376   0.56439   0.76407   0.00000  Uiso   1.00
H80    H     0.95767   0.81457   0.65389   0.00000  Uiso   1.00
H81    H     0.81416   0.82147   0.00236   0.00000  Uiso   1.00
H82    H     0.10451   0.41450   0.77521   0.00000  Uiso   1.00
H83    H     0.98624   0.94208   0.54289   0.00000  Uiso   1.00
O84    O     0.84852   0.91123   0.11787   0.00000  Uiso   1.00
O85    O     0.22946   0.37731   0.81985   0.00000  Uiso   1.00
O86    O     0.07429   0.06947   0.51505   0.00000  Uiso   1.00
N87    N     0.95099   0.90757   0.05530   0.00000  Uiso   1.00
N88    N     0.22245   0.52708   0.84294   0.00000  Uiso   1.00
N89    N     0.11189   0.02030   0.62573   0.00000  Uiso   1.00
N90    N     0.86227   0.84300   0.00783   0.00000  Uiso   1.00
N91    N     0.13373   0.46250   0.79547   0.00000  Uiso   1.00
N92    N     0.02317   0.95572   0.57826   0.00000  Uiso   1.00
C93    C     0.60290   0.67596   0.15449   0.00000  Uiso   1.00
C94    C     0.53935   0.66871   0.10828   0.00000  Uiso   1.00
C95    C     0.53534   0.62665   0.04298   0.00000  Uiso   1.00
C96    C     0.47258   0.62730   0.00902   0.00000  Uiso   1.00
C97    C     0.38253   0.60980   0.93264   0.00000  Uiso   1.00
C98    C     0.61416   0.77358   0.16679   0.00000  Uiso   1.00
C99    C     0.67306   0.81969   0.15070   0.00000  Uiso   1.00
C100   C     0.67327   0.90863   0.16602   0.00000  Uiso   1.00
C101   C     0.69940   0.05393   0.18053   0.00000  Uiso   1.00
C102   C     0.58369   0.63764   0.22665   0.00000  Uiso   1.00
C103   C     0.61697   0.56947   0.26090   0.00000  Uiso   1.00
C104   C     0.59153   0.54396   0.32662   0.00000  Uiso   1.00
C105   C     0.57034   0.47820   0.43406   0.00000  Uiso   1.00
C106   C     0.49856   0.75190   0.21032   0.00000  Uiso   1.00
C107   C     0.48268   0.70996   0.13860   0.00000  Uiso   1.00
C108   C     0.41990   0.71067   0.10474   0.00000  Uiso   1.00
C109   C     0.41580   0.66862   0.03940   0.00000  Uiso   1.00
C110   C     0.55749   0.81483   0.19711   0.00000  Uiso   1.00
C111   C     0.55762   0.90372   0.21246   0.00000  Uiso   1.00
C112   C     0.61650   0.94995   0.19639   0.00000  Uiso   1.00
C113   C     0.52701   0.67889   0.25697   0.00000  Uiso   1.00
C114   C     0.50153   0.65349   0.32266   0.00000  Uiso   1.00
C115   C     0.53476   0.58529   0.35699   0.00000  Uiso   1.00
H116   H     0.64702   0.64385   0.13088   0.00000  Uiso   1.00
H117   H     0.57921   0.59474   0.01953   0.00000  Uiso   1.00
H118   H     0.71691   0.78775   0.12724   0.00000  Uiso   1.00
H119   H     0.66082   0.53756   0.23742   0.00000  Uiso   1.00
H120   H     0.47905   0.55851   0.90943   0.00000  Uiso   1.00
H121   H     0.76940   0.96548   0.13657   0.00000  Uiso   1.00
H122   H     0.65113   0.43791   0.36890   0.00000  Uiso   1.00
H123   H     0.45444   0.78402   0.23392   0.00000  Uiso   1.00
H124   H     0.37606   0.74260   0.12822   0.00000  Uiso   1.00
H125   H     0.51376   0.93561   0.23593   0.00000  Uiso   1.00
H126   H     0.45767   0.68543   0.34611   0.00000  Uiso   1.00
H127   H     0.31416   0.67853   0.99764   0.00000  Uiso   1.00
H128   H     0.60451   0.08550   0.22479   0.00000  Uiso   1.00
H129   H     0.48624   0.55792   0.45711   0.00000  Uiso   1.00
O130   O     0.34852   0.58877   0.88213   0.00000  Uiso   1.00
O131   O     0.72946   0.12269   0.18015   0.00000  Uiso   1.00
O132   O     0.57429   0.43053   0.48495   0.00000  Uiso   1.00
N133   N     0.45099   0.59243   0.94470   0.00000  Uiso   1.00
N134   N     0.72245   0.97292   0.15706   0.00000  Uiso   1.00
N135   N     0.61189   0.47970   0.37427   0.00000  Uiso   1.00
N136   N     0.36227   0.65700   0.99217   0.00000  Uiso   1.00
N137   N     0.63373   0.03750   0.20453   0.00000  Uiso   1.00
N138   N     0.52317   0.54428   0.42174   0.00000  Uiso   1.00
C139   C     0.89710   0.32404   0.65449   0.00000  Uiso   1.00
C140   C     0.96065   0.33129   0.60828   0.00000  Uiso   1.00
C141   C     0.96466   0.37335   0.54298   0.00000  Uiso   1.00
C142   C     0.02742   0.37270   0.50902   0.00000  Uiso   1.00
C143   C     0.11747   0.39020   0.43264   0.00000  Uiso   1.00
C144   C     0.88584   0.22642   0.66679   0.00000  Uiso   1.00
C145   C     0.82694   0.18031   0.65070   0.00000  Uiso   1.00
C146   C     0.82673   0.09137   0.66602   0.00000  Uiso   1.00
C147   C     0.80060   0.94607   0.68053   0.00000  Uiso   1.00
C148   C     0.91631   0.36236   0.72665   0.00000  Uiso   1.00
C149   C     0.88303   0.43053   0.76090   0.00000  Uiso   1.00
C150   C     0.90847   0.45604   0.82662   0.00000  Uiso   1.00
C151   C     0.92966   0.52180   0.93406   0.00000  Uiso   1.00
C152   C     0.00144   0.24810   0.71032   0.00000  Uiso   1.00
C153   C     0.01732   0.29004   0.63860   0.00000  Uiso   1.00
C154   C     0.08010   0.28933   0.60474   0.00000  Uiso   1.00
C155   C     0.08420   0.33138   0.53940   0.00000  Uiso   1.00
C156   C     0.94251   0.18517   0.69711   0.00000  Uiso   1.00
C157   C     0.94238   0.09628   0.71246   0.00000  Uiso   1.00
C158   C     0.88350   0.05005   0.69639   0.00000  Uiso   1.00
C159   C     0.97299   0.32111   0.75697   0.00000  Uiso   1.00
C160   C     0.99847   0.34651   0.82266   0.00000  Uiso   1.00
C161   C     0.96524   0.41471   0.85699   0.00000  Uiso   1.00
H162   H     0.85298   0.35615   0.63088   0.00000  Uiso   1.00
H163   H     0.92079   0.40526   0.51953   0.00000  Uiso   1.00
H164   H     0.78309   0.21225   0.62724   0.00000  Uiso   1.00
H165   H     0.83918   0.46244   0.73742   0.00000  Uiso   1.00
H166   H     0.02095   0.44149   0.40943   0.00000  Uiso   1.00
H167   H     0.73060   0.03452   0.63657   0.00000  Uiso   1.00
H168   H     0.84887   0.56209   0.86890   0.00000  Uiso   1.00
H169   H     0.04556   0.21598   0.73392   0.00000  Uiso   1.00
H170   H     0.12394   0.25740   0.62822   0.00000  Uiso   1.00
H171   H     0.98624   0.06439   0.73593   0.00000  Uiso   1.00
H172   H     0.04233   0.31457   0.84611   0.00000  Uiso   1.00
H173   H     0.18584   0.32147   0.49764   0.00000  Uiso   1.00
H174   H     0.89549   0.91450   0.72479   0.00000  Uiso   1.00
H175   H     0.01376   0.44208   0.95711   0.00000  Uiso   1.00
O176   O     0.15148   0.41123   0.38213   0.00000  Uiso   1.00
O177   O     0.77054   0.87731   0.68015   0.00000  Uiso   1.00
O178   O     0.92571   0.56947   0.98495   0.00000  Uiso   1.00
N179   N     0.04901   0.40757   0.44470   0.00000  Uiso   1.00
N180   N     0.77755   0.02708   0.65706   0.00000  Uiso   1.00
N181   N     0.88811   0.52030   0.87427   0.00000  Uiso   1.00
N182   N     0.13773   0.34300   0.49217   0.00000  Uiso   1.00
N183   N     0.86627   0.96250   0.70453   0.00000  Uiso   1.00
N184   N     0.97683   0.45572   0.92174   0.00000  Uiso   1.00
C185   C     0.60290   0.82404   0.65449   0.00000  Uiso   1.00
C186   C     0.53935   0.83129   0.60828   0.00000  Uiso   1.00
C187   C     0.53534   0.87335   0.54298   0.00000  Uiso   1.00
C188   C     0.47258   0.87270   0.50902   0.00000  Uiso   1.00
C189   C     0.38253   0.89020   0.43264   0.00000  Uiso   1.00
C190   C     0.61416   0.72642   0.66679   0.00000  Uiso   1.00
C191   C     0.67306   0.68031   0.65070   0.00000  Uiso   1.00
C192   C     0.67327   0.59137   0.66602   0.00000  Uiso   1.00
C193   C     0.69940   0.44607   0.68053   0.00000  Uiso   1.00
C194   C     0.58369   0.86236   0.72665   0.00000  Uiso   1.00
C195   C     0.61697   0.93053   0.76090   0.00000  Uiso   1.00
C196   C     0.59153   0.95604   0.82662   0.00000  Uiso   1.00
C197   C     0.57034   0.02180   0.93406   0.00000  Uiso   1.00
C198   C     0.49856   0.74810   0.71032   0.00000  Uiso   1.00
C199   C     0.48268   0.79004   0.63860   0.00000  Uiso   1.00
C200   C     0.41990   0.78933   0.60474   0.00000  Uiso   1.00
C201   C     0.41580   0.83138   0.53940   0.00000  Uiso   1.00
C202   C     0.55749   0.68517   0.69711   0.00000  Uiso   1.00
C203   C     0.55762   0.59628   0.71246   0.00000  Uiso   1.00
C204   C     0.61650   0.55005   0.69639   0.00000  Uiso   1.00
C205   C     0.52701   0.82111   0.75697   0.00000  Uiso   1.00
C206   C     0.50153   0.84651   0.82266   0.00000  Uiso   1.00
C207   C     0.53476   0.91471   0.85699   0.00000  Uiso   1.00
H208   H     0.64702   0.85615   0.63088   0.00000  Uiso   1.00
H209   H     0.57921   0.90526   0.51953   0.00000  Uiso   1.00
H210   H     0.71691   0.71225   0.62724   0.00000  Uiso   1.00
H211   H     0.66082   0.96244   0.73742   0.00000  Uiso   1.00
H212   H     0.47905   0.94149   0.40943   0.00000  Uiso   1.00
H213   H     0.76940   0.53452   0.63657   0.00000  Uiso   1.00
H214   H     0.65113   0.06209   0.86890   0.00000  Uiso   1.00
H215   H     0.45444   0.71598   0.73392   0.00000  Uiso   1.00
H216   H     0.37606   0.75740   0.62822   0.00000  Uiso   1.00
H217   H     0.51376   0.56439   0.73593   0.00000  Uiso   1.00
H218   H     0.45767   0.81457   0.84611   0.00000  Uiso   1.00
H219   H     0.31416   0.82147   0.49764   0.00000  Uiso   1.00
H220   H     0.60451   0.41450   0.72479   0.00000  Uiso   1.00
H221   H     0.48624   0.94208   0.95711   0.00000  Uiso   1.00
O222   O     0.34852   0.91123   0.38213   0.00000  Uiso   1.00
O223   O     0.72946   0.37731   0.68015   0.00000  Uiso   1.00
O224   O     0.57429   0.06947   0.98495   0.00000  Uiso   1.00
N225   N     0.45099   0.90757   0.44470   0.00000  Uiso   1.00
N226   N     0.72245   0.52708   0.65706   0.00000  Uiso   1.00
N227   N     0.61189   0.02030   0.87427   0.00000  Uiso   1.00
N228   N     0.36227   0.84300   0.49217   0.00000  Uiso   1.00
N229   N     0.63373   0.46250   0.70453   0.00000  Uiso   1.00
N230   N     0.52317   0.95572   0.92174   0.00000  Uiso   1.00
C231   C     0.89710   0.17596   0.15449   0.00000  Uiso   1.00
C232   C     0.96065   0.16871   0.10828   0.00000  Uiso   1.00
C233   C     0.96466   0.12665   0.04298   0.00000  Uiso   1.00
C234   C     0.02742   0.12730   0.00902   0.00000  Uiso   1.00
C235   C     0.11747   0.10980   0.93264   0.00000  Uiso   1.00
C236   C     0.88584   0.27358   0.16679   0.00000  Uiso   1.00
C237   C     0.82694   0.31969   0.15070   0.00000  Uiso   1.00
C238   C     0.82673   0.40863   0.16602   0.00000  Uiso   1.00
C239   C     0.80060   0.55393   0.18053   0.00000  Uiso   1.00
C240   C     0.91631   0.13764   0.22665   0.00000  Uiso   1.00
C241   C     0.88303   0.06947   0.26090   0.00000  Uiso   1.00
C242   C     0.90847   0.04396   0.32662   0.00000  Uiso   1.00
C243   C     0.92966   0.97820   0.43406   0.00000  Uiso   1.00
C244   C     0.00144   0.25190   0.21032   0.00000  Uiso   1.00
C245   C     0.01732   0.20996   0.13860   0.00000  Uiso   1.00
C246   C     0.08010   0.21067   0.10474   0.00000  Uiso   1.00
C247   C     0.08420   0.16862   0.03940   0.00000  Uiso   1.00
C248   C     0.94251   0.31483   0.19711   0.00000  Uiso   1.00
C249   C     0.94238   0.40372   0.21246   0.00000  Uiso   1.00
C250   C     0.88350   0.44995   0.19639   0.00000  Uiso   1.00
C251   C     0.97299   0.17889   0.25697   0.00000  Uiso   1.00
C252   C     0.99847   0.15349   0.32266   0.00000  Uiso   1.00
C253   C     0.96524   0.08529   0.35699   0.00000  Uiso   1.00
H254   H     0.85298   0.14385   0.13088   0.00000  Uiso   1.00
H255   H     0.92079   0.09474   0.01953   0.00000  Uiso   1.00
H256   H     0.78309   0.28775   0.12724   0.00000  Uiso   1.00
H257   H     0.83918   0.03756   0.23742   0.00000  Uiso   1.00
H258   H     0.02095   0.05851   0.90943   0.00000  Uiso   1.00
H259   H     0.73060   0.46548   0.13657   0.00000  Uiso   1.00
H260   H     0.84887   0.93791   0.36890   0.00000  Uiso   1.00
H261   H     0.04556   0.28402   0.23392   0.00000  Uiso   1.00
H262   H     0.12394   0.24260   0.12822   0.00000  Uiso   1.00
H263   H     0.98624   0.43561   0.23593   0.00000  Uiso   1.00
H264   H     0.04233   0.18543   0.34611   0.00000  Uiso   1.00
H265   H     0.18584   0.17853   0.99764   0.00000  Uiso   1.00
H266   H     0.89549   0.58550   0.22479   0.00000  Uiso   1.00
H267   H     0.01376   0.05792   0.45711   0.00000  Uiso   1.00
O268   O     0.15148   0.08877   0.88213   0.00000  Uiso   1.00
O269   O     0.77054   0.62269   0.18015   0.00000  Uiso   1.00
O270   O     0.92571   0.93053   0.48495   0.00000  Uiso   1.00
N271   N     0.04901   0.09243   0.94470   0.00000  Uiso   1.00
N272   N     0.77755   0.47292   0.15706   0.00000  Uiso   1.00
N273   N     0.88811   0.97970   0.37427   0.00000  Uiso   1.00
N274   N     0.13773   0.15700   0.99217   0.00000  Uiso   1.00
N275   N     0.86627   0.53750   0.20453   0.00000  Uiso   1.00
N276   N     0.97683   0.04428   0.42174   0.00000  Uiso   1.00
C277   C     0.39710   0.32404   0.84551   0.00000  Uiso   1.00
C278   C     0.46065   0.33129   0.89172   0.00000  Uiso   1.00
C279   C     0.46466   0.37335   0.95702   0.00000  Uiso   1.00
C280   C     0.52742   0.37270   0.99098   0.00000  Uiso   1.00
C281   C     0.61747   0.39020   0.06736   0.00000  Uiso   1.00
C282   C     0.38584   0.22642   0.83321   0.00000  Uiso   1.00
C283   C     0.32694   0.18031   0.84930   0.00000  Uiso   1.00
C284   C     0.32673   0.09137   0.83398   0.00000  Uiso   1.00
C285   C     0.30060   0.94607   0.81947   0.00000  Uiso   1.00
C286   C     0.41631   0.36236   0.77335   0.00000  Uiso   1.00
C287   C     0.38303   0.43053   0.73910   0.00000  Uiso   1.00
C288   C     0.40847   0.45604   0.67338   0.00000  Uiso   1.00
C289   C     0.42966   0.52180   0.56594   0.00000  Uiso   1.00
C290   C     0.50144   0.24810   0.78968   0.00000  Uiso   1.00
C291   C     0.51732   0.29004   0.86140   0.00000  Uiso   1.00
C292   C     0.58010   0.28933   0.89526   0.00000  Uiso   1.00
C293   C     0.58420   0.33138   0.96060   0.00000  Uiso   1.00
C294   C     0.44251   0.18517   0.80289   0.00000  Uiso   1.00
C295   C     0.44238   0.09628   0.78754   0.00000  Uiso   1.00
C296   C     0.38350   0.05005   0.80361   0.00000  Uiso   1.00
C297   C     0.47299   0.32111   0.74303   0.00000  Uiso   1.00
C298   C     0.49847   0.34651   0.67734   0.00000  Uiso   1.00
C299   C     0.46524   0.41471   0.64301   0.00000  Uiso   1.00
H300   H     0.35298   0.35615   0.86912   0.00000  Uiso   1.00
H301   H     0.42079   0.40526   0.98047   0.00000  Uiso   1.00
H302   H     0.28309   0.21225   0.87276   0.00000  Uiso   1.00
H303   H     0.33918   0.46244   0.76258   0.00000  Uiso   1.00
H304   H     0.52095   0.44149   0.09057   0.00000  Uiso   1.00
H305   H     0.23060   0.03452   0.86343   0.00000  Uiso   1.00
H306   H     0.34887   0.56209   0.63110   0.00000  Uiso   1.00
H307   H     0.54556   0.21598   0.76608   0.00000  Uiso   1.00
H308   H     0.62394   0.25740   0.87178   0.00000  Uiso   1.00
H309   H     0.48624   0.06439   0.76407   0.00000  Uiso   1.00
H310   H     0.54233   0.31457   0.65389   0.00000  Uiso   1.00
H311   H     0.68584   0.32147   0.00236   0.00000  Uiso   1.00
H312   H     0.39549   0.91450   0.77521   0.00000  Uiso   1.00
H313   H     0.51376   0.44208   0.54289   0.00000  Uiso   1.00
O314   O     0.65148   0.41123   0.11787   0.00000  Uiso   1.00
O315   O     0.27054   0.87731   0.81985   0.00000  Uiso   1.00
O316   O     0.42571   0.56947   0.51505   0.00000  Uiso   1.00
N317   N     0.54901   0.40757   0.05530   0.00000  Uiso   1.00
N318   N     0.27755   0.02708   0.84294   0.00000  Uiso   1.00
N319   N     0.38811   0.52030   0.62573   0.00000  Uiso   1.00
N320   N     0.63773   0.34300   0.00783   0.00000  Uiso   1.00
N321   N     0.36627   0.96250   0.79547   0.00000  Uiso   1.00
N322   N     0.47683   0.45572   0.57826   0.00000  Uiso   1.00
C323   C     0.10290   0.67596   0.34551   0.00000  Uiso   1.00
C324   C     0.03935   0.66871   0.39172   0.00000  Uiso   1.00
C325   C     0.03534   0.62665   0.45702   0.00000  Uiso   1.00
C326   C     0.97258   0.62730   0.49098   0.00000  Uiso   1.00
C327   C     0.88253   0.60980   0.56736   0.00000  Uiso   1.00
C328   C     0.11416   0.77358   0.33321   0.00000  Uiso   1.00
C329   C     0.17306   0.81969   0.34930   0.00000  Uiso   1.00
C330   C     0.17327   0.90863   0.33398   0.00000  Uiso   1.00
C331   C     0.19940   0.05393   0.31947   0.00000  Uiso   1.00
C332   C     0.08369   0.63764   0.27335   0.00000  Uiso   1.00
C333   C     0.11697   0.56947   0.23910   0.00000  Uiso   1.00
C334   C     0.09153   0.54396   0.17338   0.00000  Uiso   1.00
C335   C     0.07034   0.47820   0.06594   0.00000  Uiso   1.00
C336   C     0.99856   0.75190   0.28968   0.00000  Uiso   1.00
C337   C     0.98268   0.70996   0.36140   0.00000  Uiso   1.00
C338   C     0.91990   0.71067   0.39526   0.00000  Uiso   1.00
C339   C     0.91580   0.66862   0.46060   0.00000  Uiso   1.00
C340   C     0.05749   0.81483   0.30289   0.00000  Uiso   1.00
C341   C     0.05762   0.90372   0.28754   0.00000  Uiso   1.00
C342   C     0.11650   0.94995   0.30361   0.00000  Uiso   1.00
C343   C     0.02701   0.67889   0.24303   0.00000  Uiso   1.00
C344   C     0.00153   0.65349   0.17734   0.00000  Uiso   1.00
C345   C     0.03476   0.58529   0.14301   0.00000  Uiso   1.00
H346   H     0.14702   0.64385   0.36912   0.00000  Uiso   1.00
H347   H     0.07921   0.59474   0.48047   0.00000  Uiso   1.00
H348   H     0.21691   0.78775   0.37276   0.00000  Uiso   1.00
H349   H     0.16082   0.53756   0.26258   0.00000  Uiso   1.00
H350   H     0.97905   0.55851   0.59057   0.00000  Uiso   1.00
H351   H     0.26940   0.96548   0.36343   0.00000  Uiso   1.00
H352   H     0.15113   0.43791   0.13110   0.00000  Uiso   1.00
H353   H     0.95444   0.78402   0.26608   0.00000  Uiso   1.00
H354   H     0.87606   0.74260   0.37178   0.00000  Uiso   1.00
H355   H     0.01376   0.93561   0.26407   0.00000  Uiso   1.00
H356   H     0.95767   0.68543   0.15389   0.00000  Uiso   1.00
H357   H     0.81416   0.67853   0.50236   0.00000  Uiso   1.00
H358   H     0.10451   0.08550   0.27521   0.00000  Uiso   1.00
H359   H     0.98624   0.55792   0.04289   0.00000  Uiso   1.00
O360   O     0.84852   0.58877   0.61787   0.00000  Uiso   1.00
O361   O     0.22946   0.12269   0.31985   0.00000  Uiso   1.00
O362   O     0.07429   0.43053   0.01505   0.00000  Uiso   1.00
N363   N     0.95099   0.59243   0.55530   0.00000  Uiso   1.00
N364   N     0.22245   0.97292   0.34294   0.00000  Uiso   1.00
N365   N     0.11189   0.47970   0.12573   0.00000  Uiso   1.00
N366   N     0.86227   0.65700   0.50783   0.00000  Uiso   1.00
N367   N     0.13373   0.03750   0.29547   0.00000  Uiso   1.00
N368   N     0.02317   0.54428   0.07826   0.00000  Uiso   1.00
