data_job_02896
_audit_creation_date              2018-12-19
_audit_creation_method            'Materials Studio'
_symmetry_space_group_name_H-M    'P1'
_symmetry_Int_Tables_number       1
_symmetry_cell_setting            triclinic
loop_
_symmetry_equiv_pos_as_xyz
  x,y,z
_cell_length_a                    24.2872
_cell_length_b                    21.2457
_cell_length_c                    12.8733
_cell_angle_alpha                 90.0000
_cell_angle_beta                  90.0000
_cell_angle_gamma                 90.0000
loop_
_atom_site_label
_atom_site_type_symbol
_atom_site_fract_x
_atom_site_fract_y
_atom_site_fract_z
_atom_site_U_iso_or_equiv
_atom_site_adp_type
_atom_site_occupancy
C1     C     0.07095   0.16023   0.74799   0.00000  Uiso   1.00
C2     C     0.03263   0.11083   0.79447   0.00000  Uiso   1.00
C3     C     0.98603   0.12304   0.85351   0.00000  Uiso   1.00
C4     C     0.95648   0.07138   0.88891   0.00000  Uiso   1.00
C5     C     0.89449   0.00404   0.96460   0.00000  Uiso   1.00
C6     C     0.12833   0.14506   0.78905   0.00000  Uiso   1.00
C7     C     0.16219   0.18604   0.84353   0.00000  Uiso   1.00
C8     C     0.21320   0.16318   0.87435   0.00000  Uiso   1.00
C9     C     0.29979   0.14900   0.94157   0.00000  Uiso   1.00
C10    C     0.07271   0.14706   0.63160   0.00000  Uiso   1.00
C11    C     0.05982   0.18974   0.55368   0.00000  Uiso   1.00
C12    C     0.06401   0.16858   0.45194   0.00000  Uiso   1.00
C13    C     0.06424   0.15751   0.27469   0.00000  Uiso   1.00
C14    C     0.10133   0.04679   0.70586   0.00000  Uiso   1.00
C15    C     0.04914   0.04922   0.77158   0.00000  Uiso   1.00
C16    C     0.01964   0.99752   0.80690   0.00000  Uiso   1.00
C17    C     0.97300   0.00965   0.86598   0.00000  Uiso   1.00
C18    C     0.14483   0.08344   0.76617   0.00000  Uiso   1.00
C19    C     0.19580   0.06052   0.79692   0.00000  Uiso   1.00
C20    C     0.22973   0.10145   0.85143   0.00000  Uiso   1.00
C21    C     0.08921   0.08544   0.60872   0.00000  Uiso   1.00
C22    C     0.09342   0.06422   0.50708   0.00000  Uiso   1.00
C23    C     0.08054   0.10685   0.42902   0.00000  Uiso   1.00
H24    H     0.05811   0.20821   0.76581   0.00000  Uiso   1.00
H25    H     0.97328   0.17073   0.87121   0.00000  Uiso   1.00
H26    H     0.14941   0.23372   0.86122   0.00000  Uiso   1.00
H27    H     0.04705   0.23742   0.57142   0.00000  Uiso   1.00
H28    H     0.88652   0.10200   0.97800   0.00000  Uiso   1.00
H29    H     0.25791   0.23483   0.95690   0.00000  Uiso   1.00
H30    H     0.04207   0.24263   0.34581   0.00000  Uiso   1.00
H31    H     0.11418   0.99881   0.68805   0.00000  Uiso   1.00
H32    H     0.03242   0.94984   0.78918   0.00000  Uiso   1.00
H33    H     0.20856   0.01284   0.77919   0.00000  Uiso   1.00
H34    H     0.10619   0.01653   0.48939   0.00000  Uiso   1.00
H35    H     0.93452   0.92273   0.91143   0.00000  Uiso   1.00
H36    H     0.30592   0.05556   0.89032   0.00000  Uiso   1.00
H37    H     0.09007   0.06335   0.27924   0.00000  Uiso   1.00
O38    O     0.85574   0.98393   0.01268   0.00000  Uiso   1.00
O39    O     0.34299   0.15820   0.98497   0.00000  Uiso   1.00
O40    O     0.05981   0.16843   0.18324   0.00000  Uiso   1.00
N41    N     0.90903   0.06653   0.94844   0.00000  Uiso   1.00
N42    N     0.25626   0.19072   0.92873   0.00000  Uiso   1.00
N43    N     0.05448   0.19801   0.35741   0.00000  Uiso   1.00
N44    N     0.93486   0.97006   0.91261   0.00000  Uiso   1.00
N45    N     0.28209   0.09425   0.89290   0.00000  Uiso   1.00
N46    N     0.08030   0.10154   0.32158   0.00000  Uiso   1.00
C47    C     0.42905   0.83977   0.74799   0.00000  Uiso   1.00
C48    C     0.46737   0.88917   0.79447   0.00000  Uiso   1.00
C49    C     0.51397   0.87696   0.85351   0.00000  Uiso   1.00
C50    C     0.54352   0.92862   0.88891   0.00000  Uiso   1.00
C51    C     0.60551   0.99596   0.96460   0.00000  Uiso   1.00
C52    C     0.37167   0.85494   0.78905   0.00000  Uiso   1.00
C53    C     0.33781   0.81396   0.84353   0.00000  Uiso   1.00
C54    C     0.28680   0.83682   0.87435   0.00000  Uiso   1.00
C55    C     0.20021   0.85100   0.94157   0.00000  Uiso   1.00
C56    C     0.42729   0.85294   0.63160   0.00000  Uiso   1.00
C57    C     0.44018   0.81026   0.55368   0.00000  Uiso   1.00
C58    C     0.43599   0.83142   0.45194   0.00000  Uiso   1.00
C59    C     0.43576   0.84249   0.27469   0.00000  Uiso   1.00
C60    C     0.39867   0.95321   0.70586   0.00000  Uiso   1.00
C61    C     0.45086   0.95078   0.77158   0.00000  Uiso   1.00
C62    C     0.48036   0.00248   0.80690   0.00000  Uiso   1.00
C63    C     0.52700   0.99035   0.86598   0.00000  Uiso   1.00
C64    C     0.35517   0.91656   0.76617   0.00000  Uiso   1.00
C65    C     0.30420   0.93948   0.79692   0.00000  Uiso   1.00
C66    C     0.27027   0.89855   0.85143   0.00000  Uiso   1.00
C67    C     0.41079   0.91456   0.60872   0.00000  Uiso   1.00
C68    C     0.40658   0.93578   0.50708   0.00000  Uiso   1.00
C69    C     0.41946   0.89315   0.42902   0.00000  Uiso   1.00
H70    H     0.44189   0.79179   0.76581   0.00000  Uiso   1.00
H71    H     0.52672   0.82927   0.87121   0.00000  Uiso   1.00
H72    H     0.35059   0.76628   0.86122   0.00000  Uiso   1.00
H73    H     0.45295   0.76258   0.57142   0.00000  Uiso   1.00
H74    H     0.61348   0.89800   0.97800   0.00000  Uiso   1.00
H75    H     0.24209   0.76517   0.95690   0.00000  Uiso   1.00
H76    H     0.45793   0.75737   0.34581   0.00000  Uiso   1.00
H77    H     0.38582   0.00119   0.68805   0.00000  Uiso   1.00
H78    H     0.46758   0.05016   0.78918   0.00000  Uiso   1.00
H79    H     0.29144   0.98716   0.77919   0.00000  Uiso   1.00
H80    H     0.39381   0.98347   0.48939   0.00000  Uiso   1.00
H81    H     0.56548   0.07727   0.91143   0.00000  Uiso   1.00
H82    H     0.19408   0.94444   0.89032   0.00000  Uiso   1.00
H83    H     0.40993   0.93665   0.27924   0.00000  Uiso   1.00
O84    O     0.64426   0.01607   0.01268   0.00000  Uiso   1.00
O85    O     0.15701   0.84180   0.98497   0.00000  Uiso   1.00
O86    O     0.44019   0.83157   0.18324   0.00000  Uiso   1.00
N87    N     0.59097   0.93347   0.94844   0.00000  Uiso   1.00
N88    N     0.24374   0.80928   0.92873   0.00000  Uiso   1.00
N89    N     0.44552   0.80199   0.35741   0.00000  Uiso   1.00
N90    N     0.56514   0.02994   0.91261   0.00000  Uiso   1.00
N91    N     0.21791   0.90575   0.89290   0.00000  Uiso   1.00
N92    N     0.41970   0.89846   0.32158   0.00000  Uiso   1.00
C93    C     0.42905   0.66023   0.75201   0.00000  Uiso   1.00
C94    C     0.46737   0.61083   0.70553   0.00000  Uiso   1.00
C95    C     0.51397   0.62304   0.64649   0.00000  Uiso   1.00
C96    C     0.54352   0.57138   0.61109   0.00000  Uiso   1.00
C97    C     0.60551   0.50404   0.53540   0.00000  Uiso   1.00
C98    C     0.37167   0.64506   0.71095   0.00000  Uiso   1.00
C99    C     0.33781   0.68604   0.65647   0.00000  Uiso   1.00
C100   C     0.28680   0.66318   0.62565   0.00000  Uiso   1.00
C101   C     0.20021   0.64900   0.55843   0.00000  Uiso   1.00
C102   C     0.42729   0.64706   0.86840   0.00000  Uiso   1.00
C103   C     0.44018   0.68974   0.94632   0.00000  Uiso   1.00
C104   C     0.43599   0.66858   0.04806   0.00000  Uiso   1.00
C105   C     0.43576   0.65751   0.22531   0.00000  Uiso   1.00
C106   C     0.39867   0.54679   0.79414   0.00000  Uiso   1.00
C107   C     0.45086   0.54922   0.72842   0.00000  Uiso   1.00
C108   C     0.48036   0.49752   0.69310   0.00000  Uiso   1.00
C109   C     0.52700   0.50965   0.63402   0.00000  Uiso   1.00
C110   C     0.35517   0.58344   0.73383   0.00000  Uiso   1.00
C111   C     0.30420   0.56052   0.70308   0.00000  Uiso   1.00
C112   C     0.27027   0.60145   0.64857   0.00000  Uiso   1.00
C113   C     0.41079   0.58544   0.89128   0.00000  Uiso   1.00
C114   C     0.40658   0.56422   0.99292   0.00000  Uiso   1.00
C115   C     0.41946   0.60685   0.07098   0.00000  Uiso   1.00
H116   H     0.44189   0.70821   0.73419   0.00000  Uiso   1.00
H117   H     0.52672   0.67073   0.62879   0.00000  Uiso   1.00
H118   H     0.35059   0.73372   0.63878   0.00000  Uiso   1.00
H119   H     0.45295   0.73742   0.92858   0.00000  Uiso   1.00
H120   H     0.61348   0.60200   0.52200   0.00000  Uiso   1.00
H121   H     0.24209   0.73483   0.54310   0.00000  Uiso   1.00
H122   H     0.45793   0.74263   0.15419   0.00000  Uiso   1.00
H123   H     0.38582   0.49881   0.81195   0.00000  Uiso   1.00
H124   H     0.46758   0.44984   0.71082   0.00000  Uiso   1.00
H125   H     0.29144   0.51284   0.72081   0.00000  Uiso   1.00
H126   H     0.39381   0.51653   0.01061   0.00000  Uiso   1.00
H127   H     0.56548   0.42273   0.58857   0.00000  Uiso   1.00
H128   H     0.19408   0.55556   0.60968   0.00000  Uiso   1.00
H129   H     0.40993   0.56335   0.22076   0.00000  Uiso   1.00
O130   O     0.64426   0.48393   0.48732   0.00000  Uiso   1.00
O131   O     0.15701   0.65820   0.51503   0.00000  Uiso   1.00
O132   O     0.44019   0.66843   0.31676   0.00000  Uiso   1.00
N133   N     0.59097   0.56653   0.55156   0.00000  Uiso   1.00
N134   N     0.24374   0.69072   0.57127   0.00000  Uiso   1.00
N135   N     0.44552   0.69801   0.14259   0.00000  Uiso   1.00
N136   N     0.56514   0.47006   0.58739   0.00000  Uiso   1.00
N137   N     0.21791   0.59425   0.60710   0.00000  Uiso   1.00
N138   N     0.41970   0.60154   0.17842   0.00000  Uiso   1.00
C139   C     0.07095   0.33977   0.75201   0.00000  Uiso   1.00
C140   C     0.03263   0.38917   0.70553   0.00000  Uiso   1.00
C141   C     0.98603   0.37696   0.64649   0.00000  Uiso   1.00
C142   C     0.95648   0.42862   0.61109   0.00000  Uiso   1.00
C143   C     0.89449   0.49596   0.53540   0.00000  Uiso   1.00
C144   C     0.12833   0.35494   0.71095   0.00000  Uiso   1.00
C145   C     0.16219   0.31396   0.65647   0.00000  Uiso   1.00
C146   C     0.21320   0.33682   0.62565   0.00000  Uiso   1.00
C147   C     0.29979   0.35100   0.55843   0.00000  Uiso   1.00
C148   C     0.07271   0.35294   0.86840   0.00000  Uiso   1.00
C149   C     0.05982   0.31026   0.94632   0.00000  Uiso   1.00
C150   C     0.06401   0.33142   0.04806   0.00000  Uiso   1.00
C151   C     0.06424   0.34249   0.22531   0.00000  Uiso   1.00
C152   C     0.10133   0.45321   0.79414   0.00000  Uiso   1.00
C153   C     0.04914   0.45078   0.72842   0.00000  Uiso   1.00
C154   C     0.01964   0.50248   0.69310   0.00000  Uiso   1.00
C155   C     0.97300   0.49035   0.63402   0.00000  Uiso   1.00
C156   C     0.14483   0.41656   0.73383   0.00000  Uiso   1.00
C157   C     0.19580   0.43948   0.70308   0.00000  Uiso   1.00
C158   C     0.22973   0.39855   0.64857   0.00000  Uiso   1.00
C159   C     0.08921   0.41456   0.89128   0.00000  Uiso   1.00
C160   C     0.09342   0.43578   0.99292   0.00000  Uiso   1.00
C161   C     0.08054   0.39315   0.07098   0.00000  Uiso   1.00
H162   H     0.05811   0.29179   0.73419   0.00000  Uiso   1.00
H163   H     0.97328   0.32927   0.62879   0.00000  Uiso   1.00
H164   H     0.14941   0.26628   0.63878   0.00000  Uiso   1.00
H165   H     0.04705   0.26258   0.92858   0.00000  Uiso   1.00
H166   H     0.88652   0.39800   0.52200   0.00000  Uiso   1.00
H167   H     0.25791   0.26517   0.54310   0.00000  Uiso   1.00
H168   H     0.04207   0.25737   0.15419   0.00000  Uiso   1.00
H169   H     0.11418   0.50119   0.81195   0.00000  Uiso   1.00
H170   H     0.03242   0.55016   0.71082   0.00000  Uiso   1.00
H171   H     0.20856   0.48716   0.72081   0.00000  Uiso   1.00
H172   H     0.10619   0.48347   0.01061   0.00000  Uiso   1.00
H173   H     0.93452   0.57727   0.58857   0.00000  Uiso   1.00
H174   H     0.30592   0.44444   0.60968   0.00000  Uiso   1.00
H175   H     0.09007   0.43665   0.22076   0.00000  Uiso   1.00
O176   O     0.85574   0.51607   0.48732   0.00000  Uiso   1.00
O177   O     0.34299   0.34180   0.51503   0.00000  Uiso   1.00
O178   O     0.05981   0.33157   0.31676   0.00000  Uiso   1.00
N179   N     0.90903   0.43347   0.55156   0.00000  Uiso   1.00
N180   N     0.25626   0.30928   0.57127   0.00000  Uiso   1.00
N181   N     0.05448   0.30199   0.14259   0.00000  Uiso   1.00
N182   N     0.93486   0.52994   0.58739   0.00000  Uiso   1.00
N183   N     0.28209   0.40575   0.60710   0.00000  Uiso   1.00
N184   N     0.08030   0.39846   0.17842   0.00000  Uiso   1.00
C185   C     0.92905   0.83977   0.25201   0.00000  Uiso   1.00
C186   C     0.96737   0.88917   0.20553   0.00000  Uiso   1.00
C187   C     0.01397   0.87696   0.14649   0.00000  Uiso   1.00
C188   C     0.04352   0.92862   0.11109   0.00000  Uiso   1.00
C189   C     0.10551   0.99596   0.03540   0.00000  Uiso   1.00
C190   C     0.87167   0.85494   0.21095   0.00000  Uiso   1.00
C191   C     0.83781   0.81396   0.15647   0.00000  Uiso   1.00
C192   C     0.78680   0.83682   0.12565   0.00000  Uiso   1.00
C193   C     0.70021   0.85100   0.05843   0.00000  Uiso   1.00
C194   C     0.92729   0.85294   0.36840   0.00000  Uiso   1.00
C195   C     0.94018   0.81026   0.44632   0.00000  Uiso   1.00
C196   C     0.93599   0.83142   0.54806   0.00000  Uiso   1.00
C197   C     0.93576   0.84249   0.72531   0.00000  Uiso   1.00
C198   C     0.89867   0.95321   0.29414   0.00000  Uiso   1.00
C199   C     0.95086   0.95078   0.22842   0.00000  Uiso   1.00
C200   C     0.98036   0.00248   0.19310   0.00000  Uiso   1.00
C201   C     0.02700   0.99035   0.13402   0.00000  Uiso   1.00
C202   C     0.85517   0.91656   0.23383   0.00000  Uiso   1.00
C203   C     0.80420   0.93948   0.20308   0.00000  Uiso   1.00
C204   C     0.77027   0.89855   0.14857   0.00000  Uiso   1.00
C205   C     0.91079   0.91456   0.39128   0.00000  Uiso   1.00
C206   C     0.90658   0.93578   0.49292   0.00000  Uiso   1.00
C207   C     0.91946   0.89315   0.57098   0.00000  Uiso   1.00
H208   H     0.94189   0.79179   0.23419   0.00000  Uiso   1.00
H209   H     0.02672   0.82927   0.12879   0.00000  Uiso   1.00
H210   H     0.85059   0.76628   0.13878   0.00000  Uiso   1.00
H211   H     0.95295   0.76258   0.42858   0.00000  Uiso   1.00
H212   H     0.11348   0.89800   0.02200   0.00000  Uiso   1.00
H213   H     0.74209   0.76517   0.04310   0.00000  Uiso   1.00
H214   H     0.95793   0.75737   0.65419   0.00000  Uiso   1.00
H215   H     0.88582   0.00119   0.31195   0.00000  Uiso   1.00
H216   H     0.96758   0.05016   0.21082   0.00000  Uiso   1.00
H217   H     0.79144   0.98716   0.22081   0.00000  Uiso   1.00
H218   H     0.89381   0.98347   0.51061   0.00000  Uiso   1.00
H219   H     0.06548   0.07727   0.08857   0.00000  Uiso   1.00
H220   H     0.69408   0.94444   0.10968   0.00000  Uiso   1.00
H221   H     0.90993   0.93665   0.72076   0.00000  Uiso   1.00
O222   O     0.14426   0.01607   0.98732   0.00000  Uiso   1.00
O223   O     0.65701   0.84180   0.01503   0.00000  Uiso   1.00
O224   O     0.94019   0.83157   0.81676   0.00000  Uiso   1.00
N225   N     0.09097   0.93347   0.05156   0.00000  Uiso   1.00
N226   N     0.74374   0.80928   0.07127   0.00000  Uiso   1.00
N227   N     0.94552   0.80199   0.64259   0.00000  Uiso   1.00
N228   N     0.06514   0.02994   0.08739   0.00000  Uiso   1.00
N229   N     0.71791   0.90575   0.10710   0.00000  Uiso   1.00
N230   N     0.91970   0.89846   0.67842   0.00000  Uiso   1.00
C231   C     0.57095   0.16023   0.25201   0.00000  Uiso   1.00
C232   C     0.53263   0.11083   0.20553   0.00000  Uiso   1.00
C233   C     0.48603   0.12304   0.14649   0.00000  Uiso   1.00
C234   C     0.45648   0.07138   0.11109   0.00000  Uiso   1.00
C235   C     0.39449   0.00404   0.03540   0.00000  Uiso   1.00
C236   C     0.62833   0.14506   0.21095   0.00000  Uiso   1.00
C237   C     0.66219   0.18604   0.15647   0.00000  Uiso   1.00
C238   C     0.71320   0.16318   0.12565   0.00000  Uiso   1.00
C239   C     0.79979   0.14900   0.05843   0.00000  Uiso   1.00
C240   C     0.57271   0.14706   0.36840   0.00000  Uiso   1.00
C241   C     0.55982   0.18974   0.44632   0.00000  Uiso   1.00
C242   C     0.56401   0.16858   0.54806   0.00000  Uiso   1.00
C243   C     0.56424   0.15751   0.72531   0.00000  Uiso   1.00
C244   C     0.60133   0.04679   0.29414   0.00000  Uiso   1.00
C245   C     0.54914   0.04922   0.22842   0.00000  Uiso   1.00
C246   C     0.51964   0.99752   0.19310   0.00000  Uiso   1.00
C247   C     0.47300   0.00965   0.13402   0.00000  Uiso   1.00
C248   C     0.64483   0.08344   0.23383   0.00000  Uiso   1.00
C249   C     0.69580   0.06052   0.20308   0.00000  Uiso   1.00
C250   C     0.72973   0.10145   0.14857   0.00000  Uiso   1.00
C251   C     0.58921   0.08544   0.39128   0.00000  Uiso   1.00
C252   C     0.59342   0.06422   0.49292   0.00000  Uiso   1.00
C253   C     0.58054   0.10685   0.57098   0.00000  Uiso   1.00
H254   H     0.55811   0.20821   0.23419   0.00000  Uiso   1.00
H255   H     0.47328   0.17073   0.12879   0.00000  Uiso   1.00
H256   H     0.64941   0.23372   0.13878   0.00000  Uiso   1.00
H257   H     0.54705   0.23742   0.42858   0.00000  Uiso   1.00
H258   H     0.38652   0.10200   0.02200   0.00000  Uiso   1.00
H259   H     0.75791   0.23483   0.04310   0.00000  Uiso   1.00
H260   H     0.54207   0.24263   0.65419   0.00000  Uiso   1.00
H261   H     0.61418   0.99881   0.31195   0.00000  Uiso   1.00
H262   H     0.53242   0.94984   0.21082   0.00000  Uiso   1.00
H263   H     0.70856   0.01284   0.22081   0.00000  Uiso   1.00
H264   H     0.60619   0.01653   0.51061   0.00000  Uiso   1.00
H265   H     0.43452   0.92273   0.08857   0.00000  Uiso   1.00
H266   H     0.80592   0.05556   0.10968   0.00000  Uiso   1.00
H267   H     0.59007   0.06335   0.72076   0.00000  Uiso   1.00
O268   O     0.35574   0.98393   0.98732   0.00000  Uiso   1.00
O269   O     0.84299   0.15820   0.01503   0.00000  Uiso   1.00
O270   O     0.55981   0.16843   0.81676   0.00000  Uiso   1.00
N271   N     0.40903   0.06653   0.05156   0.00000  Uiso   1.00
N272   N     0.75626   0.19072   0.07127   0.00000  Uiso   1.00
N273   N     0.55448   0.19801   0.64259   0.00000  Uiso   1.00
N274   N     0.43486   0.97006   0.08739   0.00000  Uiso   1.00
N275   N     0.78209   0.09425   0.10710   0.00000  Uiso   1.00
N276   N     0.58030   0.10154   0.67842   0.00000  Uiso   1.00
C277   C     0.57095   0.33977   0.24799   0.00000  Uiso   1.00
C278   C     0.53263   0.38917   0.29447   0.00000  Uiso   1.00
C279   C     0.48603   0.37696   0.35351   0.00000  Uiso   1.00
C280   C     0.45648   0.42862   0.38891   0.00000  Uiso   1.00
C281   C     0.39449   0.49596   0.46460   0.00000  Uiso   1.00
C282   C     0.62833   0.35494   0.28905   0.00000  Uiso   1.00
C283   C     0.66219   0.31396   0.34353   0.00000  Uiso   1.00
C284   C     0.71320   0.33682   0.37435   0.00000  Uiso   1.00
C285   C     0.79979   0.35100   0.44157   0.00000  Uiso   1.00
C286   C     0.57271   0.35294   0.13160   0.00000  Uiso   1.00
C287   C     0.55982   0.31026   0.05368   0.00000  Uiso   1.00
C288   C     0.56401   0.33142   0.95194   0.00000  Uiso   1.00
C289   C     0.56424   0.34249   0.77469   0.00000  Uiso   1.00
C290   C     0.60133   0.45321   0.20586   0.00000  Uiso   1.00
C291   C     0.54914   0.45078   0.27158   0.00000  Uiso   1.00
C292   C     0.51964   0.50248   0.30690   0.00000  Uiso   1.00
C293   C     0.47300   0.49035   0.36598   0.00000  Uiso   1.00
C294   C     0.64483   0.41656   0.26617   0.00000  Uiso   1.00
C295   C     0.69580   0.43948   0.29692   0.00000  Uiso   1.00
C296   C     0.72973   0.39855   0.35143   0.00000  Uiso   1.00
C297   C     0.58921   0.41456   0.10872   0.00000  Uiso   1.00
C298   C     0.59342   0.43578   0.00708   0.00000  Uiso   1.00
C299   C     0.58054   0.39315   0.92902   0.00000  Uiso   1.00
H300   H     0.55811   0.29179   0.26581   0.00000  Uiso   1.00
H301   H     0.47328   0.32927   0.37121   0.00000  Uiso   1.00
H302   H     0.64941   0.26628   0.36122   0.00000  Uiso   1.00
H303   H     0.54705   0.26258   0.07142   0.00000  Uiso   1.00
H304   H     0.38652   0.39800   0.47800   0.00000  Uiso   1.00
H305   H     0.75791   0.26517   0.45690   0.00000  Uiso   1.00
H306   H     0.54207   0.25737   0.84581   0.00000  Uiso   1.00
H307   H     0.61418   0.50119   0.18805   0.00000  Uiso   1.00
H308   H     0.53242   0.55016   0.28918   0.00000  Uiso   1.00
H309   H     0.70856   0.48716   0.27919   0.00000  Uiso   1.00
H310   H     0.60619   0.48347   0.98939   0.00000  Uiso   1.00
H311   H     0.43452   0.57727   0.41143   0.00000  Uiso   1.00
H312   H     0.80592   0.44444   0.39032   0.00000  Uiso   1.00
H313   H     0.59007   0.43665   0.77924   0.00000  Uiso   1.00
O314   O     0.35574   0.51607   0.51268   0.00000  Uiso   1.00
O315   O     0.84299   0.34180   0.48497   0.00000  Uiso   1.00
O316   O     0.55981   0.33157   0.68324   0.00000  Uiso   1.00
N317   N     0.40903   0.43347   0.44844   0.00000  Uiso   1.00
N318   N     0.75626   0.30928   0.42873   0.00000  Uiso   1.00
N319   N     0.55448   0.30199   0.85741   0.00000  Uiso   1.00
N320   N     0.43486   0.52994   0.41261   0.00000  Uiso   1.00
N321   N     0.78209   0.40575   0.39290   0.00000  Uiso   1.00
N322   N     0.58030   0.39846   0.82158   0.00000  Uiso   1.00
C323   C     0.92905   0.66023   0.24799   0.00000  Uiso   1.00
C324   C     0.96737   0.61083   0.29447   0.00000  Uiso   1.00
C325   C     0.01397   0.62304   0.35351   0.00000  Uiso   1.00
C326   C     0.04352   0.57138   0.38891   0.00000  Uiso   1.00
C327   C     0.10551   0.50404   0.46460   0.00000  Uiso   1.00
C328   C     0.87167   0.64506   0.28905   0.00000  Uiso   1.00
C329   C     0.83781   0.68604   0.34353   0.00000  Uiso   1.00
C330   C     0.78680   0.66318   0.37435   0.00000  Uiso   1.00
C331   C     0.70021   0.64900   0.44157   0.00000  Uiso   1.00
C332   C     0.92729   0.64706   0.13160   0.00000  Uiso   1.00
C333   C     0.94018   0.68974   0.05368   0.00000  Uiso   1.00
C334   C     0.93599   0.66858   0.95194   0.00000  Uiso   1.00
C335   C     0.93576   0.65751   0.77469   0.00000  Uiso   1.00
C336   C     0.89867   0.54679   0.20586   0.00000  Uiso   1.00
C337   C     0.95086   0.54922   0.27158   0.00000  Uiso   1.00
C338   C     0.98036   0.49752   0.30690   0.00000  Uiso   1.00
C339   C     0.02700   0.50965   0.36598   0.00000  Uiso   1.00
C340   C     0.85517   0.58344   0.26617   0.00000  Uiso   1.00
C341   C     0.80420   0.56052   0.29692   0.00000  Uiso   1.00
C342   C     0.77027   0.60145   0.35143   0.00000  Uiso   1.00
C343   C     0.91079   0.58544   0.10872   0.00000  Uiso   1.00
C344   C     0.90658   0.56422   0.00708   0.00000  Uiso   1.00
C345   C     0.91946   0.60685   0.92902   0.00000  Uiso   1.00
H346   H     0.94189   0.70821   0.26581   0.00000  Uiso   1.00
H347   H     0.02672   0.67073   0.37121   0.00000  Uiso   1.00
H348   H     0.85059   0.73372   0.36122   0.00000  Uiso   1.00
H349   H     0.95295   0.73742   0.07142   0.00000  Uiso   1.00
H350   H     0.11348   0.60200   0.47800   0.00000  Uiso   1.00
H351   H     0.74209   0.73483   0.45690   0.00000  Uiso   1.00
H352   H     0.95793   0.74263   0.84581   0.00000  Uiso   1.00
H353   H     0.88582   0.49881   0.18805   0.00000  Uiso   1.00
H354   H     0.96758   0.44984   0.28918   0.00000  Uiso   1.00
H355   H     0.79144   0.51284   0.27919   0.00000  Uiso   1.00
H356   H     0.89381   0.51653   0.98939   0.00000  Uiso   1.00
H357   H     0.06548   0.42273   0.41143   0.00000  Uiso   1.00
H358   H     0.69408   0.55556   0.39032   0.00000  Uiso   1.00
H359   H     0.90993   0.56335   0.77924   0.00000  Uiso   1.00
O360   O     0.14426   0.48393   0.51268   0.00000  Uiso   1.00
O361   O     0.65701   0.65820   0.48497   0.00000  Uiso   1.00
O362   O     0.94019   0.66843   0.68324   0.00000  Uiso   1.00
N363   N     0.09097   0.56653   0.44844   0.00000  Uiso   1.00
N364   N     0.74374   0.69072   0.42873   0.00000  Uiso   1.00
N365   N     0.94552   0.69801   0.85741   0.00000  Uiso   1.00
N366   N     0.06514   0.47006   0.41261   0.00000  Uiso   1.00
N367   N     0.71791   0.59425   0.39290   0.00000  Uiso   1.00
N368   N     0.91970   0.60154   0.82158   0.00000  Uiso   1.00
