data_job_05480
_audit_creation_date              2018-12-19
_audit_creation_method            'Materials Studio'
_symmetry_space_group_name_H-M    'P1'
_symmetry_Int_Tables_number       1
_symmetry_cell_setting            triclinic
loop_
_symmetry_equiv_pos_as_xyz
  x,y,z
_cell_length_a                    11.1528
_cell_length_b                    22.1421
_cell_length_c                    12.0961
_cell_angle_alpha                 90.0000
_cell_angle_beta                  89.6802
_cell_angle_gamma                 90.0000
loop_
_atom_site_label
_atom_site_type_symbol
_atom_site_fract_x
_atom_site_fract_y
_atom_site_fract_z
_atom_site_U_iso_or_equiv
_atom_site_adp_type
_atom_site_occupancy
C1     C     0.06044   0.20060   0.47507   0.00000  Uiso   1.00
C2     C     0.11828   0.16138   0.38593   0.00000  Uiso   1.00
C3     C     0.07160   0.15018   0.28182   0.00000  Uiso   1.00
C4     C     0.13815   0.11306   0.21225   0.00000  Uiso   1.00
C5     C     0.21131   0.05593   0.06877   0.00000  Uiso   1.00
C6     C     0.04768   0.16045   0.57689   0.00000  Uiso   1.00
C7     C     0.94163   0.14849   0.63333   0.00000  Uiso   1.00
C8     C     0.94876   0.11060   0.72452   0.00000  Uiso   1.00
C9     C     0.91231   0.05207   0.87754   0.00000  Uiso   1.00
C10    C     0.15325   0.24844   0.50461   0.00000  Uiso   1.00
C11    C     0.13596   0.31047   0.50031   0.00000  Uiso   1.00
C12    C     0.23196   0.34666   0.53067   0.00000  Uiso   1.00
C13    C     0.35942   0.42475   0.57148   0.00000  Uiso   1.00
C14    C     0.26166   0.15459   0.53666   0.00000  Uiso   1.00
C15    C     0.22757   0.13638   0.41939   0.00000  Uiso   1.00
C16    C     0.29422   0.09928   0.34996   0.00000  Uiso   1.00
C17    C     0.24764   0.08803   0.24576   0.00000  Uiso   1.00
C18    C     0.15696   0.13546   0.61034   0.00000  Uiso   1.00
C19    C     0.16425   0.09758   0.70147   0.00000  Uiso   1.00
C20    C     0.05824   0.08556   0.75803   0.00000  Uiso   1.00
C21    C     0.26254   0.22345   0.53806   0.00000  Uiso   1.00
C22    C     0.35858   0.25956   0.56844   0.00000  Uiso   1.00
C23    C     0.34144   0.32163   0.56419   0.00000  Uiso   1.00
H24    H     0.97535   0.22006   0.44903   0.00000  Uiso   1.00
H25    H     0.98701   0.16953   0.25596   0.00000  Uiso   1.00
H26    H     0.85707   0.16784   0.60743   0.00000  Uiso   1.00
H27    H     0.05137   0.32979   0.47442   0.00000  Uiso   1.00
H28    H     0.04812   0.10246   0.05667   0.00000  Uiso   1.00
H29    H     0.77413   0.09892   0.79778   0.00000  Uiso   1.00
H30    H     0.18384   0.44043   0.51731   0.00000  Uiso   1.00
H31    H     0.34675   0.13513   0.56271   0.00000  Uiso   1.00
H32    H     0.37879   0.07994   0.37587   0.00000  Uiso   1.00
H33    H     0.24884   0.07825   0.72734   0.00000  Uiso   1.00
H34    H     0.44314   0.24021   0.59433   0.00000  Uiso   1.00
H35    H     0.36610   0.02975   0.15400   0.00000  Uiso   1.00
H36    H     0.09211   0.02621   0.89511   0.00000  Uiso   1.00
H37    H     0.50183   0.36772   0.61464   0.00000  Uiso   1.00
O38    O     0.22147   0.03131   0.98039   0.00000  Uiso   1.00
O39    O     0.86201   0.02668   0.95270   0.00000  Uiso   1.00
O40    O     0.39955   0.47473   0.58473   0.00000  Uiso   1.00
N41    N     0.11857   0.09293   0.10521   0.00000  Uiso   1.00
N42    N     0.86240   0.08962   0.79809   0.00000  Uiso   1.00
N43    N     0.24544   0.40890   0.53591   0.00000  Uiso   1.00
N44    N     0.28967   0.05381   0.15758   0.00000  Uiso   1.00
N45    N     0.03351   0.05049   0.85046   0.00000  Uiso   1.00
N46    N     0.41654   0.36977   0.58827   0.00000  Uiso   1.00
C47    C     0.86444   0.30072   0.97740   0.00000  Uiso   1.00
C48    C     0.80591   0.33979   0.88901   0.00000  Uiso   1.00
C49    C     0.85205   0.35102   0.78422   0.00000  Uiso   1.00
C50    C     0.78491   0.38797   0.71553   0.00000  Uiso   1.00
C51    C     0.71068   0.44488   0.57298   0.00000  Uiso   1.00
C52    C     0.87734   0.34095   0.07897   0.00000  Uiso   1.00
C53    C     0.98354   0.35316   0.13390   0.00000  Uiso   1.00
C54    C     0.97651   0.39108   0.22512   0.00000  Uiso   1.00
C55    C     0.01317   0.44976   0.37753   0.00000  Uiso   1.00
C56    C     0.77214   0.25272   0.00832   0.00000  Uiso   1.00
C57    C     0.78990   0.19073   0.00389   0.00000  Uiso   1.00
C58    C     0.69431   0.15436   0.03565   0.00000  Uiso   1.00
C59    C     0.56764   0.07604   0.07838   0.00000  Uiso   1.00
C60    C     0.66315   0.34637   0.04173   0.00000  Uiso   1.00
C61    C     0.69657   0.36458   0.92395   0.00000  Uiso   1.00
C62    C     0.62934   0.40153   0.85539   0.00000  Uiso   1.00
C63    C     0.67537   0.41281   0.75052   0.00000  Uiso   1.00
C64    C     0.76801   0.36575   0.11391   0.00000  Uiso   1.00
C65    C     0.76083   0.40366   0.20507   0.00000  Uiso   1.00
C66    C     0.86698   0.41592   0.26013   0.00000  Uiso   1.00
C67    C     0.66280   0.27751   0.04326   0.00000  Uiso   1.00
C68    C     0.56718   0.24123   0.07505   0.00000  Uiso   1.00
C69    C     0.58478   0.17920   0.07066   0.00000  Uiso   1.00
H70    H     0.94957   0.28142   0.95021   0.00000  Uiso   1.00
H71    H     0.93667   0.33183   0.75722   0.00000  Uiso   1.00
H72    H     0.06813   0.33396   0.10685   0.00000  Uiso   1.00
H73    H     0.87452   0.17156   0.97685   0.00000  Uiso   1.00
H74    H     0.87418   0.39867   0.55868   0.00000  Uiso   1.00
H75    H     0.15136   0.40314   0.29592   0.00000  Uiso   1.00
H76    H     0.74309   0.06068   0.02178   0.00000  Uiso   1.00
H77    H     0.57802   0.36568   0.06894   0.00000  Uiso   1.00
H78    H     0.54473   0.42071   0.88246   0.00000  Uiso   1.00
H79    H     0.67620   0.42284   0.23209   0.00000  Uiso   1.00
H80    H     0.48259   0.26043   0.10209   0.00000  Uiso   1.00
H81    H     0.55607   0.47080   0.66033   0.00000  Uiso   1.00
H82    H     0.83325   0.47527   0.39757   0.00000  Uiso   1.00
H83    H     0.42498   0.13282   0.12343   0.00000  Uiso   1.00
O84    O     0.69995   0.46943   0.48470   0.00000  Uiso   1.00
O85    O     0.06360   0.47529   0.45194   0.00000  Uiso   1.00
O86    O     0.52796   0.02599   0.09228   0.00000  Uiso   1.00
N87    N     0.80387   0.40808   0.60819   0.00000  Uiso   1.00
N88    N     0.06302   0.41227   0.29745   0.00000  Uiso   1.00
N89    N     0.68134   0.09210   0.04118   0.00000  Uiso   1.00
N90    N     0.63270   0.44690   0.66288   0.00000  Uiso   1.00
N91    N     0.89185   0.45109   0.35214   0.00000  Uiso   1.00
N92    N     0.51016   0.13092   0.09588   0.00000  Uiso   1.00
C93    C     0.93956   0.70060   0.52493   0.00000  Uiso   1.00
C94    C     0.88172   0.66138   0.61407   0.00000  Uiso   1.00
C95    C     0.92840   0.65018   0.71818   0.00000  Uiso   1.00
C96    C     0.86185   0.61306   0.78775   0.00000  Uiso   1.00
C97    C     0.78869   0.55593   0.93123   0.00000  Uiso   1.00
C98    C     0.95232   0.66045   0.42311   0.00000  Uiso   1.00
C99    C     0.05837   0.64849   0.36667   0.00000  Uiso   1.00
C100   C     0.05124   0.61060   0.27548   0.00000  Uiso   1.00
C101   C     0.08769   0.55207   0.12246   0.00000  Uiso   1.00
C102   C     0.84675   0.74844   0.49539   0.00000  Uiso   1.00
C103   C     0.86404   0.81047   0.49969   0.00000  Uiso   1.00
C104   C     0.76804   0.84666   0.46933   0.00000  Uiso   1.00
C105   C     0.64058   0.92475   0.42852   0.00000  Uiso   1.00
C106   C     0.73834   0.65459   0.46334   0.00000  Uiso   1.00
C107   C     0.77243   0.63638   0.58061   0.00000  Uiso   1.00
C108   C     0.70578   0.59928   0.65004   0.00000  Uiso   1.00
C109   C     0.75236   0.58803   0.75424   0.00000  Uiso   1.00
C110   C     0.84304   0.63546   0.38966   0.00000  Uiso   1.00
C111   C     0.83575   0.59758   0.29853   0.00000  Uiso   1.00
C112   C     0.94176   0.58556   0.24197   0.00000  Uiso   1.00
C113   C     0.73746   0.72345   0.46194   0.00000  Uiso   1.00
C114   C     0.64142   0.75956   0.43156   0.00000  Uiso   1.00
C115   C     0.65856   0.82163   0.43581   0.00000  Uiso   1.00
H116   H     0.02465   0.72006   0.55097   0.00000  Uiso   1.00
H117   H     0.01299   0.66953   0.74404   0.00000  Uiso   1.00
H118   H     0.14293   0.66784   0.39257   0.00000  Uiso   1.00
H119   H     0.94863   0.82979   0.52558   0.00000  Uiso   1.00
H120   H     0.95188   0.60246   0.94333   0.00000  Uiso   1.00
H121   H     0.22587   0.59892   0.20222   0.00000  Uiso   1.00
H122   H     0.81616   0.94043   0.48269   0.00000  Uiso   1.00
H123   H     0.65325   0.63513   0.43729   0.00000  Uiso   1.00
H124   H     0.62121   0.57994   0.62413   0.00000  Uiso   1.00
H125   H     0.75116   0.57825   0.27266   0.00000  Uiso   1.00
H126   H     0.55686   0.74021   0.40567   0.00000  Uiso   1.00
H127   H     0.63390   0.52975   0.84600   0.00000  Uiso   1.00
H128   H     0.90789   0.52621   0.10489   0.00000  Uiso   1.00
H129   H     0.49817   0.86772   0.38536   0.00000  Uiso   1.00
O130   O     0.77853   0.53131   0.01961   0.00000  Uiso   1.00
O131   O     0.13799   0.52668   0.04730   0.00000  Uiso   1.00
O132   O     0.60045   0.97473   0.41527   0.00000  Uiso   1.00
N133   N     0.88143   0.59293   0.89479   0.00000  Uiso   1.00
N134   N     0.13760   0.58962   0.20191   0.00000  Uiso   1.00
N135   N     0.75456   0.90890   0.46409   0.00000  Uiso   1.00
N136   N     0.71033   0.55381   0.84242   0.00000  Uiso   1.00
N137   N     0.96649   0.55049   0.14954   0.00000  Uiso   1.00
N138   N     0.58346   0.86977   0.41173   0.00000  Uiso   1.00
C139   C     0.13556   0.80072   0.02260   0.00000  Uiso   1.00
C140   C     0.19409   0.83979   0.11099   0.00000  Uiso   1.00
C141   C     0.14795   0.85102   0.21578   0.00000  Uiso   1.00
C142   C     0.21509   0.88797   0.28447   0.00000  Uiso   1.00
C143   C     0.28932   0.94488   0.42702   0.00000  Uiso   1.00
C144   C     0.12266   0.84095   0.92103   0.00000  Uiso   1.00
C145   C     0.01646   0.85316   0.86610   0.00000  Uiso   1.00
C146   C     0.02349   0.89108   0.77488   0.00000  Uiso   1.00
C147   C     0.98683   0.94976   0.62247   0.00000  Uiso   1.00
C148   C     0.22786   0.75272   0.99168   0.00000  Uiso   1.00
C149   C     0.21010   0.69073   0.99611   0.00000  Uiso   1.00
C150   C     0.30569   0.65436   0.96435   0.00000  Uiso   1.00
C151   C     0.43236   0.57604   0.92162   0.00000  Uiso   1.00
C152   C     0.33685   0.84637   0.95827   0.00000  Uiso   1.00
C153   C     0.30343   0.86458   0.07605   0.00000  Uiso   1.00
C154   C     0.37066   0.90153   0.14461   0.00000  Uiso   1.00
C155   C     0.32463   0.91281   0.24948   0.00000  Uiso   1.00
C156   C     0.23199   0.86575   0.88609   0.00000  Uiso   1.00
C157   C     0.23917   0.90366   0.79493   0.00000  Uiso   1.00
C158   C     0.13302   0.91592   0.73987   0.00000  Uiso   1.00
C159   C     0.33720   0.77751   0.95674   0.00000  Uiso   1.00
C160   C     0.43282   0.74123   0.92495   0.00000  Uiso   1.00
C161   C     0.41522   0.67920   0.92934   0.00000  Uiso   1.00
H162   H     0.05043   0.78142   0.04979   0.00000  Uiso   1.00
H163   H     0.06333   0.83183   0.24278   0.00000  Uiso   1.00
H164   H     0.93187   0.83396   0.89315   0.00000  Uiso   1.00
H165   H     0.12548   0.67156   0.02315   0.00000  Uiso   1.00
H166   H     0.12582   0.89867   0.44132   0.00000  Uiso   1.00
H167   H     0.84864   0.90314   0.70408   0.00000  Uiso   1.00
H168   H     0.25691   0.56068   0.97822   0.00000  Uiso   1.00
H169   H     0.42198   0.86568   0.93106   0.00000  Uiso   1.00
H170   H     0.45527   0.92071   0.11754   0.00000  Uiso   1.00
H171   H     0.32380   0.92284   0.76791   0.00000  Uiso   1.00
H172   H     0.51741   0.76043   0.89791   0.00000  Uiso   1.00
H173   H     0.44393   0.97080   0.33967   0.00000  Uiso   1.00
H174   H     0.16675   0.97527   0.60243   0.00000  Uiso   1.00
H175   H     0.57502   0.63282   0.87657   0.00000  Uiso   1.00
O176   O     0.30005   0.96943   0.51530   0.00000  Uiso   1.00
O177   O     0.93640   0.97529   0.54806   0.00000  Uiso   1.00
O178   O     0.47204   0.52599   0.90772   0.00000  Uiso   1.00
N179   N     0.19613   0.90808   0.39181   0.00000  Uiso   1.00
N180   N     0.93698   0.91227   0.70255   0.00000  Uiso   1.00
N181   N     0.31866   0.59210   0.95882   0.00000  Uiso   1.00
N182   N     0.36730   0.94690   0.33712   0.00000  Uiso   1.00
N183   N     0.10815   0.95109   0.64786   0.00000  Uiso   1.00
N184   N     0.48984   0.63092   0.90412   0.00000  Uiso   1.00
