data_job_02104
_audit_creation_date              2018-12-19
_audit_creation_method            'Materials Studio'
_symmetry_space_group_name_H-M    'P1'
_symmetry_Int_Tables_number       1
_symmetry_cell_setting            triclinic
loop_
_symmetry_equiv_pos_as_xyz
  x,y,z
_cell_length_a                    29.4771
_cell_length_b                    15.4185
_cell_length_c                    14.0503
_cell_angle_alpha                 90.0000
_cell_angle_beta                  68.2793
_cell_angle_gamma                 90.0000
loop_
_atom_site_label
_atom_site_type_symbol
_atom_site_fract_x
_atom_site_fract_y
_atom_site_fract_z
_atom_site_U_iso_or_equiv
_atom_site_adp_type
_atom_site_occupancy
C1     C     0.90002   0.09806   0.81662   0.00000  Uiso   1.00
C2     C     0.92191   0.11515   0.70160   0.00000  Uiso   1.00
C3     C     0.96882   0.09331   0.63652   0.00000  Uiso   1.00
C4     C     0.98191   0.11449   0.53376   0.00000  Uiso   1.00
C5     C     0.02088   0.13474   0.36069   0.00000  Uiso   1.00
C6     C     0.88322   0.18599   0.86705   0.00000  Uiso   1.00
C7     C     0.89759   0.22370   0.94109   0.00000  Uiso   1.00
C8     C     0.87810   0.30451   0.97762   0.00000  Uiso   1.00
C9     C     0.85696   0.43471   0.06148   0.00000  Uiso   1.00
C10    C     0.85370   0.04545   0.83546   0.00000  Uiso   1.00
C11    C     0.84324   0.96502   0.88295   0.00000  Uiso   1.00
C12    C     0.79889   0.92752   0.89290   0.00000  Uiso   1.00
C13    C     0.73192   0.83952   0.92770   0.00000  Uiso   1.00
C14    C     0.83984   0.17450   0.74986   0.00000  Uiso   1.00
C15    C     0.88922   0.15667   0.66535   0.00000  Uiso   1.00
C16    C     0.90224   0.17788   0.56266   0.00000  Uiso   1.00
C17    C     0.94916   0.15608   0.49744   0.00000  Uiso   1.00
C18    C     0.85053   0.22750   0.83080   0.00000  Uiso   1.00
C19    C     0.83100   0.30827   0.86723   0.00000  Uiso   1.00
C20    C     0.84535   0.34611   0.94130   0.00000  Uiso   1.00
C21    C     0.82101   0.08697   0.79920   0.00000  Uiso   1.00
C22    C     0.77666   0.04959   0.80909   0.00000  Uiso   1.00
C23    C     0.76614   0.96911   0.85658   0.00000  Uiso   1.00
H24    H     0.92547   0.06575   0.84485   0.00000  Uiso   1.00
H25    H     0.99411   0.06119   0.66461   0.00000  Uiso   1.00
H26    H     0.92289   0.19156   0.96914   0.00000  Uiso   1.00
H27    H     0.86855   0.93291   0.91100   0.00000  Uiso   1.00
H28    H     0.05581   0.07448   0.44879   0.00000  Uiso   1.00
H29    H     0.90561   0.34935   0.09094   0.00000  Uiso   1.00
H30    H     0.79103   0.80395   0.96835   0.00000  Uiso   1.00
H31    H     0.81438   0.20683   0.72164   0.00000  Uiso   1.00
H32    H     0.87693   0.21001   0.53463   0.00000  Uiso   1.00
H33    H     0.80570   0.34038   0.83916   0.00000  Uiso   1.00
H34    H     0.75137   0.08174   0.78102   0.00000  Uiso   1.00
H35    H     0.96070   0.19527   0.34330   0.00000  Uiso   1.00
H36    H     0.81050   0.47014   0.98545   0.00000  Uiso   1.00
H37    H     0.69592   0.92474   0.86285   0.00000  Uiso   1.00
O38    O     0.05141   0.13445   0.27525   0.00000  Uiso   1.00
O39    O     0.85434   0.49506   0.11774   0.00000  Uiso   1.00
O40    O     0.70402   0.77951   0.95690   0.00000  Uiso   1.00
N41    N     0.02483   0.10245   0.44962   0.00000  Uiso   1.00
N42    N     0.88441   0.35945   0.04998   0.00000  Uiso   1.00
N43    N     0.77729   0.84955   0.93540   0.00000  Uiso   1.00
N44    N     0.97366   0.16745   0.39286   0.00000  Uiso   1.00
N45    N     0.83324   0.42444   0.99321   0.00000  Uiso   1.00
N46    N     0.72611   0.91455   0.87863   0.00000  Uiso   1.00
C47    C     0.40002   0.59806   0.81662   0.00000  Uiso   1.00
C48    C     0.42191   0.61515   0.70160   0.00000  Uiso   1.00
C49    C     0.46882   0.59331   0.63652   0.00000  Uiso   1.00
C50    C     0.48191   0.61449   0.53376   0.00000  Uiso   1.00
C51    C     0.52088   0.63474   0.36069   0.00000  Uiso   1.00
C52    C     0.38322   0.68599   0.86705   0.00000  Uiso   1.00
C53    C     0.39759   0.72370   0.94109   0.00000  Uiso   1.00
C54    C     0.37810   0.80451   0.97762   0.00000  Uiso   1.00
C55    C     0.35696   0.93471   0.06148   0.00000  Uiso   1.00
C56    C     0.35370   0.54545   0.83546   0.00000  Uiso   1.00
C57    C     0.34324   0.46502   0.88295   0.00000  Uiso   1.00
C58    C     0.29889   0.42752   0.89290   0.00000  Uiso   1.00
C59    C     0.23192   0.33952   0.92770   0.00000  Uiso   1.00
C60    C     0.33984   0.67450   0.74986   0.00000  Uiso   1.00
C61    C     0.38922   0.65667   0.66535   0.00000  Uiso   1.00
C62    C     0.40224   0.67788   0.56266   0.00000  Uiso   1.00
C63    C     0.44916   0.65608   0.49744   0.00000  Uiso   1.00
C64    C     0.35053   0.72750   0.83080   0.00000  Uiso   1.00
C65    C     0.33100   0.80827   0.86723   0.00000  Uiso   1.00
C66    C     0.34535   0.84611   0.94130   0.00000  Uiso   1.00
C67    C     0.32101   0.58697   0.79920   0.00000  Uiso   1.00
C68    C     0.27666   0.54959   0.80909   0.00000  Uiso   1.00
C69    C     0.26614   0.46911   0.85658   0.00000  Uiso   1.00
H70    H     0.42547   0.56575   0.84485   0.00000  Uiso   1.00
H71    H     0.49411   0.56119   0.66461   0.00000  Uiso   1.00
H72    H     0.42289   0.69156   0.96914   0.00000  Uiso   1.00
H73    H     0.36855   0.43291   0.91100   0.00000  Uiso   1.00
H74    H     0.55581   0.57448   0.44879   0.00000  Uiso   1.00
H75    H     0.40561   0.84935   0.09094   0.00000  Uiso   1.00
H76    H     0.29103   0.30395   0.96835   0.00000  Uiso   1.00
H77    H     0.31438   0.70683   0.72164   0.00000  Uiso   1.00
H78    H     0.37693   0.71001   0.53463   0.00000  Uiso   1.00
H79    H     0.30570   0.84038   0.83916   0.00000  Uiso   1.00
H80    H     0.25137   0.58174   0.78102   0.00000  Uiso   1.00
H81    H     0.46070   0.69527   0.34330   0.00000  Uiso   1.00
H82    H     0.31050   0.97014   0.98545   0.00000  Uiso   1.00
H83    H     0.19592   0.42474   0.86285   0.00000  Uiso   1.00
O84    O     0.55141   0.63445   0.27525   0.00000  Uiso   1.00
O85    O     0.35434   0.99506   0.11774   0.00000  Uiso   1.00
O86    O     0.20402   0.27951   0.95690   0.00000  Uiso   1.00
N87    N     0.52483   0.60245   0.44962   0.00000  Uiso   1.00
N88    N     0.38441   0.85945   0.04998   0.00000  Uiso   1.00
N89    N     0.27729   0.34955   0.93540   0.00000  Uiso   1.00
N90    N     0.47366   0.66745   0.39286   0.00000  Uiso   1.00
N91    N     0.33324   0.92444   0.99321   0.00000  Uiso   1.00
N92    N     0.22611   0.41455   0.87863   0.00000  Uiso   1.00
C93    C     0.09998   0.09806   0.68338   0.00000  Uiso   1.00
C94    C     0.07809   0.11515   0.79840   0.00000  Uiso   1.00
C95    C     0.03118   0.09331   0.86348   0.00000  Uiso   1.00
C96    C     0.01809   0.11449   0.96624   0.00000  Uiso   1.00
C97    C     0.97912   0.13474   0.13931   0.00000  Uiso   1.00
C98    C     0.11678   0.18599   0.63295   0.00000  Uiso   1.00
C99    C     0.10241   0.22370   0.55891   0.00000  Uiso   1.00
C100   C     0.12190   0.30451   0.52238   0.00000  Uiso   1.00
C101   C     0.14304   0.43471   0.43852   0.00000  Uiso   1.00
C102   C     0.14630   0.04545   0.66454   0.00000  Uiso   1.00
C103   C     0.15676   0.96502   0.61705   0.00000  Uiso   1.00
C104   C     0.20111   0.92752   0.60710   0.00000  Uiso   1.00
C105   C     0.26808   0.83952   0.57230   0.00000  Uiso   1.00
C106   C     0.16016   0.17450   0.75014   0.00000  Uiso   1.00
C107   C     0.11078   0.15667   0.83465   0.00000  Uiso   1.00
C108   C     0.09776   0.17788   0.93734   0.00000  Uiso   1.00
C109   C     0.05084   0.15608   0.00256   0.00000  Uiso   1.00
C110   C     0.14947   0.22750   0.66920   0.00000  Uiso   1.00
C111   C     0.16900   0.30827   0.63277   0.00000  Uiso   1.00
C112   C     0.15465   0.34611   0.55870   0.00000  Uiso   1.00
C113   C     0.17899   0.08697   0.70080   0.00000  Uiso   1.00
C114   C     0.22334   0.04959   0.69091   0.00000  Uiso   1.00
C115   C     0.23386   0.96911   0.64342   0.00000  Uiso   1.00
H116   H     0.07453   0.06575   0.65515   0.00000  Uiso   1.00
H117   H     0.00589   0.06119   0.83539   0.00000  Uiso   1.00
H118   H     0.07711   0.19156   0.53086   0.00000  Uiso   1.00
H119   H     0.13145   0.93291   0.58900   0.00000  Uiso   1.00
H120   H     0.94419   0.07448   0.05121   0.00000  Uiso   1.00
H121   H     0.09439   0.34935   0.40906   0.00000  Uiso   1.00
H122   H     0.20897   0.80395   0.53165   0.00000  Uiso   1.00
H123   H     0.18562   0.20683   0.77836   0.00000  Uiso   1.00
H124   H     0.12307   0.21001   0.96537   0.00000  Uiso   1.00
H125   H     0.19430   0.34038   0.66084   0.00000  Uiso   1.00
H126   H     0.24863   0.08174   0.71898   0.00000  Uiso   1.00
H127   H     0.03930   0.19527   0.15670   0.00000  Uiso   1.00
H128   H     0.18950   0.47014   0.51455   0.00000  Uiso   1.00
H129   H     0.30408   0.92474   0.63715   0.00000  Uiso   1.00
O130   O     0.94859   0.13445   0.22475   0.00000  Uiso   1.00
O131   O     0.14566   0.49506   0.38226   0.00000  Uiso   1.00
O132   O     0.29598   0.77951   0.54310   0.00000  Uiso   1.00
N133   N     0.97517   0.10245   0.05038   0.00000  Uiso   1.00
N134   N     0.11559   0.35945   0.45002   0.00000  Uiso   1.00
N135   N     0.22271   0.84955   0.56460   0.00000  Uiso   1.00
N136   N     0.02634   0.16745   0.10714   0.00000  Uiso   1.00
N137   N     0.16676   0.42444   0.50679   0.00000  Uiso   1.00
N138   N     0.27389   0.91455   0.62137   0.00000  Uiso   1.00
C139   C     0.59998   0.59806   0.68338   0.00000  Uiso   1.00
C140   C     0.57809   0.61515   0.79840   0.00000  Uiso   1.00
C141   C     0.53118   0.59331   0.86348   0.00000  Uiso   1.00
C142   C     0.51809   0.61449   0.96624   0.00000  Uiso   1.00
C143   C     0.47912   0.63474   0.13931   0.00000  Uiso   1.00
C144   C     0.61678   0.68599   0.63295   0.00000  Uiso   1.00
C145   C     0.60241   0.72370   0.55891   0.00000  Uiso   1.00
C146   C     0.62190   0.80451   0.52238   0.00000  Uiso   1.00
C147   C     0.64304   0.93471   0.43852   0.00000  Uiso   1.00
C148   C     0.64630   0.54545   0.66454   0.00000  Uiso   1.00
C149   C     0.65676   0.46502   0.61705   0.00000  Uiso   1.00
C150   C     0.70111   0.42752   0.60710   0.00000  Uiso   1.00
C151   C     0.76808   0.33952   0.57230   0.00000  Uiso   1.00
C152   C     0.66016   0.67450   0.75014   0.00000  Uiso   1.00
C153   C     0.61078   0.65667   0.83465   0.00000  Uiso   1.00
C154   C     0.59776   0.67788   0.93734   0.00000  Uiso   1.00
C155   C     0.55084   0.65608   0.00256   0.00000  Uiso   1.00
C156   C     0.64947   0.72750   0.66920   0.00000  Uiso   1.00
C157   C     0.66900   0.80827   0.63277   0.00000  Uiso   1.00
C158   C     0.65465   0.84611   0.55870   0.00000  Uiso   1.00
C159   C     0.67899   0.58697   0.70080   0.00000  Uiso   1.00
C160   C     0.72334   0.54959   0.69091   0.00000  Uiso   1.00
C161   C     0.73386   0.46911   0.64342   0.00000  Uiso   1.00
H162   H     0.57453   0.56575   0.65515   0.00000  Uiso   1.00
H163   H     0.50589   0.56119   0.83539   0.00000  Uiso   1.00
H164   H     0.57711   0.69156   0.53086   0.00000  Uiso   1.00
H165   H     0.63145   0.43291   0.58900   0.00000  Uiso   1.00
H166   H     0.44419   0.57448   0.05121   0.00000  Uiso   1.00
H167   H     0.59439   0.84935   0.40906   0.00000  Uiso   1.00
H168   H     0.70897   0.30395   0.53165   0.00000  Uiso   1.00
H169   H     0.68562   0.70683   0.77836   0.00000  Uiso   1.00
H170   H     0.62307   0.71001   0.96537   0.00000  Uiso   1.00
H171   H     0.69430   0.84038   0.66084   0.00000  Uiso   1.00
H172   H     0.74863   0.58174   0.71898   0.00000  Uiso   1.00
H173   H     0.53930   0.69527   0.15670   0.00000  Uiso   1.00
H174   H     0.68950   0.97014   0.51455   0.00000  Uiso   1.00
H175   H     0.80408   0.42474   0.63715   0.00000  Uiso   1.00
O176   O     0.44859   0.63445   0.22475   0.00000  Uiso   1.00
O177   O     0.64566   0.99506   0.38226   0.00000  Uiso   1.00
O178   O     0.79598   0.27951   0.54310   0.00000  Uiso   1.00
N179   N     0.47517   0.60245   0.05038   0.00000  Uiso   1.00
N180   N     0.61559   0.85945   0.45002   0.00000  Uiso   1.00
N181   N     0.72271   0.34955   0.56460   0.00000  Uiso   1.00
N182   N     0.52634   0.66745   0.10714   0.00000  Uiso   1.00
N183   N     0.66676   0.92444   0.50679   0.00000  Uiso   1.00
N184   N     0.77389   0.41455   0.62137   0.00000  Uiso   1.00
C185   C     0.09998   0.90194   0.18338   0.00000  Uiso   1.00
C186   C     0.07809   0.88485   0.29840   0.00000  Uiso   1.00
C187   C     0.03118   0.90669   0.36348   0.00000  Uiso   1.00
C188   C     0.01809   0.88551   0.46624   0.00000  Uiso   1.00
C189   C     0.97912   0.86526   0.63931   0.00000  Uiso   1.00
C190   C     0.11678   0.81401   0.13295   0.00000  Uiso   1.00
C191   C     0.10241   0.77630   0.05891   0.00000  Uiso   1.00
C192   C     0.12190   0.69549   0.02238   0.00000  Uiso   1.00
C193   C     0.14304   0.56529   0.93852   0.00000  Uiso   1.00
C194   C     0.14630   0.95455   0.16454   0.00000  Uiso   1.00
C195   C     0.15676   0.03498   0.11705   0.00000  Uiso   1.00
C196   C     0.20111   0.07248   0.10710   0.00000  Uiso   1.00
C197   C     0.26808   0.16048   0.07230   0.00000  Uiso   1.00
C198   C     0.16016   0.82550   0.25014   0.00000  Uiso   1.00
C199   C     0.11078   0.84333   0.33465   0.00000  Uiso   1.00
C200   C     0.09776   0.82212   0.43734   0.00000  Uiso   1.00
C201   C     0.05084   0.84392   0.50256   0.00000  Uiso   1.00
C202   C     0.14947   0.77250   0.16920   0.00000  Uiso   1.00
C203   C     0.16900   0.69173   0.13277   0.00000  Uiso   1.00
C204   C     0.15465   0.65389   0.05870   0.00000  Uiso   1.00
C205   C     0.17899   0.91303   0.20080   0.00000  Uiso   1.00
C206   C     0.22334   0.95041   0.19091   0.00000  Uiso   1.00
C207   C     0.23386   0.03089   0.14342   0.00000  Uiso   1.00
H208   H     0.07453   0.93425   0.15515   0.00000  Uiso   1.00
H209   H     0.00589   0.93881   0.33539   0.00000  Uiso   1.00
H210   H     0.07711   0.80844   0.03086   0.00000  Uiso   1.00
H211   H     0.13145   0.06709   0.08900   0.00000  Uiso   1.00
H212   H     0.94419   0.92552   0.55121   0.00000  Uiso   1.00
H213   H     0.09439   0.65065   0.90906   0.00000  Uiso   1.00
H214   H     0.20897   0.19605   0.03165   0.00000  Uiso   1.00
H215   H     0.18562   0.79317   0.27836   0.00000  Uiso   1.00
H216   H     0.12307   0.78999   0.46537   0.00000  Uiso   1.00
H217   H     0.19430   0.65962   0.16084   0.00000  Uiso   1.00
H218   H     0.24863   0.91826   0.21898   0.00000  Uiso   1.00
H219   H     0.03930   0.80473   0.65670   0.00000  Uiso   1.00
H220   H     0.18950   0.52986   0.01455   0.00000  Uiso   1.00
H221   H     0.30408   0.07526   0.13715   0.00000  Uiso   1.00
O222   O     0.94859   0.86555   0.72475   0.00000  Uiso   1.00
O223   O     0.14566   0.50494   0.88226   0.00000  Uiso   1.00
O224   O     0.29598   0.22049   0.04310   0.00000  Uiso   1.00
N225   N     0.97517   0.89755   0.55038   0.00000  Uiso   1.00
N226   N     0.11559   0.64055   0.95002   0.00000  Uiso   1.00
N227   N     0.22271   0.15045   0.06460   0.00000  Uiso   1.00
N228   N     0.02634   0.83255   0.60714   0.00000  Uiso   1.00
N229   N     0.16676   0.57556   0.00679   0.00000  Uiso   1.00
N230   N     0.27389   0.08545   0.12137   0.00000  Uiso   1.00
C231   C     0.59998   0.40194   0.18338   0.00000  Uiso   1.00
C232   C     0.57809   0.38485   0.29840   0.00000  Uiso   1.00
C233   C     0.53118   0.40669   0.36348   0.00000  Uiso   1.00
C234   C     0.51809   0.38551   0.46624   0.00000  Uiso   1.00
C235   C     0.47912   0.36526   0.63931   0.00000  Uiso   1.00
C236   C     0.61678   0.31401   0.13295   0.00000  Uiso   1.00
C237   C     0.60241   0.27630   0.05891   0.00000  Uiso   1.00
C238   C     0.62190   0.19549   0.02238   0.00000  Uiso   1.00
C239   C     0.64304   0.06529   0.93852   0.00000  Uiso   1.00
C240   C     0.64630   0.45455   0.16454   0.00000  Uiso   1.00
C241   C     0.65676   0.53498   0.11705   0.00000  Uiso   1.00
C242   C     0.70111   0.57248   0.10710   0.00000  Uiso   1.00
C243   C     0.76808   0.66048   0.07230   0.00000  Uiso   1.00
C244   C     0.66016   0.32550   0.25014   0.00000  Uiso   1.00
C245   C     0.61078   0.34333   0.33465   0.00000  Uiso   1.00
C246   C     0.59776   0.32212   0.43734   0.00000  Uiso   1.00
C247   C     0.55084   0.34392   0.50256   0.00000  Uiso   1.00
C248   C     0.64947   0.27250   0.16920   0.00000  Uiso   1.00
C249   C     0.66900   0.19173   0.13277   0.00000  Uiso   1.00
C250   C     0.65465   0.15389   0.05870   0.00000  Uiso   1.00
C251   C     0.67899   0.41303   0.20080   0.00000  Uiso   1.00
C252   C     0.72334   0.45041   0.19091   0.00000  Uiso   1.00
C253   C     0.73386   0.53089   0.14342   0.00000  Uiso   1.00
H254   H     0.57453   0.43425   0.15515   0.00000  Uiso   1.00
H255   H     0.50589   0.43881   0.33539   0.00000  Uiso   1.00
H256   H     0.57711   0.30844   0.03086   0.00000  Uiso   1.00
H257   H     0.63145   0.56709   0.08900   0.00000  Uiso   1.00
H258   H     0.44419   0.42552   0.55121   0.00000  Uiso   1.00
H259   H     0.59439   0.15065   0.90906   0.00000  Uiso   1.00
H260   H     0.70897   0.69605   0.03165   0.00000  Uiso   1.00
H261   H     0.68562   0.29317   0.27836   0.00000  Uiso   1.00
H262   H     0.62307   0.28999   0.46537   0.00000  Uiso   1.00
H263   H     0.69430   0.15962   0.16084   0.00000  Uiso   1.00
H264   H     0.74863   0.41826   0.21898   0.00000  Uiso   1.00
H265   H     0.53930   0.30473   0.65670   0.00000  Uiso   1.00
H266   H     0.68950   0.02986   0.01455   0.00000  Uiso   1.00
H267   H     0.80408   0.57526   0.13715   0.00000  Uiso   1.00
O268   O     0.44859   0.36555   0.72475   0.00000  Uiso   1.00
O269   O     0.64566   0.00494   0.88226   0.00000  Uiso   1.00
O270   O     0.79598   0.72049   0.04310   0.00000  Uiso   1.00
N271   N     0.47517   0.39755   0.55038   0.00000  Uiso   1.00
N272   N     0.61559   0.14055   0.95002   0.00000  Uiso   1.00
N273   N     0.72271   0.65045   0.06460   0.00000  Uiso   1.00
N274   N     0.52634   0.33255   0.60714   0.00000  Uiso   1.00
N275   N     0.66676   0.07556   0.00679   0.00000  Uiso   1.00
N276   N     0.77389   0.58545   0.12137   0.00000  Uiso   1.00
C277   C     0.90002   0.90194   0.31662   0.00000  Uiso   1.00
C278   C     0.92191   0.88485   0.20160   0.00000  Uiso   1.00
C279   C     0.96882   0.90669   0.13652   0.00000  Uiso   1.00
C280   C     0.98191   0.88551   0.03376   0.00000  Uiso   1.00
C281   C     0.02088   0.86526   0.86069   0.00000  Uiso   1.00
C282   C     0.88322   0.81401   0.36705   0.00000  Uiso   1.00
C283   C     0.89759   0.77630   0.44109   0.00000  Uiso   1.00
C284   C     0.87810   0.69549   0.47762   0.00000  Uiso   1.00
C285   C     0.85696   0.56529   0.56148   0.00000  Uiso   1.00
C286   C     0.85370   0.95455   0.33546   0.00000  Uiso   1.00
C287   C     0.84324   0.03498   0.38295   0.00000  Uiso   1.00
C288   C     0.79889   0.07248   0.39290   0.00000  Uiso   1.00
C289   C     0.73192   0.16048   0.42770   0.00000  Uiso   1.00
C290   C     0.83984   0.82550   0.24986   0.00000  Uiso   1.00
C291   C     0.88922   0.84333   0.16535   0.00000  Uiso   1.00
C292   C     0.90224   0.82212   0.06266   0.00000  Uiso   1.00
C293   C     0.94916   0.84392   0.99744   0.00000  Uiso   1.00
C294   C     0.85053   0.77250   0.33080   0.00000  Uiso   1.00
C295   C     0.83100   0.69173   0.36723   0.00000  Uiso   1.00
C296   C     0.84535   0.65389   0.44130   0.00000  Uiso   1.00
C297   C     0.82101   0.91303   0.29920   0.00000  Uiso   1.00
C298   C     0.77666   0.95041   0.30909   0.00000  Uiso   1.00
C299   C     0.76614   0.03089   0.35658   0.00000  Uiso   1.00
H300   H     0.92547   0.93425   0.34485   0.00000  Uiso   1.00
H301   H     0.99411   0.93881   0.16461   0.00000  Uiso   1.00
H302   H     0.92289   0.80844   0.46914   0.00000  Uiso   1.00
H303   H     0.86855   0.06709   0.41100   0.00000  Uiso   1.00
H304   H     0.05581   0.92552   0.94879   0.00000  Uiso   1.00
H305   H     0.90561   0.65065   0.59094   0.00000  Uiso   1.00
H306   H     0.79103   0.19605   0.46835   0.00000  Uiso   1.00
H307   H     0.81438   0.79317   0.22164   0.00000  Uiso   1.00
H308   H     0.87693   0.78999   0.03463   0.00000  Uiso   1.00
H309   H     0.80570   0.65962   0.33916   0.00000  Uiso   1.00
H310   H     0.75137   0.91826   0.28102   0.00000  Uiso   1.00
H311   H     0.96070   0.80473   0.84330   0.00000  Uiso   1.00
H312   H     0.81050   0.52986   0.48545   0.00000  Uiso   1.00
H313   H     0.69592   0.07526   0.36285   0.00000  Uiso   1.00
O314   O     0.05141   0.86555   0.77525   0.00000  Uiso   1.00
O315   O     0.85434   0.50494   0.61774   0.00000  Uiso   1.00
O316   O     0.70402   0.22049   0.45690   0.00000  Uiso   1.00
N317   N     0.02483   0.89755   0.94962   0.00000  Uiso   1.00
N318   N     0.88441   0.64055   0.54998   0.00000  Uiso   1.00
N319   N     0.77729   0.15045   0.43540   0.00000  Uiso   1.00
N320   N     0.97366   0.83255   0.89286   0.00000  Uiso   1.00
N321   N     0.83324   0.57556   0.49321   0.00000  Uiso   1.00
N322   N     0.72611   0.08545   0.37863   0.00000  Uiso   1.00
C323   C     0.40002   0.40194   0.31662   0.00000  Uiso   1.00
C324   C     0.42191   0.38485   0.20160   0.00000  Uiso   1.00
C325   C     0.46882   0.40669   0.13652   0.00000  Uiso   1.00
C326   C     0.48191   0.38551   0.03376   0.00000  Uiso   1.00
C327   C     0.52088   0.36526   0.86069   0.00000  Uiso   1.00
C328   C     0.38322   0.31401   0.36705   0.00000  Uiso   1.00
C329   C     0.39759   0.27630   0.44109   0.00000  Uiso   1.00
C330   C     0.37810   0.19549   0.47762   0.00000  Uiso   1.00
C331   C     0.35696   0.06529   0.56148   0.00000  Uiso   1.00
C332   C     0.35370   0.45455   0.33546   0.00000  Uiso   1.00
C333   C     0.34324   0.53498   0.38295   0.00000  Uiso   1.00
C334   C     0.29889   0.57248   0.39290   0.00000  Uiso   1.00
C335   C     0.23192   0.66048   0.42770   0.00000  Uiso   1.00
C336   C     0.33984   0.32550   0.24986   0.00000  Uiso   1.00
C337   C     0.38922   0.34333   0.16535   0.00000  Uiso   1.00
C338   C     0.40224   0.32212   0.06266   0.00000  Uiso   1.00
C339   C     0.44916   0.34392   0.99744   0.00000  Uiso   1.00
C340   C     0.35053   0.27250   0.33080   0.00000  Uiso   1.00
C341   C     0.33100   0.19173   0.36723   0.00000  Uiso   1.00
C342   C     0.34535   0.15389   0.44130   0.00000  Uiso   1.00
C343   C     0.32101   0.41303   0.29920   0.00000  Uiso   1.00
C344   C     0.27666   0.45041   0.30909   0.00000  Uiso   1.00
C345   C     0.26614   0.53089   0.35658   0.00000  Uiso   1.00
H346   H     0.42547   0.43425   0.34485   0.00000  Uiso   1.00
H347   H     0.49411   0.43881   0.16461   0.00000  Uiso   1.00
H348   H     0.42289   0.30844   0.46914   0.00000  Uiso   1.00
H349   H     0.36855   0.56709   0.41100   0.00000  Uiso   1.00
H350   H     0.55581   0.42552   0.94879   0.00000  Uiso   1.00
H351   H     0.40561   0.15065   0.59094   0.00000  Uiso   1.00
H352   H     0.29103   0.69605   0.46835   0.00000  Uiso   1.00
H353   H     0.31438   0.29317   0.22164   0.00000  Uiso   1.00
H354   H     0.37693   0.28999   0.03463   0.00000  Uiso   1.00
H355   H     0.30570   0.15962   0.33916   0.00000  Uiso   1.00
H356   H     0.25137   0.41826   0.28102   0.00000  Uiso   1.00
H357   H     0.46070   0.30473   0.84330   0.00000  Uiso   1.00
H358   H     0.31050   0.02986   0.48545   0.00000  Uiso   1.00
H359   H     0.19592   0.57526   0.36285   0.00000  Uiso   1.00
O360   O     0.55141   0.36555   0.77525   0.00000  Uiso   1.00
O361   O     0.35434   0.00494   0.61774   0.00000  Uiso   1.00
O362   O     0.20402   0.72049   0.45690   0.00000  Uiso   1.00
N363   N     0.52483   0.39755   0.94962   0.00000  Uiso   1.00
N364   N     0.38441   0.14055   0.54998   0.00000  Uiso   1.00
N365   N     0.27729   0.65045   0.43540   0.00000  Uiso   1.00
N366   N     0.47366   0.33255   0.89286   0.00000  Uiso   1.00
N367   N     0.33324   0.07556   0.49321   0.00000  Uiso   1.00
N368   N     0.22611   0.58545   0.37863   0.00000  Uiso   1.00
