data_job_02998
_audit_creation_date              2018-12-19
_audit_creation_method            'Materials Studio'
_symmetry_space_group_name_H-M    'P1'
_symmetry_Int_Tables_number       1
_symmetry_cell_setting            triclinic
loop_
_symmetry_equiv_pos_as_xyz
  x,y,z
_cell_length_a                    17.4375
_cell_length_b                    10.2086
_cell_length_c                    31.1067
_cell_angle_alpha                 90.0000
_cell_angle_beta                  32.9814
_cell_angle_gamma                 90.0000
loop_
_atom_site_label
_atom_site_type_symbol
_atom_site_fract_x
_atom_site_fract_y
_atom_site_fract_z
_atom_site_U_iso_or_equiv
_atom_site_adp_type
_atom_site_occupancy
C1     C     0.88789   0.99341   0.94240   0.00000  Uiso   1.00
C2     C     0.96151   0.88791   0.88133   0.00000  Uiso   1.00
C3     C     0.94508   0.75373   0.89415   0.00000  Uiso   1.00
C4     C     0.02176   0.67343   0.83070   0.00000  Uiso   1.00
C5     C     0.12246   0.50168   0.74706   0.00000  Uiso   1.00
C6     C     0.00471   0.07781   0.90658   0.00000  Uiso   1.00
C7     C     0.02458   0.10331   0.94064   0.00000  Uiso   1.00
C8     C     0.13762   0.18290   0.89845   0.00000  Uiso   1.00
C9     C     0.30532   0.30606   0.85404   0.00000  Uiso   1.00
C10    C     0.81082   0.08031   0.94645   0.00000  Uiso   1.00
C11    C     0.66767   0.10794   0.01403   0.00000  Uiso   1.00
C12    C     0.61747   0.18965   0.00541   0.00000  Uiso   1.00
C13    C     0.48413   0.31668   0.02289   0.00000  Uiso   1.00
C14    C     0.05330   0.08943   0.80692   0.00000  Uiso   1.00
C15    C     0.05135   0.94007   0.80774   0.00000  Uiso   1.00
C16    C     0.12808   0.85996   0.74426   0.00000  Uiso   1.00
C17    C     0.11176   0.72568   0.75699   0.00000  Uiso   1.00
C18    C     0.09455   0.12997   0.83300   0.00000  Uiso   1.00
C19    C     0.20758   0.20954   0.79075   0.00000  Uiso   1.00
C20    C     0.22762   0.23515   0.82473   0.00000  Uiso   1.00
C21    C     0.90066   0.13246   0.87286   0.00000  Uiso   1.00
C22    C     0.85067   0.21416   0.86414   0.00000  Uiso   1.00
C23    C     0.70747   0.24190   0.93169   0.00000  Uiso   1.00
H24    H     0.81795   0.95281   0.99969   0.00000  Uiso   1.00
H25    H     0.87555   0.71340   0.95111   0.00000  Uiso   1.00
H26    H     0.95503   0.06295   0.99759   0.00000  Uiso   1.00
H27    H     0.59818   0.06756   0.07097   0.00000  Uiso   1.00
H28    H     0.97907   0.47097   0.86478   0.00000  Uiso   1.00
H29    H     0.14662   0.20804   0.96281   0.00000  Uiso   1.00
H30    H     0.39413   0.21777   0.11754   0.00000  Uiso   1.00
H31    H     0.12325   0.13004   0.74963   0.00000  Uiso   1.00
H32    H     0.19759   0.90035   0.68732   0.00000  Uiso   1.00
H33    H     0.27708   0.24989   0.73381   0.00000  Uiso   1.00
H34    H     0.92023   0.25450   0.80718   0.00000  Uiso   1.00
H35    H     0.24046   0.62270   0.65068   0.00000  Uiso   1.00
H36    H     0.40801   0.35978   0.74871   0.00000  Uiso   1.00
H37    H     0.65552   0.36950   0.90344   0.00000  Uiso   1.00
O38    O     0.15320   0.39254   0.72125   0.00000  Uiso   1.00
O39    O     0.37300   0.35957   0.84987   0.00000  Uiso   1.00
O40    O     0.38576   0.37232   0.05286   0.00000  Uiso   1.00
N41    N     0.03036   0.53820   0.82295   0.00000  Uiso   1.00
N42    N     0.18703   0.22730   0.91459   0.00000  Uiso   1.00
N43    N     0.48352   0.23643   0.05926   0.00000  Uiso   1.00
N44    N     0.17101   0.61985   0.70774   0.00000  Uiso   1.00
N45    N     0.32768   0.30895   0.79939   0.00000  Uiso   1.00
N46    N     0.62417   0.31807   0.94405   0.00000  Uiso   1.00
C47    C     0.11211   0.99341   0.55760   0.00000  Uiso   1.00
C48    C     0.03849   0.88791   0.61867   0.00000  Uiso   1.00
C49    C     0.05492   0.75373   0.60585   0.00000  Uiso   1.00
C50    C     0.97824   0.67343   0.66930   0.00000  Uiso   1.00
C51    C     0.87754   0.50168   0.75294   0.00000  Uiso   1.00
C52    C     0.99529   0.07781   0.59342   0.00000  Uiso   1.00
C53    C     0.97542   0.10331   0.55936   0.00000  Uiso   1.00
C54    C     0.86238   0.18290   0.60155   0.00000  Uiso   1.00
C55    C     0.69468   0.30606   0.64596   0.00000  Uiso   1.00
C56    C     0.18918   0.08031   0.55355   0.00000  Uiso   1.00
C57    C     0.33233   0.10794   0.48597   0.00000  Uiso   1.00
C58    C     0.38253   0.18965   0.49459   0.00000  Uiso   1.00
C59    C     0.51587   0.31668   0.47711   0.00000  Uiso   1.00
C60    C     0.94670   0.08943   0.69308   0.00000  Uiso   1.00
C61    C     0.94865   0.94007   0.69226   0.00000  Uiso   1.00
C62    C     0.87192   0.85996   0.75574   0.00000  Uiso   1.00
C63    C     0.88824   0.72568   0.74301   0.00000  Uiso   1.00
C64    C     0.90545   0.12997   0.66700   0.00000  Uiso   1.00
C65    C     0.79242   0.20954   0.70925   0.00000  Uiso   1.00
C66    C     0.77238   0.23515   0.67527   0.00000  Uiso   1.00
C67    C     0.09934   0.13246   0.62714   0.00000  Uiso   1.00
C68    C     0.14933   0.21416   0.63586   0.00000  Uiso   1.00
C69    C     0.29253   0.24190   0.56831   0.00000  Uiso   1.00
H70    H     0.18205   0.95281   0.50031   0.00000  Uiso   1.00
H71    H     0.12445   0.71340   0.54889   0.00000  Uiso   1.00
H72    H     0.04497   0.06295   0.50241   0.00000  Uiso   1.00
H73    H     0.40182   0.06756   0.42903   0.00000  Uiso   1.00
H74    H     0.02093   0.47097   0.63522   0.00000  Uiso   1.00
H75    H     0.85338   0.20804   0.53719   0.00000  Uiso   1.00
H76    H     0.60587   0.21777   0.38246   0.00000  Uiso   1.00
H77    H     0.87675   0.13004   0.75037   0.00000  Uiso   1.00
H78    H     0.80241   0.90035   0.81268   0.00000  Uiso   1.00
H79    H     0.72292   0.24989   0.76619   0.00000  Uiso   1.00
H80    H     0.07977   0.25450   0.69282   0.00000  Uiso   1.00
H81    H     0.75954   0.62270   0.84932   0.00000  Uiso   1.00
H82    H     0.59199   0.35978   0.75129   0.00000  Uiso   1.00
H83    H     0.34448   0.36950   0.59656   0.00000  Uiso   1.00
O84    O     0.84680   0.39254   0.77875   0.00000  Uiso   1.00
O85    O     0.62700   0.35957   0.65013   0.00000  Uiso   1.00
O86    O     0.61424   0.37232   0.44714   0.00000  Uiso   1.00
N87    N     0.96964   0.53820   0.67705   0.00000  Uiso   1.00
N88    N     0.81297   0.22730   0.58541   0.00000  Uiso   1.00
N89    N     0.51648   0.23643   0.44074   0.00000  Uiso   1.00
N90    N     0.82899   0.61985   0.79226   0.00000  Uiso   1.00
N91    N     0.67232   0.30895   0.70061   0.00000  Uiso   1.00
N92    N     0.37583   0.31807   0.55595   0.00000  Uiso   1.00
C93    C     0.11211   0.00659   0.05760   0.00000  Uiso   1.00
C94    C     0.03849   0.11209   0.11867   0.00000  Uiso   1.00
C95    C     0.05492   0.24627   0.10585   0.00000  Uiso   1.00
C96    C     0.97824   0.32657   0.16930   0.00000  Uiso   1.00
C97    C     0.87754   0.49832   0.25294   0.00000  Uiso   1.00
C98    C     0.99529   0.92219   0.09342   0.00000  Uiso   1.00
C99    C     0.97542   0.89669   0.05936   0.00000  Uiso   1.00
C100   C     0.86238   0.81710   0.10155   0.00000  Uiso   1.00
C101   C     0.69468   0.69394   0.14596   0.00000  Uiso   1.00
C102   C     0.18918   0.91969   0.05355   0.00000  Uiso   1.00
C103   C     0.33233   0.89206   0.98597   0.00000  Uiso   1.00
C104   C     0.38253   0.81035   0.99459   0.00000  Uiso   1.00
C105   C     0.51587   0.68332   0.97711   0.00000  Uiso   1.00
C106   C     0.94670   0.91057   0.19308   0.00000  Uiso   1.00
C107   C     0.94865   0.05993   0.19226   0.00000  Uiso   1.00
C108   C     0.87192   0.14004   0.25574   0.00000  Uiso   1.00
C109   C     0.88824   0.27432   0.24301   0.00000  Uiso   1.00
C110   C     0.90545   0.87003   0.16700   0.00000  Uiso   1.00
C111   C     0.79242   0.79046   0.20925   0.00000  Uiso   1.00
C112   C     0.77238   0.76485   0.17527   0.00000  Uiso   1.00
C113   C     0.09934   0.86754   0.12714   0.00000  Uiso   1.00
C114   C     0.14933   0.78584   0.13586   0.00000  Uiso   1.00
C115   C     0.29253   0.75810   0.06831   0.00000  Uiso   1.00
H116   H     0.18205   0.04719   0.00031   0.00000  Uiso   1.00
H117   H     0.12445   0.28660   0.04889   0.00000  Uiso   1.00
H118   H     0.04497   0.93705   0.00241   0.00000  Uiso   1.00
H119   H     0.40182   0.93244   0.92903   0.00000  Uiso   1.00
H120   H     0.02093   0.52903   0.13522   0.00000  Uiso   1.00
H121   H     0.85338   0.79196   0.03719   0.00000  Uiso   1.00
H122   H     0.60587   0.78223   0.88246   0.00000  Uiso   1.00
H123   H     0.87675   0.86996   0.25037   0.00000  Uiso   1.00
H124   H     0.80241   0.09965   0.31268   0.00000  Uiso   1.00
H125   H     0.72292   0.75011   0.26619   0.00000  Uiso   1.00
H126   H     0.07977   0.74550   0.19282   0.00000  Uiso   1.00
H127   H     0.75954   0.37730   0.34932   0.00000  Uiso   1.00
H128   H     0.59199   0.64022   0.25129   0.00000  Uiso   1.00
H129   H     0.34448   0.63050   0.09656   0.00000  Uiso   1.00
O130   O     0.84680   0.60746   0.27875   0.00000  Uiso   1.00
O131   O     0.62700   0.64043   0.15013   0.00000  Uiso   1.00
O132   O     0.61424   0.62768   0.94714   0.00000  Uiso   1.00
N133   N     0.96964   0.46180   0.17705   0.00000  Uiso   1.00
N134   N     0.81297   0.77270   0.08541   0.00000  Uiso   1.00
N135   N     0.51648   0.76357   0.94074   0.00000  Uiso   1.00
N136   N     0.82899   0.38015   0.29226   0.00000  Uiso   1.00
N137   N     0.67232   0.69105   0.20061   0.00000  Uiso   1.00
N138   N     0.37583   0.68193   0.05595   0.00000  Uiso   1.00
C139   C     0.88789   0.00659   0.44240   0.00000  Uiso   1.00
C140   C     0.96151   0.11209   0.38133   0.00000  Uiso   1.00
C141   C     0.94508   0.24627   0.39415   0.00000  Uiso   1.00
C142   C     0.02176   0.32657   0.33070   0.00000  Uiso   1.00
C143   C     0.12246   0.49832   0.24706   0.00000  Uiso   1.00
C144   C     0.00471   0.92219   0.40658   0.00000  Uiso   1.00
C145   C     0.02458   0.89669   0.44064   0.00000  Uiso   1.00
C146   C     0.13762   0.81710   0.39845   0.00000  Uiso   1.00
C147   C     0.30532   0.69394   0.35404   0.00000  Uiso   1.00
C148   C     0.81082   0.91969   0.44645   0.00000  Uiso   1.00
C149   C     0.66767   0.89206   0.51403   0.00000  Uiso   1.00
C150   C     0.61747   0.81035   0.50541   0.00000  Uiso   1.00
C151   C     0.48413   0.68332   0.52289   0.00000  Uiso   1.00
C152   C     0.05330   0.91057   0.30692   0.00000  Uiso   1.00
C153   C     0.05135   0.05993   0.30774   0.00000  Uiso   1.00
C154   C     0.12808   0.14004   0.24426   0.00000  Uiso   1.00
C155   C     0.11176   0.27432   0.25699   0.00000  Uiso   1.00
C156   C     0.09455   0.87003   0.33300   0.00000  Uiso   1.00
C157   C     0.20758   0.79046   0.29075   0.00000  Uiso   1.00
C158   C     0.22762   0.76485   0.32473   0.00000  Uiso   1.00
C159   C     0.90066   0.86754   0.37286   0.00000  Uiso   1.00
C160   C     0.85067   0.78584   0.36414   0.00000  Uiso   1.00
C161   C     0.70747   0.75810   0.43169   0.00000  Uiso   1.00
H162   H     0.81795   0.04719   0.49969   0.00000  Uiso   1.00
H163   H     0.87555   0.28660   0.45111   0.00000  Uiso   1.00
H164   H     0.95503   0.93705   0.49759   0.00000  Uiso   1.00
H165   H     0.59818   0.93244   0.57097   0.00000  Uiso   1.00
H166   H     0.97907   0.52903   0.36478   0.00000  Uiso   1.00
H167   H     0.14662   0.79196   0.46281   0.00000  Uiso   1.00
H168   H     0.39413   0.78223   0.61754   0.00000  Uiso   1.00
H169   H     0.12325   0.86996   0.24963   0.00000  Uiso   1.00
H170   H     0.19759   0.09965   0.18732   0.00000  Uiso   1.00
H171   H     0.27708   0.75011   0.23381   0.00000  Uiso   1.00
H172   H     0.92023   0.74550   0.30718   0.00000  Uiso   1.00
H173   H     0.24046   0.37730   0.15068   0.00000  Uiso   1.00
H174   H     0.40801   0.64022   0.24871   0.00000  Uiso   1.00
H175   H     0.65552   0.63050   0.40344   0.00000  Uiso   1.00
O176   O     0.15320   0.60746   0.22125   0.00000  Uiso   1.00
O177   O     0.37300   0.64043   0.34987   0.00000  Uiso   1.00
O178   O     0.38576   0.62768   0.55286   0.00000  Uiso   1.00
N179   N     0.03036   0.46180   0.32295   0.00000  Uiso   1.00
N180   N     0.18703   0.77270   0.41459   0.00000  Uiso   1.00
N181   N     0.48352   0.76357   0.55926   0.00000  Uiso   1.00
N182   N     0.17101   0.38015   0.20774   0.00000  Uiso   1.00
N183   N     0.32768   0.69105   0.29939   0.00000  Uiso   1.00
N184   N     0.62417   0.68193   0.44405   0.00000  Uiso   1.00
