data_job_00781
_audit_creation_date              2018-12-19
_audit_creation_method            'Materials Studio'
_symmetry_space_group_name_H-M    'P1'
_symmetry_Int_Tables_number       1
_symmetry_cell_setting            triclinic
loop_
_symmetry_equiv_pos_as_xyz
  x,y,z
_cell_length_a                    22.6517
_cell_length_b                    22.6517
_cell_length_c                    9.5319
_cell_angle_alpha                 90.0000
_cell_angle_beta                  90.0000
_cell_angle_gamma                 120.0000
loop_
_atom_site_label
_atom_site_type_symbol
_atom_site_fract_x
_atom_site_fract_y
_atom_site_fract_z
_atom_site_U_iso_or_equiv
_atom_site_adp_type
_atom_site_occupancy
C1     C     0.18147   0.39308   0.36599   0.00000  Uiso   1.00
C2     C     0.12079   0.38306   0.45356   0.00000  Uiso   1.00
C3     C     0.09798   0.42940   0.46628   0.00000  Uiso   1.00
C4     C     0.04162   0.41071   0.55144   0.00000  Uiso   1.00
C5     C     0.95234   0.40472   0.67684   0.00000  Uiso   1.00
C6     C     0.22886   0.38439   0.46679   0.00000  Uiso   1.00
C7     C     0.29691   0.43184   0.49061   0.00000  Uiso   1.00
C8     C     0.33152   0.41426   0.58689   0.00000  Uiso   1.00
C9     C     0.41003   0.41031   0.73274   0.00000  Uiso   1.00
C10    C     0.15396   0.33257   0.26579   0.00000  Uiso   1.00
C11    C     0.15906   0.33645   0.12060   0.00000  Uiso   1.00
C12    C     0.13063   0.27523   0.04766   0.00000  Uiso   1.00
C13    C     0.09286   0.19083   0.88143   0.00000  Uiso   1.00
C14    C     0.12194   0.27748   0.49462   0.00000  Uiso   1.00
C15    C     0.08846   0.32027   0.52343   0.00000  Uiso   1.00
C16    C     0.03211   0.30150   0.60859   0.00000  Uiso   1.00
C17    C     0.00922   0.34780   0.62143   0.00000  Uiso   1.00
C18    C     0.19652   0.32160   0.53665   0.00000  Uiso   1.00
C19    C     0.23104   0.30394   0.63292   0.00000  Uiso   1.00
C20    C     0.29912   0.35135   0.65688   0.00000  Uiso   1.00
C21    C     0.12163   0.26978   0.33565   0.00000  Uiso   1.00
C22    C     0.09319   0.20855   0.26292   0.00000  Uiso   1.00
C23    C     0.09824   0.21233   0.11765   0.00000  Uiso   1.00
H24    H     0.20665   0.44197   0.31161   0.00000  Uiso   1.00
H25    H     0.12302   0.47799   0.41221   0.00000  Uiso   1.00
H26    H     0.32192   0.48043   0.43652   0.00000  Uiso   1.00
H27    H     0.18409   0.38505   0.06658   0.00000  Uiso   1.00
H28    H     0.01606   0.49026   0.55459   0.00000  Uiso   1.00
H29    H     0.43546   0.49538   0.60581   0.00000  Uiso   1.00
H30    H     0.14481   0.29425   0.82572   0.00000  Uiso   1.00
H31    H     0.09676   0.22859   0.54901   0.00000  Uiso   1.00
H32    H     0.00710   0.25291   0.66264   0.00000  Uiso   1.00
H33    H     0.20600   0.25534   0.68695   0.00000  Uiso   1.00
H34    H     0.06817   0.15996   0.31702   0.00000  Uiso   1.00
H35    H     0.92198   0.30757   0.75786   0.00000  Uiso   1.00
H36    H     0.34138   0.31269   0.80908   0.00000  Uiso   1.00
H37    H     0.05073   0.11157   0.02899   0.00000  Uiso   1.00
O38    O     0.91204   0.41877   0.72673   0.00000  Uiso   1.00
O39    O     0.46227   0.42548   0.79391   0.00000  Uiso   1.00
O40    O     0.08095   0.16162   0.77045   0.00000  Uiso   1.00
N41    N     0.00622   0.44392   0.58681   0.00000  Uiso   1.00
N42    N     0.39832   0.44871   0.63472   0.00000  Uiso   1.00
N43    N     0.12661   0.26068   0.90540   0.00000  Uiso   1.00
N44    N     0.95559   0.34561   0.69619   0.00000  Uiso   1.00
N45    N     0.34770   0.35041   0.74410   0.00000  Uiso   1.00
N46    N     0.07598   0.16237   0.01478   0.00000  Uiso   1.00
C47    C     0.60692   0.78839   0.03266   0.00000  Uiso   1.00
C48    C     0.61694   0.73773   0.12023   0.00000  Uiso   1.00
C49    C     0.57060   0.66858   0.13295   0.00000  Uiso   1.00
C50    C     0.58929   0.63091   0.21811   0.00000  Uiso   1.00
C51    C     0.59528   0.54762   0.34351   0.00000  Uiso   1.00
C52    C     0.61561   0.84447   0.13346   0.00000  Uiso   1.00
C53    C     0.56816   0.86507   0.15727   0.00000  Uiso   1.00
C54    C     0.58574   0.91726   0.25356   0.00000  Uiso   1.00
C55    C     0.58969   0.99972   0.39941   0.00000  Uiso   1.00
C56    C     0.66743   0.82139   0.93246   0.00000  Uiso   1.00
C57    C     0.66355   0.82261   0.78727   0.00000  Uiso   1.00
C58    C     0.72477   0.85539   0.71433   0.00000  Uiso   1.00
C59    C     0.80917   0.90203   0.54810   0.00000  Uiso   1.00
C60    C     0.72252   0.84446   0.16129   0.00000  Uiso   1.00
C61    C     0.67973   0.76819   0.19010   0.00000  Uiso   1.00
C62    C     0.69850   0.73061   0.27526   0.00000  Uiso   1.00
C63    C     0.65220   0.66142   0.28809   0.00000  Uiso   1.00
C64    C     0.67840   0.87492   0.20332   0.00000  Uiso   1.00
C65    C     0.69606   0.92710   0.29958   0.00000  Uiso   1.00
C66    C     0.64865   0.94777   0.32355   0.00000  Uiso   1.00
C67    C     0.73022   0.85185   0.00232   0.00000  Uiso   1.00
C68    C     0.79145   0.88464   0.92958   0.00000  Uiso   1.00
C69    C     0.78767   0.88591   0.78432   0.00000  Uiso   1.00
H70    H     0.55803   0.76468   0.97827   0.00000  Uiso   1.00
H71    H     0.52201   0.64503   0.07887   0.00000  Uiso   1.00
H72    H     0.51957   0.84149   0.10318   0.00000  Uiso   1.00
H73    H     0.61495   0.79904   0.73324   0.00000  Uiso   1.00
H74    H     0.50974   0.52581   0.22126   0.00000  Uiso   1.00
H75    H     0.50462   0.94008   0.27248   0.00000  Uiso   1.00
H76    H     0.70575   0.85056   0.49239   0.00000  Uiso   1.00
H77    H     0.77141   0.86817   0.21568   0.00000  Uiso   1.00
H78    H     0.74709   0.75419   0.32931   0.00000  Uiso   1.00
H79    H     0.74466   0.95066   0.35362   0.00000  Uiso   1.00
H80    H     0.84004   0.90821   0.98368   0.00000  Uiso   1.00
H81    H     0.69243   0.61441   0.42453   0.00000  Uiso   1.00
H82    H     0.68731   0.02869   0.47575   0.00000  Uiso   1.00
H83    H     0.88843   0.93916   0.69566   0.00000  Uiso   1.00
O84    O     0.58123   0.49327   0.39339   0.00000  Uiso   1.00
O85    O     0.57452   0.03678   0.46057   0.00000  Uiso   1.00
O86    O     0.83838   0.91933   0.43711   0.00000  Uiso   1.00
N87    N     0.55608   0.56230   0.25348   0.00000  Uiso   1.00
N88    N     0.55129   0.94961   0.30139   0.00000  Uiso   1.00
N89    N     0.73932   0.86593   0.57207   0.00000  Uiso   1.00
N90    N     0.65439   0.60998   0.36286   0.00000  Uiso   1.00
N91    N     0.64959   0.99729   0.41076   0.00000  Uiso   1.00
N92    N     0.83763   0.91361   0.68144   0.00000  Uiso   1.00
C93    C     0.21161   0.81853   0.69933   0.00000  Uiso   1.00
C94    C     0.26227   0.87921   0.78690   0.00000  Uiso   1.00
C95    C     0.33142   0.90202   0.79961   0.00000  Uiso   1.00
C96    C     0.36909   0.95838   0.88478   0.00000  Uiso   1.00
C97    C     0.45238   0.04766   0.01018   0.00000  Uiso   1.00
C98    C     0.15553   0.77114   0.80012   0.00000  Uiso   1.00
C99    C     0.13493   0.70309   0.82394   0.00000  Uiso   1.00
C100   C     0.08274   0.66848   0.92022   0.00000  Uiso   1.00
C101   C     0.00028   0.58997   0.06608   0.00000  Uiso   1.00
C102   C     0.17861   0.84604   0.59912   0.00000  Uiso   1.00
C103   C     0.17739   0.84094   0.45394   0.00000  Uiso   1.00
C104   C     0.14461   0.86937   0.38099   0.00000  Uiso   1.00
C105   C     0.09797   0.90714   0.21477   0.00000  Uiso   1.00
C106   C     0.15554   0.87806   0.82795   0.00000  Uiso   1.00
C107   C     0.23181   0.91154   0.85676   0.00000  Uiso   1.00
C108   C     0.26939   0.96789   0.94192   0.00000  Uiso   1.00
C109   C     0.33858   0.99078   0.95476   0.00000  Uiso   1.00
C110   C     0.12508   0.80348   0.86999   0.00000  Uiso   1.00
C111   C     0.07290   0.76896   0.96625   0.00000  Uiso   1.00
C112   C     0.05223   0.70088   0.99021   0.00000  Uiso   1.00
C113   C     0.14815   0.87837   0.66898   0.00000  Uiso   1.00
C114   C     0.11536   0.90681   0.59625   0.00000  Uiso   1.00
C115   C     0.11409   0.90176   0.45098   0.00000  Uiso   1.00
H116   H     0.23532   0.79335   0.64494   0.00000  Uiso   1.00
H117   H     0.35497   0.87698   0.74554   0.00000  Uiso   1.00
H118   H     0.15851   0.67808   0.76985   0.00000  Uiso   1.00
H119   H     0.20096   0.81591   0.39991   0.00000  Uiso   1.00
H120   H     0.47419   0.98394   0.88792   0.00000  Uiso   1.00
H121   H     0.05992   0.56454   0.93915   0.00000  Uiso   1.00
H122   H     0.14944   0.85519   0.15905   0.00000  Uiso   1.00
H123   H     0.13183   0.90324   0.88235   0.00000  Uiso   1.00
H124   H     0.24581   0.99290   0.99598   0.00000  Uiso   1.00
H125   H     0.04934   0.79400   0.02029   0.00000  Uiso   1.00
H126   H     0.09179   0.93183   0.65035   0.00000  Uiso   1.00
H127   H     0.38559   0.07802   0.09119   0.00000  Uiso   1.00
H128   H     0.97131   0.65862   0.14241   0.00000  Uiso   1.00
H129   H     0.06084   0.94927   0.36232   0.00000  Uiso   1.00
O130   O     0.50673   0.08796   0.06006   0.00000  Uiso   1.00
O131   O     0.96322   0.53773   0.12724   0.00000  Uiso   1.00
O132   O     0.08067   0.91905   0.10378   0.00000  Uiso   1.00
N133   N     0.43770   0.99378   0.92015   0.00000  Uiso   1.00
N134   N     0.05039   0.60168   0.96806   0.00000  Uiso   1.00
N135   N     0.13407   0.87339   0.23873   0.00000  Uiso   1.00
N136   N     0.39002   0.04441   0.02952   0.00000  Uiso   1.00
N137   N     0.00271   0.65230   0.07743   0.00000  Uiso   1.00
N138   N     0.08639   0.92402   0.34811   0.00000  Uiso   1.00
C139   C     0.39308   0.18147   0.63401   0.00000  Uiso   1.00
C140   C     0.38306   0.12079   0.54644   0.00000  Uiso   1.00
C141   C     0.42940   0.09798   0.53372   0.00000  Uiso   1.00
C142   C     0.41071   0.04162   0.44856   0.00000  Uiso   1.00
C143   C     0.40472   0.95234   0.32316   0.00000  Uiso   1.00
C144   C     0.38439   0.22886   0.53321   0.00000  Uiso   1.00
C145   C     0.43184   0.29691   0.50939   0.00000  Uiso   1.00
C146   C     0.41426   0.33152   0.41311   0.00000  Uiso   1.00
C147   C     0.41031   0.41003   0.26726   0.00000  Uiso   1.00
C148   C     0.33257   0.15396   0.73421   0.00000  Uiso   1.00
C149   C     0.33645   0.15906   0.87940   0.00000  Uiso   1.00
C150   C     0.27523   0.13063   0.95234   0.00000  Uiso   1.00
C151   C     0.19083   0.09286   0.11857   0.00000  Uiso   1.00
C152   C     0.27748   0.12194   0.50538   0.00000  Uiso   1.00
C153   C     0.32027   0.08846   0.47657   0.00000  Uiso   1.00
C154   C     0.30150   0.03211   0.39141   0.00000  Uiso   1.00
C155   C     0.34780   0.00922   0.37857   0.00000  Uiso   1.00
C156   C     0.32160   0.19652   0.46335   0.00000  Uiso   1.00
C157   C     0.30394   0.23104   0.36708   0.00000  Uiso   1.00
C158   C     0.35135   0.29912   0.34312   0.00000  Uiso   1.00
C159   C     0.26978   0.12163   0.66435   0.00000  Uiso   1.00
C160   C     0.20855   0.09319   0.73708   0.00000  Uiso   1.00
C161   C     0.21233   0.09824   0.88235   0.00000  Uiso   1.00
H162   H     0.44197   0.20665   0.68839   0.00000  Uiso   1.00
H163   H     0.47799   0.12302   0.58779   0.00000  Uiso   1.00
H164   H     0.48043   0.32192   0.56348   0.00000  Uiso   1.00
H165   H     0.38505   0.18409   0.93342   0.00000  Uiso   1.00
H166   H     0.49026   0.01606   0.44541   0.00000  Uiso   1.00
H167   H     0.49538   0.43546   0.39419   0.00000  Uiso   1.00
H168   H     0.29425   0.14481   0.17428   0.00000  Uiso   1.00
H169   H     0.22859   0.09676   0.45099   0.00000  Uiso   1.00
H170   H     0.25291   0.00710   0.33736   0.00000  Uiso   1.00
H171   H     0.25534   0.20600   0.31305   0.00000  Uiso   1.00
H172   H     0.15996   0.06817   0.68298   0.00000  Uiso   1.00
H173   H     0.30757   0.92198   0.24214   0.00000  Uiso   1.00
H174   H     0.31269   0.34138   0.19092   0.00000  Uiso   1.00
H175   H     0.11157   0.05073   0.97101   0.00000  Uiso   1.00
O176   O     0.41877   0.91204   0.27327   0.00000  Uiso   1.00
O177   O     0.42548   0.46227   0.20609   0.00000  Uiso   1.00
O178   O     0.16162   0.08095   0.22955   0.00000  Uiso   1.00
N179   N     0.44392   0.00622   0.41319   0.00000  Uiso   1.00
N180   N     0.44871   0.39832   0.36528   0.00000  Uiso   1.00
N181   N     0.26068   0.12661   0.09460   0.00000  Uiso   1.00
N182   N     0.34561   0.95559   0.30381   0.00000  Uiso   1.00
N183   N     0.35041   0.34770   0.25590   0.00000  Uiso   1.00
N184   N     0.16237   0.07598   0.98522   0.00000  Uiso   1.00
C185   C     0.78839   0.60692   0.96734   0.00000  Uiso   1.00
C186   C     0.73773   0.61694   0.87977   0.00000  Uiso   1.00
C187   C     0.66858   0.57060   0.86705   0.00000  Uiso   1.00
C188   C     0.63091   0.58929   0.78189   0.00000  Uiso   1.00
C189   C     0.54762   0.59528   0.65649   0.00000  Uiso   1.00
C190   C     0.84447   0.61561   0.86654   0.00000  Uiso   1.00
C191   C     0.86507   0.56816   0.84273   0.00000  Uiso   1.00
C192   C     0.91726   0.58574   0.74644   0.00000  Uiso   1.00
C193   C     0.99972   0.58969   0.60059   0.00000  Uiso   1.00
C194   C     0.82139   0.66743   0.06754   0.00000  Uiso   1.00
C195   C     0.82261   0.66355   0.21273   0.00000  Uiso   1.00
C196   C     0.85539   0.72477   0.28567   0.00000  Uiso   1.00
C197   C     0.90203   0.80917   0.45190   0.00000  Uiso   1.00
C198   C     0.84446   0.72252   0.83871   0.00000  Uiso   1.00
C199   C     0.76819   0.67973   0.80990   0.00000  Uiso   1.00
C200   C     0.73061   0.69850   0.72474   0.00000  Uiso   1.00
C201   C     0.66142   0.65220   0.71191   0.00000  Uiso   1.00
C202   C     0.87492   0.67840   0.79668   0.00000  Uiso   1.00
C203   C     0.92710   0.69606   0.70042   0.00000  Uiso   1.00
C204   C     0.94777   0.64865   0.67645   0.00000  Uiso   1.00
C205   C     0.85185   0.73022   0.99768   0.00000  Uiso   1.00
C206   C     0.88464   0.79145   0.07042   0.00000  Uiso   1.00
C207   C     0.88591   0.78767   0.21568   0.00000  Uiso   1.00
H208   H     0.76468   0.55803   0.02173   0.00000  Uiso   1.00
H209   H     0.64503   0.52201   0.92113   0.00000  Uiso   1.00
H210   H     0.84149   0.51957   0.89682   0.00000  Uiso   1.00
H211   H     0.79904   0.61495   0.26676   0.00000  Uiso   1.00
H212   H     0.52581   0.50974   0.77874   0.00000  Uiso   1.00
H213   H     0.94008   0.50462   0.72752   0.00000  Uiso   1.00
H214   H     0.85056   0.70575   0.50761   0.00000  Uiso   1.00
H215   H     0.86817   0.77141   0.78432   0.00000  Uiso   1.00
H216   H     0.75419   0.74709   0.67069   0.00000  Uiso   1.00
H217   H     0.95066   0.74466   0.64638   0.00000  Uiso   1.00
H218   H     0.90821   0.84004   0.01632   0.00000  Uiso   1.00
H219   H     0.61441   0.69243   0.57547   0.00000  Uiso   1.00
H220   H     0.02869   0.68731   0.52425   0.00000  Uiso   1.00
H221   H     0.93916   0.88843   0.30434   0.00000  Uiso   1.00
O222   O     0.49327   0.58123   0.60661   0.00000  Uiso   1.00
O223   O     0.03678   0.57452   0.53943   0.00000  Uiso   1.00
O224   O     0.91933   0.83838   0.56289   0.00000  Uiso   1.00
N225   N     0.56230   0.55608   0.74652   0.00000  Uiso   1.00
N226   N     0.94961   0.55129   0.69861   0.00000  Uiso   1.00
N227   N     0.86593   0.73932   0.42793   0.00000  Uiso   1.00
N228   N     0.60998   0.65439   0.63714   0.00000  Uiso   1.00
N229   N     0.99729   0.64959   0.58924   0.00000  Uiso   1.00
N230   N     0.91361   0.83763   0.31856   0.00000  Uiso   1.00
C231   C     0.81853   0.21161   0.30067   0.00000  Uiso   1.00
C232   C     0.87921   0.26227   0.21310   0.00000  Uiso   1.00
C233   C     0.90202   0.33142   0.20039   0.00000  Uiso   1.00
C234   C     0.95838   0.36909   0.11522   0.00000  Uiso   1.00
C235   C     0.04766   0.45238   0.98982   0.00000  Uiso   1.00
C236   C     0.77114   0.15553   0.19988   0.00000  Uiso   1.00
C237   C     0.70309   0.13493   0.17606   0.00000  Uiso   1.00
C238   C     0.66848   0.08274   0.07978   0.00000  Uiso   1.00
C239   C     0.58997   0.00028   0.93392   0.00000  Uiso   1.00
C240   C     0.84604   0.17861   0.40088   0.00000  Uiso   1.00
C241   C     0.84094   0.17739   0.54606   0.00000  Uiso   1.00
C242   C     0.86937   0.14461   0.61901   0.00000  Uiso   1.00
C243   C     0.90714   0.09797   0.78523   0.00000  Uiso   1.00
C244   C     0.87806   0.15554   0.17205   0.00000  Uiso   1.00
C245   C     0.91154   0.23181   0.14324   0.00000  Uiso   1.00
C246   C     0.96789   0.26939   0.05808   0.00000  Uiso   1.00
C247   C     0.99078   0.33858   0.04524   0.00000  Uiso   1.00
C248   C     0.80348   0.12508   0.13001   0.00000  Uiso   1.00
C249   C     0.76896   0.07290   0.03375   0.00000  Uiso   1.00
C250   C     0.70088   0.05223   0.00979   0.00000  Uiso   1.00
C251   C     0.87837   0.14815   0.33102   0.00000  Uiso   1.00
C252   C     0.90681   0.11536   0.40375   0.00000  Uiso   1.00
C253   C     0.90176   0.11409   0.54902   0.00000  Uiso   1.00
H254   H     0.79335   0.23532   0.35506   0.00000  Uiso   1.00
H255   H     0.87698   0.35497   0.25446   0.00000  Uiso   1.00
H256   H     0.67808   0.15851   0.23015   0.00000  Uiso   1.00
H257   H     0.81591   0.20096   0.60009   0.00000  Uiso   1.00
H258   H     0.98394   0.47419   0.11208   0.00000  Uiso   1.00
H259   H     0.56454   0.05992   0.06085   0.00000  Uiso   1.00
H260   H     0.85519   0.14944   0.84095   0.00000  Uiso   1.00
H261   H     0.90324   0.13183   0.11765   0.00000  Uiso   1.00
H262   H     0.99290   0.24581   0.00402   0.00000  Uiso   1.00
H263   H     0.79400   0.04934   0.97971   0.00000  Uiso   1.00
H264   H     0.93183   0.09179   0.34965   0.00000  Uiso   1.00
H265   H     0.07802   0.38559   0.90881   0.00000  Uiso   1.00
H266   H     0.65862   0.97131   0.85759   0.00000  Uiso   1.00
H267   H     0.94927   0.06084   0.63768   0.00000  Uiso   1.00
O268   O     0.08796   0.50673   0.93994   0.00000  Uiso   1.00
O269   O     0.53773   0.96322   0.87276   0.00000  Uiso   1.00
O270   O     0.91905   0.08067   0.89622   0.00000  Uiso   1.00
N271   N     0.99378   0.43770   0.07985   0.00000  Uiso   1.00
N272   N     0.60168   0.05039   0.03194   0.00000  Uiso   1.00
N273   N     0.87339   0.13407   0.76127   0.00000  Uiso   1.00
N274   N     0.04441   0.39002   0.97048   0.00000  Uiso   1.00
N275   N     0.65230   0.00271   0.92257   0.00000  Uiso   1.00
N276   N     0.92402   0.08639   0.65189   0.00000  Uiso   1.00
