data_job_06048
_audit_creation_date              2018-12-19
_audit_creation_method            'Materials Studio'
_symmetry_space_group_name_H-M    'P1'
_symmetry_Int_Tables_number       1
_symmetry_cell_setting            triclinic
loop_
_symmetry_equiv_pos_as_xyz
  x,y,z
_cell_length_a                    16.4435
_cell_length_b                    16.2095
_cell_length_c                    15.8101
_cell_angle_alpha                 98.0865
_cell_angle_beta                  98.0390
_cell_angle_gamma                 97.5011
loop_
_atom_site_label
_atom_site_type_symbol
_atom_site_fract_x
_atom_site_fract_y
_atom_site_fract_z
_atom_site_U_iso_or_equiv
_atom_site_adp_type
_atom_site_occupancy
C1     C     0.08930   0.23001   0.52145   0.00000  Uiso   1.00
C2     C     0.00778   0.24095   0.55415   0.00000  Uiso   1.00
C3     C     0.98980   0.22836   0.63499   0.00000  Uiso   1.00
C4     C     0.91169   0.24164   0.65251   0.00000  Uiso   1.00
C5     C     0.79392   0.25478   0.71257   0.00000  Uiso   1.00
C6     C     0.06626   0.16662   0.43777   0.00000  Uiso   1.00
C7     C     0.09745   0.09153   0.42076   0.00000  Uiso   1.00
C8     C     0.06858   0.04225   0.34031   0.00000  Uiso   1.00
C9     C     0.04164   0.94002   0.21967   0.00000  Uiso   1.00
C10    C     0.12071   0.31396   0.49525   0.00000  Uiso   1.00
C11    C     0.19769   0.36276   0.52654   0.00000  Uiso   1.00
C12    C     0.21466   0.43752   0.49446   0.00000  Uiso   1.00
C13    C     0.27226   0.56407   0.46305   0.00000  Uiso   1.00
C14    C     0.98257   0.27599   0.40882   0.00000  Uiso   1.00
C15    C     0.94981   0.26592   0.49297   0.00000  Uiso   1.00
C16    C     0.87171   0.27923   0.51037   0.00000  Uiso   1.00
C17    C     0.85361   0.26666   0.59122   0.00000  Uiso   1.00
C18    C     0.00829   0.19159   0.37659   0.00000  Uiso   1.00
C19    C     0.97937   0.14241   0.29615   0.00000  Uiso   1.00
C20    C     0.01050   0.06727   0.27902   0.00000  Uiso   1.00
C21    C     0.06273   0.33894   0.43407   0.00000  Uiso   1.00
C22    C     0.07960   0.41363   0.40193   0.00000  Uiso   1.00
C23    C     0.15658   0.46254   0.43317   0.00000  Uiso   1.00
H24    H     0.13443   0.21056   0.56908   0.00000  Uiso   1.00
H25    H     0.03468   0.20902   0.68231   0.00000  Uiso   1.00
H26    H     0.14232   0.07223   0.46811   0.00000  Uiso   1.00
H27    H     0.24253   0.34341   0.57388   0.00000  Uiso   1.00
H28    H     0.89850   0.21830   0.78086   0.00000  Uiso   1.00
H29    H     0.12550   0.92987   0.32920   0.00000  Uiso   1.00
H30    H     0.33682   0.50172   0.55223   0.00000  Uiso   1.00
H31    H     0.93743   0.29543   0.36118   0.00000  Uiso   1.00
H32    H     0.82686   0.29856   0.46301   0.00000  Uiso   1.00
H33    H     0.93451   0.16176   0.24882   0.00000  Uiso   1.00
H34    H     0.03472   0.43294   0.35458   0.00000  Uiso   1.00
H35    H     0.72983   0.29096   0.60287   0.00000  Uiso   1.00
H36    H     0.95683   0.00254   0.15121   0.00000  Uiso   1.00
H37    H     0.16815   0.57438   0.37424   0.00000  Uiso   1.00
O38    O     0.74497   0.25513   0.76259   0.00000  Uiso   1.00
O39    O     0.04280   0.87673   0.17003   0.00000  Uiso   1.00
O40    O     0.32004   0.62697   0.46264   0.00000  Uiso   1.00
N41    N     0.87398   0.23499   0.72500   0.00000  Uiso   1.00
N42    N     0.08620   0.96532   0.30273   0.00000  Uiso   1.00
N43    N     0.28378   0.49994   0.51123   0.00000  Uiso   1.00
N44    N     0.78322   0.27409   0.62923   0.00000  Uiso   1.00
N45    N     0.99544   0.00442   0.20696   0.00000  Uiso   1.00
N46    N     0.19302   0.53904   0.41545   0.00000  Uiso   1.00
C47    C     0.52150   0.08660   0.22260   0.00000  Uiso   1.00
C48    C     0.55329   0.00382   0.23342   0.00000  Uiso   1.00
C49    C     0.63107   0.98520   0.22041   0.00000  Uiso   1.00
C50    C     0.64826   0.90595   0.23364   0.00000  Uiso   1.00
C51    C     0.70651   0.78631   0.24655   0.00000  Uiso   1.00
C52    C     0.44124   0.06326   0.15746   0.00000  Uiso   1.00
C53    C     0.42480   0.09462   0.08059   0.00000  Uiso   1.00
C54    C     0.34766   0.06541   0.02989   0.00000  Uiso   1.00
C55    C     0.23193   0.03808   0.92489   0.00000  Uiso   1.00
C56    C     0.49611   0.11896   0.30887   0.00000  Uiso   1.00
C57    C     0.52578   0.19715   0.35931   0.00000  Uiso   1.00
C58    C     0.49482   0.21485   0.43609   0.00000  Uiso   1.00
C59    C     0.46428   0.27400   0.56619   0.00000  Uiso   1.00
C60    C     0.41373   0.97898   0.26924   0.00000  Uiso   1.00
C61    C     0.49475   0.94537   0.25875   0.00000  Uiso   1.00
C62    C     0.51183   0.86613   0.27201   0.00000  Uiso   1.00
C63    C     0.58962   0.84740   0.25903   0.00000  Uiso   1.00
C64    C     0.38270   0.00481   0.18279   0.00000  Uiso   1.00
C65    C     0.30556   0.97555   0.13219   0.00000  Uiso   1.00
C66    C     0.28901   0.00685   0.05527   0.00000  Uiso   1.00
C67    C     0.43757   0.06050   0.33421   0.00000  Uiso   1.00
C68    C     0.40655   0.07808   0.41092   0.00000  Uiso   1.00
C69    C     0.43617   0.15629   0.46146   0.00000  Uiso   1.00
H70    H     0.56707   0.13210   0.20287   0.00000  Uiso   1.00
H71    H     0.67635   0.03045   0.20079   0.00000  Uiso   1.00
H72    H     0.47011   0.13986   0.06101   0.00000  Uiso   1.00
H73    H     0.57108   0.24237   0.33968   0.00000  Uiso   1.00
H74    H     0.77168   0.89196   0.20964   0.00000  Uiso   1.00
H75    H     0.33681   0.12267   0.91489   0.00000  Uiso   1.00
H76    H     0.54972   0.33885   0.50255   0.00000  Uiso   1.00
H77    H     0.36815   0.93347   0.28896   0.00000  Uiso   1.00
H78    H     0.46652   0.82091   0.29162   0.00000  Uiso   1.00
H79    H     0.26028   0.93032   0.15182   0.00000  Uiso   1.00
H80    H     0.36125   0.03283   0.43050   0.00000  Uiso   1.00
H81    H     0.60137   0.72189   0.28335   0.00000  Uiso   1.00
H82    H     0.16649   0.95260   0.98860   0.00000  Uiso   1.00
H83    H     0.37941   0.16878   0.57625   0.00000  Uiso   1.00
O84    O     0.75481   0.73645   0.24665   0.00000  Uiso   1.00
O85    O     0.18427   0.03915   0.85997   0.00000  Uiso   1.00
O86    O     0.46361   0.32277   0.63096   0.00000  Uiso   1.00
N87    N     0.71810   0.86739   0.22664   0.00000  Uiso   1.00
N88    N     0.31153   0.08307   0.95106   0.00000  Uiso   1.00
N89    N     0.51057   0.28519   0.50045   0.00000  Uiso   1.00
N90    N     0.62646   0.77587   0.26630   0.00000  Uiso   1.00
N91    N     0.21988   0.99156   0.99073   0.00000  Uiso   1.00
N92    N     0.41893   0.19368   0.54012   0.00000  Uiso   1.00
C93    C     0.23326   0.52237   0.08440   0.00000  Uiso   1.00
C94    C     0.24357   0.55419   0.99964   0.00000  Uiso   1.00
C95    C     0.23072   0.63306   0.98092   0.00000  Uiso   1.00
C96    C     0.24342   0.65007   0.89972   0.00000  Uiso   1.00
C97    C     0.25563   0.70856   0.77727   0.00000  Uiso   1.00
C98    C     0.17105   0.44109   0.06006   0.00000  Uiso   1.00
C99    C     0.09724   0.42487   0.09215   0.00000  Uiso   1.00
C100   C     0.04890   0.34667   0.06180   0.00000  Uiso   1.00
C101   C     0.94856   0.22955   0.03320   0.00000  Uiso   1.00
C102   C     0.31626   0.49642   0.11746   0.00000  Uiso   1.00
C103   C     0.36454   0.52669   0.19783   0.00000  Uiso   1.00
C104   C     0.43844   0.49506   0.21583   0.00000  Uiso   1.00
C105   C     0.56357   0.46385   0.27635   0.00000  Uiso   1.00
C106   C     0.27866   0.41235   0.97347   0.00000  Uiso   1.00
C107   C     0.26823   0.49443   0.93939   0.00000  Uiso   1.00
C108   C     0.28095   0.51133   0.85819   0.00000  Uiso   1.00
C109   C     0.26813   0.59021   0.83936   0.00000  Uiso   1.00
C110   C     0.19571   0.38134   0.99981   0.00000  Uiso   1.00
C111   C     0.14747   0.30314   0.96941   0.00000  Uiso   1.00
C112   C     0.07361   0.28680   0.00144   0.00000  Uiso   1.00
C113   C     0.34093   0.43666   0.05721   0.00000  Uiso   1.00
C114   C     0.41477   0.40497   0.07509   0.00000  Uiso   1.00
C115   C     0.46315   0.43520   0.15546   0.00000  Uiso   1.00
H116   H     0.21406   0.56889   0.13131   0.00000  Uiso   1.00
H117   H     0.21163   0.67928   0.02757   0.00000  Uiso   1.00
H118   H     0.07818   0.47112   0.13878   0.00000  Uiso   1.00
H119   H     0.34543   0.57294   0.24444   0.00000  Uiso   1.00
H120   H     0.21978   0.77531   0.88597   0.00000  Uiso   1.00
H121   H     0.93841   0.33638   0.12049   0.00000  Uiso   1.00
H122   H     0.50196   0.55108   0.34330   0.00000  Uiso   1.00
H123   H     0.29786   0.36582   0.92655   0.00000  Uiso   1.00
H124   H     0.30004   0.46507   0.81158   0.00000  Uiso   1.00
H125   H     0.16658   0.25691   0.92279   0.00000  Uiso   1.00
H126   H     0.43383   0.35873   0.02845   0.00000  Uiso   1.00
H127   H     0.29153   0.60145   0.71067   0.00000  Uiso   1.00
H128   H     0.01016   0.16252   0.94519   0.00000  Uiso   1.00
H129   H     0.57372   0.37722   0.16799   0.00000  Uiso   1.00
O130   O     0.25554   0.75732   0.72637   0.00000  Uiso   1.00
O131   O     0.88640   0.18146   0.03406   0.00000  Uiso   1.00
O132   O     0.62578   0.46314   0.32637   0.00000  Uiso   1.00
N133   N     0.23638   0.72078   0.86050   0.00000  Uiso   1.00
N134   N     0.97331   0.31041   0.07975   0.00000  Uiso   1.00
N135   N     0.50018   0.51111   0.28806   0.00000  Uiso   1.00
N136   N     0.27500   0.62722   0.76617   0.00000  Uiso   1.00
N137   N     0.01192   0.21686   0.98542   0.00000  Uiso   1.00
N138   N     0.53879   0.41756   0.19373   0.00000  Uiso   1.00
C139   C     0.91070   0.76999   0.47855   0.00000  Uiso   1.00
C140   C     0.99222   0.75905   0.44585   0.00000  Uiso   1.00
C141   C     0.01020   0.77164   0.36501   0.00000  Uiso   1.00
C142   C     0.08831   0.75836   0.34749   0.00000  Uiso   1.00
C143   C     0.20608   0.74522   0.28743   0.00000  Uiso   1.00
C144   C     0.93374   0.83338   0.56223   0.00000  Uiso   1.00
C145   C     0.90255   0.90847   0.57924   0.00000  Uiso   1.00
C146   C     0.93142   0.95775   0.65969   0.00000  Uiso   1.00
C147   C     0.95836   0.05998   0.78033   0.00000  Uiso   1.00
C148   C     0.87929   0.68604   0.50475   0.00000  Uiso   1.00
C149   C     0.80231   0.63724   0.47346   0.00000  Uiso   1.00
C150   C     0.78534   0.56248   0.50554   0.00000  Uiso   1.00
C151   C     0.72774   0.43593   0.53695   0.00000  Uiso   1.00
C152   C     0.01743   0.72401   0.59118   0.00000  Uiso   1.00
C153   C     0.05019   0.73408   0.50703   0.00000  Uiso   1.00
C154   C     0.12829   0.72077   0.48963   0.00000  Uiso   1.00
C155   C     0.14639   0.73334   0.40878   0.00000  Uiso   1.00
C156   C     0.99171   0.80841   0.62341   0.00000  Uiso   1.00
C157   C     0.02063   0.85759   0.70385   0.00000  Uiso   1.00
C158   C     0.98950   0.93273   0.72098   0.00000  Uiso   1.00
C159   C     0.93727   0.66106   0.56593   0.00000  Uiso   1.00
C160   C     0.92040   0.58637   0.59807   0.00000  Uiso   1.00
C161   C     0.84342   0.53746   0.56683   0.00000  Uiso   1.00
H162   H     0.86557   0.78944   0.43092   0.00000  Uiso   1.00
H163   H     0.96532   0.79098   0.31769   0.00000  Uiso   1.00
H164   H     0.85768   0.92777   0.53189   0.00000  Uiso   1.00
H165   H     0.75747   0.65659   0.42612   0.00000  Uiso   1.00
H166   H     0.10150   0.78170   0.21914   0.00000  Uiso   1.00
H167   H     0.87450   0.07013   0.67080   0.00000  Uiso   1.00
H168   H     0.66318   0.49828   0.44777   0.00000  Uiso   1.00
H169   H     0.06257   0.70457   0.63882   0.00000  Uiso   1.00
H170   H     0.17314   0.70144   0.53699   0.00000  Uiso   1.00
H171   H     0.06549   0.83824   0.75118   0.00000  Uiso   1.00
H172   H     0.96528   0.56706   0.64542   0.00000  Uiso   1.00
H173   H     0.27017   0.70904   0.39713   0.00000  Uiso   1.00
H174   H     0.04317   0.99746   0.84879   0.00000  Uiso   1.00
H175   H     0.83185   0.42562   0.62576   0.00000  Uiso   1.00
O176   O     0.25503   0.74487   0.23741   0.00000  Uiso   1.00
O177   O     0.95720   0.12327   0.82997   0.00000  Uiso   1.00
O178   O     0.67996   0.37303   0.53736   0.00000  Uiso   1.00
N179   N     0.12602   0.76501   0.27500   0.00000  Uiso   1.00
N180   N     0.91380   0.03468   0.69727   0.00000  Uiso   1.00
N181   N     0.71622   0.50006   0.48877   0.00000  Uiso   1.00
N182   N     0.21678   0.72591   0.37077   0.00000  Uiso   1.00
N183   N     0.00456   0.99558   0.79304   0.00000  Uiso   1.00
N184   N     0.80698   0.46096   0.58455   0.00000  Uiso   1.00
C185   C     0.47850   0.91340   0.77740   0.00000  Uiso   1.00
C186   C     0.44671   0.99618   0.76658   0.00000  Uiso   1.00
C187   C     0.36893   0.01480   0.77959   0.00000  Uiso   1.00
C188   C     0.35174   0.09405   0.76636   0.00000  Uiso   1.00
C189   C     0.29349   0.21369   0.75345   0.00000  Uiso   1.00
C190   C     0.55876   0.93674   0.84254   0.00000  Uiso   1.00
C191   C     0.57520   0.90538   0.91941   0.00000  Uiso   1.00
C192   C     0.65234   0.93459   0.97011   0.00000  Uiso   1.00
C193   C     0.76807   0.96192   0.07511   0.00000  Uiso   1.00
C194   C     0.50389   0.88105   0.69113   0.00000  Uiso   1.00
C195   C     0.47422   0.80285   0.64069   0.00000  Uiso   1.00
C196   C     0.50518   0.78515   0.56391   0.00000  Uiso   1.00
C197   C     0.53572   0.72600   0.43381   0.00000  Uiso   1.00
C198   C     0.58627   0.02102   0.73076   0.00000  Uiso   1.00
C199   C     0.50525   0.05463   0.74125   0.00000  Uiso   1.00
C200   C     0.48817   0.13387   0.72799   0.00000  Uiso   1.00
C201   C     0.41038   0.15260   0.74097   0.00000  Uiso   1.00
C202   C     0.61730   0.99519   0.81721   0.00000  Uiso   1.00
C203   C     0.69444   0.02445   0.86781   0.00000  Uiso   1.00
C204   C     0.71099   0.99315   0.94473   0.00000  Uiso   1.00
C205   C     0.56243   0.93950   0.66579   0.00000  Uiso   1.00
C206   C     0.59345   0.92192   0.58908   0.00000  Uiso   1.00
C207   C     0.56383   0.84371   0.53854   0.00000  Uiso   1.00
H208   H     0.43293   0.86790   0.79713   0.00000  Uiso   1.00
H209   H     0.32365   0.96955   0.79921   0.00000  Uiso   1.00
H210   H     0.52989   0.86014   0.93899   0.00000  Uiso   1.00
H211   H     0.42892   0.75763   0.66032   0.00000  Uiso   1.00
H212   H     0.22832   0.10804   0.79036   0.00000  Uiso   1.00
H213   H     0.66319   0.87733   0.08511   0.00000  Uiso   1.00
H214   H     0.45028   0.66115   0.49745   0.00000  Uiso   1.00
H215   H     0.63185   0.06653   0.71104   0.00000  Uiso   1.00
H216   H     0.53348   0.17909   0.70838   0.00000  Uiso   1.00
H217   H     0.73972   0.06968   0.84818   0.00000  Uiso   1.00
H218   H     0.63875   0.96717   0.56950   0.00000  Uiso   1.00
H219   H     0.39863   0.27811   0.71665   0.00000  Uiso   1.00
H220   H     0.83351   0.04740   0.01140   0.00000  Uiso   1.00
H221   H     0.62059   0.83122   0.42375   0.00000  Uiso   1.00
O222   O     0.24519   0.26355   0.75335   0.00000  Uiso   1.00
O223   O     0.81573   0.96085   0.14003   0.00000  Uiso   1.00
O224   O     0.53639   0.67723   0.36904   0.00000  Uiso   1.00
N225   N     0.28190   0.13261   0.77336   0.00000  Uiso   1.00
N226   N     0.68847   0.91693   0.04894   0.00000  Uiso   1.00
N227   N     0.48943   0.71481   0.49955   0.00000  Uiso   1.00
N228   N     0.37354   0.22413   0.73370   0.00000  Uiso   1.00
N229   N     0.78012   0.00844   0.00927   0.00000  Uiso   1.00
N230   N     0.58107   0.80632   0.45988   0.00000  Uiso   1.00
C231   C     0.76674   0.47763   0.91560   0.00000  Uiso   1.00
C232   C     0.75643   0.44581   0.00036   0.00000  Uiso   1.00
C233   C     0.76928   0.36694   0.01908   0.00000  Uiso   1.00
C234   C     0.75658   0.34993   0.10028   0.00000  Uiso   1.00
C235   C     0.74437   0.29144   0.22273   0.00000  Uiso   1.00
C236   C     0.82895   0.55891   0.93994   0.00000  Uiso   1.00
C237   C     0.90276   0.57513   0.90785   0.00000  Uiso   1.00
C238   C     0.95110   0.65333   0.93820   0.00000  Uiso   1.00
C239   C     0.05144   0.77045   0.96680   0.00000  Uiso   1.00
C240   C     0.68374   0.50358   0.88254   0.00000  Uiso   1.00
C241   C     0.63546   0.47331   0.80217   0.00000  Uiso   1.00
C242   C     0.56156   0.50494   0.78417   0.00000  Uiso   1.00
C243   C     0.43643   0.53615   0.72365   0.00000  Uiso   1.00
C244   C     0.72134   0.58765   0.02653   0.00000  Uiso   1.00
C245   C     0.73177   0.50557   0.06061   0.00000  Uiso   1.00
C246   C     0.71905   0.48867   0.14181   0.00000  Uiso   1.00
C247   C     0.73187   0.40979   0.16064   0.00000  Uiso   1.00
C248   C     0.80429   0.61866   0.00019   0.00000  Uiso   1.00
C249   C     0.85253   0.69686   0.03059   0.00000  Uiso   1.00
C250   C     0.92639   0.71320   0.99856   0.00000  Uiso   1.00
C251   C     0.65907   0.56334   0.94279   0.00000  Uiso   1.00
C252   C     0.58523   0.59503   0.92491   0.00000  Uiso   1.00
C253   C     0.53685   0.56480   0.84454   0.00000  Uiso   1.00
H254   H     0.78594   0.43111   0.86869   0.00000  Uiso   1.00
H255   H     0.78837   0.32072   0.97243   0.00000  Uiso   1.00
H256   H     0.92182   0.52888   0.86122   0.00000  Uiso   1.00
H257   H     0.65457   0.42706   0.75556   0.00000  Uiso   1.00
H258   H     0.78022   0.22469   0.11403   0.00000  Uiso   1.00
H259   H     0.06159   0.66362   0.87951   0.00000  Uiso   1.00
H260   H     0.49804   0.44892   0.65670   0.00000  Uiso   1.00
H261   H     0.70214   0.63418   0.07345   0.00000  Uiso   1.00
H262   H     0.69996   0.53493   0.18842   0.00000  Uiso   1.00
H263   H     0.83342   0.74309   0.07721   0.00000  Uiso   1.00
H264   H     0.56617   0.64127   0.97155   0.00000  Uiso   1.00
H265   H     0.70847   0.39855   0.28933   0.00000  Uiso   1.00
H266   H     0.98984   0.83748   0.05481   0.00000  Uiso   1.00
H267   H     0.42628   0.62278   0.83201   0.00000  Uiso   1.00
O268   O     0.74445   0.24268   0.27363   0.00000  Uiso   1.00
O269   O     0.11360   0.81854   0.96594   0.00000  Uiso   1.00
O270   O     0.37422   0.53686   0.67363   0.00000  Uiso   1.00
N271   N     0.76362   0.27922   0.13950   0.00000  Uiso   1.00
N272   N     0.02669   0.68959   0.92025   0.00000  Uiso   1.00
N273   N     0.49982   0.48889   0.71194   0.00000  Uiso   1.00
N274   N     0.72500   0.37278   0.23383   0.00000  Uiso   1.00
N275   N     0.98808   0.78314   0.01458   0.00000  Uiso   1.00
N276   N     0.46121   0.58244   0.80627   0.00000  Uiso   1.00
