data_job_06840
_audit_creation_date              2018-12-19
_audit_creation_method            'Materials Studio'
_symmetry_space_group_name_H-M    'P1'
_symmetry_Int_Tables_number       1
_symmetry_cell_setting            triclinic
loop_
_symmetry_equiv_pos_as_xyz
  x,y,z
_cell_length_a                    21.8787
_cell_length_b                    22.4535
_cell_length_c                    19.2304
_cell_angle_alpha                 81.7815
_cell_angle_beta                  80.6802
_cell_angle_gamma                 68.0105
loop_
_atom_site_label
_atom_site_type_symbol
_atom_site_fract_x
_atom_site_fract_y
_atom_site_fract_z
_atom_site_U_iso_or_equiv
_atom_site_adp_type
_atom_site_occupancy
C1     C     0.10871   0.25061   0.94792   0.00000  Uiso   1.00
C2     C     0.05383   0.31688   0.94235   0.00000  Uiso   1.00
C3     C     0.03111   0.36021   0.99379   0.00000  Uiso   1.00
C4     C     0.98051   0.41832   0.97858   0.00000  Uiso   1.00
C5     C     0.89936   0.51905   0.97974   0.00000  Uiso   1.00
C6     C     0.07814   0.20253   0.93606   0.00000  Uiso   1.00
C7     C     0.07586   0.14971   0.98221   0.00000  Uiso   1.00
C8     C     0.04573   0.11155   0.96170   0.00000  Uiso   1.00
C9     C     0.00237   0.03472   0.95307   0.00000  Uiso   1.00
C10    C     0.16027   0.25035   0.88415   0.00000  Uiso   1.00
C11    C     0.22705   0.23771   0.88666   0.00000  Uiso   1.00
C12    C     0.26607   0.23979   0.82244   0.00000  Uiso   1.00
C13    C     0.35022   0.23720   0.73322   0.00000  Uiso   1.00
C14    C     0.05926   0.27677   0.82942   0.00000  Uiso   1.00
C15    C     0.02698   0.33109   0.87798   0.00000  Uiso   1.00
C16    C     0.97640   0.38915   0.86269   0.00000  Uiso   1.00
C17    C     0.95360   0.43256   0.91411   0.00000  Uiso   1.00
C18    C     0.05128   0.21674   0.87170   0.00000  Uiso   1.00
C19    C     0.02115   0.17865   0.85111   0.00000  Uiso   1.00
C20    C     0.01883   0.12578   0.89723   0.00000  Uiso   1.00
C21    C     0.13341   0.26456   0.81979   0.00000  Uiso   1.00
C22    C     0.17234   0.26666   0.75556   0.00000  Uiso   1.00
C23    C     0.23917   0.25403   0.75797   0.00000  Uiso   1.00
H24    H     0.12962   0.23955   0.99802   0.00000  Uiso   1.00
H25    H     0.05190   0.34919   0.04360   0.00000  Uiso   1.00
H26    H     0.09666   0.13872   0.03201   0.00000  Uiso   1.00
H27    H     0.24782   0.22671   0.93647   0.00000  Uiso   1.00
H28    H     0.95387   0.47701   0.06575   0.00000  Uiso   1.00
H29    H     0.04826   0.03321   0.04131   0.00000  Uiso   1.00
H30    H     0.36702   0.21875   0.83985   0.00000  Uiso   1.00
H31    H     0.03835   0.28783   0.77931   0.00000  Uiso   1.00
H32    H     0.95562   0.40014   0.81288   0.00000  Uiso   1.00
H33    H     0.00038   0.18966   0.80130   0.00000  Uiso   1.00
H34    H     0.15154   0.27765   0.70576   0.00000  Uiso   1.00
H35    H     0.87573   0.51836   0.87849   0.00000  Uiso   1.00
H36    H     0.97012   0.07455   0.85406   0.00000  Uiso   1.00
H37    H     0.28887   0.26010   0.65259   0.00000  Uiso   1.00
O38    O     0.86201   0.57068   0.99816   0.00000  Uiso   1.00
O39    O     0.98586   0.98842   0.96610   0.00000  Uiso   1.00
O40    O     0.40405   0.23185   0.70178   0.00000  Uiso   1.00
N41    N     0.94685   0.47133   0.01706   0.00000  Uiso   1.00
N42    N     0.03508   0.05641   0.99422   0.00000  Uiso   1.00
N43    N     0.33310   0.22986   0.80587   0.00000  Uiso   1.00
N44    N     0.90480   0.49358   0.91630   0.00000  Uiso   1.00
N45    N     0.99304   0.07866   0.89346   0.00000  Uiso   1.00
N46    N     0.29105   0.25211   0.70511   0.00000  Uiso   1.00
C47    C     0.06614   0.10356   0.26592   0.00000  Uiso   1.00
C48    C     0.04475   0.06840   0.33368   0.00000  Uiso   1.00
C49    C     0.06508   0.06430   0.39948   0.00000  Uiso   1.00
C50    C     0.03989   0.02991   0.45487   0.00000  Uiso   1.00
C51    C     0.01338   0.97974   0.56162   0.00000  Uiso   1.00
C52    C     0.09592   0.05358   0.21199   0.00000  Uiso   1.00
C53    C     0.15927   0.03704   0.17547   0.00000  Uiso   1.00
C54    C     0.17715   0.99019   0.12841   0.00000  Uiso   1.00
C55    C     0.23007   0.91705   0.04620   0.00000  Uiso   1.00
C56    C     0.00233   0.15183   0.23931   0.00000  Uiso   1.00
C57    C     0.98700   0.21789   0.22574   0.00000  Uiso   1.00
C58    C     0.92610   0.25376   0.20166   0.00000  Uiso   1.00
C59    C     0.83372   0.33316   0.16186   0.00000  Uiso   1.00
C60    C     0.98525   0.04978   0.24728   0.00000  Uiso   1.00
C61    C     0.00081   0.03918   0.32355   0.00000  Uiso   1.00
C62    C     0.97559   0.00480   0.37886   0.00000  Uiso   1.00
C63    C     0.99588   0.00065   0.44473   0.00000  Uiso   1.00
C64    C     0.05199   0.02437   0.20186   0.00000  Uiso   1.00
C65    C     0.06978   0.97754   0.15485   0.00000  Uiso   1.00
C66    C     0.13314   0.96093   0.11827   0.00000  Uiso   1.00
C67    C     0.95840   0.12262   0.22918   0.00000  Uiso   1.00
C68    C     0.89751   0.15839   0.20512   0.00000  Uiso   1.00
C69    C     0.88209   0.22450   0.19152   0.00000  Uiso   1.00
H70    H     0.10034   0.12629   0.27380   0.00000  Uiso   1.00
H71    H     0.09908   0.08691   0.40729   0.00000  Uiso   1.00
H72    H     0.19325   0.05965   0.18331   0.00000  Uiso   1.00
H73    H     0.02101   0.24048   0.23358   0.00000  Uiso   1.00
H74    H     0.07833   0.03033   0.55083   0.00000  Uiso   1.00
H75    H     0.27688   0.97289   0.07853   0.00000  Uiso   1.00
H76    H     0.91368   0.35420   0.18452   0.00000  Uiso   1.00
H77    H     0.95105   0.02704   0.23939   0.00000  Uiso   1.00
H78    H     0.94159   0.98220   0.37101   0.00000  Uiso   1.00
H79    H     0.03577   0.95495   0.14702   0.00000  Uiso   1.00
H80    H     0.86353   0.13577   0.19729   0.00000  Uiso   1.00
H81    H     0.95050   0.94535   0.52137   0.00000  Uiso   1.00
H82    H     0.14906   0.88791   0.04907   0.00000  Uiso   1.00
H83    H     0.78586   0.26921   0.15507   0.00000  Uiso   1.00
O84    O     0.01091   0.96012   0.62329   0.00000  Uiso   1.00
O85    O     0.27140   0.88477   0.00365   0.00000  Uiso   1.00
O86    O     0.79489   0.38503   0.14272   0.00000  Uiso   1.00
N87    N     0.04953   0.01650   0.52584   0.00000  Uiso   1.00
N88    N     0.23518   0.96278   0.08428   0.00000  Uiso   1.00
N89    N     0.89562   0.31927   0.18335   0.00000  Uiso   1.00
N90    N     0.98075   0.97077   0.50999   0.00000  Uiso   1.00
N91    N     0.16639   0.91705   0.06843   0.00000  Uiso   1.00
N92    N     0.82684   0.27354   0.16750   0.00000  Uiso   1.00
C93    C     0.45105   0.00414   0.89592   0.00000  Uiso   1.00
C94    C     0.50031   0.01298   0.93751   0.00000  Uiso   1.00
C95    C     0.48464   0.05597   0.98853   0.00000  Uiso   1.00
C96    C     0.53682   0.05675   0.02053   0.00000  Uiso   1.00
C97    C     0.60335   0.07669   0.08790   0.00000  Uiso   1.00
C98    C     0.47547   0.01508   0.81799   0.00000  Uiso   1.00
C99    C     0.43891   0.05983   0.76850   0.00000  Uiso   1.00
C100   C     0.47018   0.06237   0.69989   0.00000  Uiso   1.00
C101   C     0.49813   0.08554   0.58167   0.00000  Uiso   1.00
C102   C     0.45996   0.93293   0.90903   0.00000  Uiso   1.00
C103   C     0.41036   0.90862   0.93607   0.00000  Uiso   1.00
C104   C     0.42856   0.84200   0.94409   0.00000  Uiso   1.00
C105   C     0.43243   0.73763   0.96722   0.00000  Uiso   1.00
C106   C     0.57157   0.92907   0.86203   0.00000  Uiso   1.00
C107   C     0.56577   0.97220   0.91911   0.00000  Uiso   1.00
C108   C     0.61798   0.97291   0.95104   0.00000  Uiso   1.00
C109   C     0.60240   0.01590   0.00210   0.00000  Uiso   1.00
C110   C     0.54093   0.97430   0.79958   0.00000  Uiso   1.00
C111   C     0.57225   0.97677   0.73102   0.00000  Uiso   1.00
C112   C     0.53575   0.02152   0.68145   0.00000  Uiso   1.00
C113   C     0.52542   0.89216   0.89062   0.00000  Uiso   1.00
C114   C     0.54370   0.82556   0.89859   0.00000  Uiso   1.00
C115   C     0.49414   0.80115   0.92565   0.00000  Uiso   1.00
H116   H     0.40009   0.03589   0.91024   0.00000  Uiso   1.00
H117   H     0.43398   0.08752   0.00275   0.00000  Uiso   1.00
H118   H     0.38825   0.09137   0.78276   0.00000  Uiso   1.00
H119   H     0.35971   0.94019   0.95031   0.00000  Uiso   1.00
H120   H     0.50043   0.12680   0.09719   0.00000  Uiso   1.00
H121   H     0.40401   0.13491   0.63332   0.00000  Uiso   1.00
H122   H     0.34381   0.81610   0.98662   0.00000  Uiso   1.00
H123   H     0.62253   0.89732   0.84770   0.00000  Uiso   1.00
H124   H     0.66863   0.94135   0.93679   0.00000  Uiso   1.00
H125   H     0.62291   0.94521   0.71679   0.00000  Uiso   1.00
H126   H     0.59436   0.79402   0.88434   0.00000  Uiso   1.00
H127   H     0.69088   0.00816   0.04364   0.00000  Uiso   1.00
H128   H     0.59446   0.01628   0.57977   0.00000  Uiso   1.00
H129   H     0.53426   0.69747   0.93308   0.00000  Uiso   1.00
O130   O     0.62197   0.09896   0.13013   0.00000  Uiso   1.00
O131   O     0.49546   0.10959   0.52155   0.00000  Uiso   1.00
O132   O     0.41649   0.69132   0.98508   0.00000  Uiso   1.00
N133   N     0.53892   0.09283   0.07237   0.00000  Uiso   1.00
N134   N     0.44878   0.10042   0.63868   0.00000  Uiso   1.00
N135   N     0.39249   0.80236   0.96897   0.00000  Uiso   1.00
N136   N     0.64140   0.02899   0.04356   0.00000  Uiso   1.00
N137   N     0.55126   0.03658   0.60987   0.00000  Uiso   1.00
N138   N     0.49498   0.73852   0.94016   0.00000  Uiso   1.00
C139   C     0.64411   0.41395   0.63692   0.00000  Uiso   1.00
C140   C     0.62943   0.43966   0.70940   0.00000  Uiso   1.00
C141   C     0.62469   0.50061   0.72218   0.00000  Uiso   1.00
C142   C     0.61089   0.51489   0.79223   0.00000  Uiso   1.00
C143   C     0.58939   0.56169   0.89637   0.00000  Uiso   1.00
C144   C     0.58671   0.39302   0.63026   0.00000  Uiso   1.00
C145   C     0.54607   0.41475   0.57650   0.00000  Uiso   1.00
C146   C     0.49632   0.38976   0.57992   0.00000  Uiso   1.00
C147   C     0.40853   0.36411   0.56117   0.00000  Uiso   1.00
C148   C     0.70517   0.35227   0.64076   0.00000  Uiso   1.00
C149   C     0.76411   0.33972   0.59582   0.00000  Uiso   1.00
C150   C     0.81409   0.28041   0.60807   0.00000  Uiso   1.00
C151   C     0.91021   0.19148   0.60562   0.00000  Uiso   1.00
C152   C     0.62803   0.33092   0.73857   0.00000  Uiso   1.00
C153   C     0.62069   0.39456   0.76461   0.00000  Uiso   1.00
C154   C     0.60690   0.40875   0.83466   0.00000  Uiso   1.00
C155   C     0.60215   0.46971   0.84755   0.00000  Uiso   1.00
C156   C     0.57798   0.34793   0.68547   0.00000  Uiso   1.00
C157   C     0.52828   0.32289   0.68897   0.00000  Uiso   1.00
C158   C     0.48757   0.34458   0.63524   0.00000  Uiso   1.00
C159   C     0.69643   0.30717   0.69597   0.00000  Uiso   1.00
C160   C     0.74632   0.24786   0.70829   0.00000  Uiso   1.00
C161   C     0.80533   0.23522   0.66338   0.00000  Uiso   1.00
H162   H     0.65091   0.44906   0.59392   0.00000  Uiso   1.00
H163   H     0.63145   0.53550   0.67944   0.00000  Uiso   1.00
H164   H     0.55284   0.44965   0.53377   0.00000  Uiso   1.00
H165   H     0.77085   0.37463   0.55309   0.00000  Uiso   1.00
H166   H     0.60600   0.61146   0.79859   0.00000  Uiso   1.00
H167   H     0.44027   0.43042   0.49144   0.00000  Uiso   1.00
H168   H     0.89999   0.27222   0.53217   0.00000  Uiso   1.00
H169   H     0.62123   0.29581   0.78156   0.00000  Uiso   1.00
H170   H     0.60015   0.37384   0.87737   0.00000  Uiso   1.00
H171   H     0.52154   0.28799   0.73171   0.00000  Uiso   1.00
H172   H     0.73955   0.21297   0.75103   0.00000  Uiso   1.00
H173   H     0.58059   0.48025   0.95924   0.00000  Uiso   1.00
H174   H     0.41486   0.29921   0.65209   0.00000  Uiso   1.00
H175   H     0.87457   0.14101   0.69283   0.00000  Uiso   1.00
O176   O     0.57994   0.59996   0.93856   0.00000  Uiso   1.00
O177   O     0.36251   0.36243   0.53558   0.00000  Uiso   1.00
O178   O     0.96565   0.15489   0.58902   0.00000  Uiso   1.00
N179   N     0.60293   0.56987   0.82325   0.00000  Uiso   1.00
N180   N     0.44797   0.40061   0.53609   0.00000  Uiso   1.00
N181   N     0.87776   0.25271   0.57416   0.00000  Uiso   1.00
N182   N     0.58925   0.49926   0.90970   0.00000  Uiso   1.00
N183   N     0.43430   0.33001   0.62254   0.00000  Uiso   1.00
N184   N     0.86409   0.18210   0.66061   0.00000  Uiso   1.00
C185   C     0.57341   0.64429   0.54815   0.00000  Uiso   1.00
C186   C     0.58264   0.70914   0.53326   0.00000  Uiso   1.00
C187   C     0.61235   0.73354   0.57493   0.00000  Uiso   1.00
C188   C     0.61601   0.79378   0.55224   0.00000  Uiso   1.00
C189   C     0.63419   0.88922   0.53856   0.00000  Uiso   1.00
C190   C     0.60661   0.60819   0.48265   0.00000  Uiso   1.00
C191   C     0.65648   0.54770   0.48178   0.00000  Uiso   1.00
C192   C     0.68032   0.52296   0.41648   0.00000  Uiso   1.00
C193   C     0.73569   0.46164   0.32424   0.00000  Uiso   1.00
C194   C     0.49924   0.65911   0.55012   0.00000  Uiso   1.00
C195   C     0.45882   0.64143   0.60596   0.00000  Uiso   1.00
C196   C     0.39225   0.65955   0.59745   0.00000  Uiso   1.00
C197   C     0.28090   0.67730   0.60996   0.00000  Uiso   1.00
C198   C     0.52706   0.70789   0.43374   0.00000  Uiso   1.00
C199   C     0.55746   0.74369   0.47112   0.00000  Uiso   1.00
C200   C     0.56107   0.80391   0.44836   0.00000  Uiso   1.00
C201   C     0.59079   0.82840   0.48999   0.00000  Uiso   1.00
C202   C     0.58144   0.64273   0.42052   0.00000  Uiso   1.00
C203   C     0.60521   0.61807   0.35520   0.00000  Uiso   1.00
C204   C     0.65510   0.55757   0.35423   0.00000  Uiso   1.00
C205   C     0.47406   0.69366   0.48798   0.00000  Uiso   1.00
C206   C     0.40754   0.71181   0.47938   0.00000  Uiso   1.00
C207   C     0.36703   0.69416   0.53520   0.00000  Uiso   1.00
H208   H     0.59301   0.61739   0.59652   0.00000  Uiso   1.00
H209   H     0.63183   0.70679   0.62301   0.00000  Uiso   1.00
H210   H     0.67595   0.52098   0.52987   0.00000  Uiso   1.00
H211   H     0.47832   0.61470   0.65403   0.00000  Uiso   1.00
H212   H     0.66379   0.82113   0.62497   0.00000  Uiso   1.00
H213   H     0.75680   0.42933   0.42858   0.00000  Uiso   1.00
H214   H     0.34005   0.62695   0.69040   0.00000  Uiso   1.00
H215   H     0.50747   0.73479   0.38536   0.00000  Uiso   1.00
H216   H     0.54159   0.83064   0.40027   0.00000  Uiso   1.00
H217   H     0.58571   0.64482   0.30713   0.00000  Uiso   1.00
H218   H     0.38808   0.73854   0.43129   0.00000  Uiso   1.00
H219   H     0.59055   0.92165   0.44418   0.00000  Uiso   1.00
H220   H     0.68356   0.52984   0.24779   0.00000  Uiso   1.00
H221   H     0.26681   0.72747   0.50961   0.00000  Uiso   1.00
O222   O     0.65118   0.93231   0.54818   0.00000  Uiso   1.00
O223   O     0.77320   0.41828   0.29053   0.00000  Uiso   1.00
O224   O     0.22643   0.67756   0.63403   0.00000  Uiso   1.00
N225   N     0.64186   0.83164   0.58038   0.00000  Uiso   1.00
N226   N     0.72883   0.46533   0.39677   0.00000  Uiso   1.00
N227   N     0.33920   0.65008   0.64154   0.00000  Uiso   1.00
N228   N     0.60245   0.88573   0.48310   0.00000  Uiso   1.00
N229   N     0.68941   0.51942   0.29949   0.00000  Uiso   1.00
N230   N     0.29979   0.70416   0.54426   0.00000  Uiso   1.00
C231   C     0.97355   0.68358   0.30464   0.00000  Uiso   1.00
C232   C     0.04891   0.66172   0.28891   0.00000  Uiso   1.00
C233   C     0.08935   0.68425   0.31791   0.00000  Uiso   1.00
C234   C     0.15709   0.65816   0.29677   0.00000  Uiso   1.00
C235   C     0.27010   0.63132   0.27973   0.00000  Uiso   1.00
C236   C     0.95818   0.62271   0.33060   0.00000  Uiso   1.00
C237   C     0.92234   0.61245   0.39465   0.00000  Uiso   1.00
C238   C     0.91370   0.55352   0.40859   0.00000  Uiso   1.00
C239   C     0.88583   0.46614   0.45625   0.00000  Uiso   1.00
C240   C     0.94671   0.70711   0.23334   0.00000  Uiso   1.00
C241   C     0.90121   0.76781   0.21561   0.00000  Uiso   1.00
C242   C     0.88290   0.77994   0.14767   0.00000  Uiso   1.00
C243   C     0.83722   0.82360   0.04432   0.00000  Uiso   1.00
C244   C     0.02193   0.59717   0.21552   0.00000  Uiso   1.00
C245   C     0.07518   0.61478   0.24051   0.00000  Uiso   1.00
C246   C     0.14287   0.58865   0.21931   0.00000  Uiso   1.00
C247   C     0.18341   0.61114   0.24827   0.00000  Uiso   1.00
C248   C     0.98446   0.57577   0.28220   0.00000  Uiso   1.00
C249   C     0.97587   0.51685   0.29604   0.00000  Uiso   1.00
C250   C     0.94003   0.50650   0.36009   0.00000  Uiso   1.00
C251   C     0.97299   0.66017   0.18493   0.00000  Uiso   1.00
C252   C     0.95474   0.67221   0.11700   0.00000  Uiso   1.00
C253   C     0.90923   0.73292   0.09917   0.00000  Uiso   1.00
H254   H     0.95309   0.72012   0.34233   0.00000  Uiso   1.00
H255   H     0.06900   0.72057   0.35538   0.00000  Uiso   1.00
H256   H     0.90201   0.64879   0.43209   0.00000  Uiso   1.00
H257   H     0.88089   0.80412   0.25308   0.00000  Uiso   1.00
H258   H     0.20909   0.70035   0.34851   0.00000  Uiso   1.00
H259   H     0.85697   0.54900   0.51026   0.00000  Uiso   1.00
H260   H     0.81243   0.87655   0.13279   0.00000  Uiso   1.00
H261   H     0.04238   0.56063   0.17783   0.00000  Uiso   1.00
H262   H     0.16319   0.55232   0.18184   0.00000  Uiso   1.00
H263   H     0.99620   0.48054   0.25857   0.00000  Uiso   1.00
H264   H     0.97508   0.63587   0.07956   0.00000  Uiso   1.00
H265   H     0.28554   0.56380   0.20767   0.00000  Uiso   1.00
H266   H     0.93342   0.41244   0.36942   0.00000  Uiso   1.00
H267   H     0.88888   0.73999   0.99195   0.00000  Uiso   1.00
O268   O     0.32518   0.62948   0.28372   0.00000  Uiso   1.00
O269   O     0.86320   0.43091   0.49593   0.00000  Uiso   1.00
O270   O     0.80477   0.86065   0.00069   0.00000  Uiso   1.00
N271   N     0.21050   0.66936   0.31480   0.00000  Uiso   1.00
N272   N     0.88130   0.52785   0.46604   0.00000  Uiso   1.00
N273   N     0.83965   0.83408   0.11314   0.00000  Uiso   1.00
N274   N     0.25164   0.59588   0.23902   0.00000  Uiso   1.00
N275   N     0.92244   0.45437   0.39025   0.00000  Uiso   1.00
N276   N     0.88078   0.76060   0.03735   0.00000  Uiso   1.00
C277   C     0.16196   0.66645   0.00128   0.00000  Uiso   1.00
C278   C     0.21655   0.60312   0.02185   0.00000  Uiso   1.00
C279   C     0.21237   0.54236   0.02853   0.00000  Uiso   1.00
C280   C     0.26772   0.49045   0.04782   0.00000  Uiso   1.00
C281   C     0.34376   0.39080   0.07788   0.00000  Uiso   1.00
C282   C     0.19249   0.69782   0.93651   0.00000  Uiso   1.00
C283   C     0.16807   0.71668   0.87144   0.00000  Uiso   1.00
C284   C     0.20316   0.74450   0.81891   0.00000  Uiso   1.00
C285   C     0.24182   0.79192   0.71649   0.00000  Uiso   1.00
C286   C     0.14930   0.70929   0.06081   0.00000  Uiso   1.00
C287   C     0.08856   0.73781   0.10025   0.00000  Uiso   1.00
C288   C     0.08729   0.77530   0.15235   0.00000  Uiso   1.00
C289   C     0.05889   0.84052   0.24294   0.00000  Uiso   1.00
C290   C     0.26769   0.68232   0.02368   0.00000  Uiso   1.00
C291   C     0.27398   0.61174   0.03402   0.00000  Uiso   1.00
C292   C     0.32935   0.55991   0.05331   0.00000  Uiso   1.00
C293   C     0.32525   0.49908   0.06002   0.00000  Uiso   1.00
C294   C     0.24991   0.70644   0.94868   0.00000  Uiso   1.00
C295   C     0.28505   0.73424   0.89623   0.00000  Uiso   1.00
C296   C     0.26069   0.75314   0.83110   0.00000  Uiso   1.00
C297   C     0.20673   0.71791   0.07298   0.00000  Uiso   1.00
C298   C     0.20555   0.75536   0.12503   0.00000  Uiso   1.00
C299   C     0.14482   0.78393   0.16454   0.00000  Uiso   1.00
H300   H     0.11725   0.65974   0.99180   0.00000  Uiso   1.00
H301   H     0.16792   0.53571   0.01910   0.00000  Uiso   1.00
H302   H     0.12362   0.71001   0.86204   0.00000  Uiso   1.00
H303   H     0.04413   0.73113   0.09081   0.00000  Uiso   1.00
H304   H     0.24944   0.40199   0.05470   0.00000  Uiso   1.00
H305   H     0.15602   0.76954   0.72355   0.00000  Uiso   1.00
H306   H     0.98840   0.81407   0.20596   0.00000  Uiso   1.00
H307   H     0.31240   0.68903   0.03315   0.00000  Uiso   1.00
H308   H     0.37378   0.56660   0.06273   0.00000  Uiso   1.00
H309   H     0.32949   0.74091   0.90567   0.00000  Uiso   1.00
H310   H     0.25000   0.76202   0.13444   0.00000  Uiso   1.00
H311   H     0.41652   0.42706   0.09011   0.00000  Uiso   1.00
H312   H     0.32310   0.79462   0.75896   0.00000  Uiso   1.00
H313   H     0.15548   0.83915   0.24137   0.00000  Uiso   1.00
O314   O     0.36985   0.33345   0.09109   0.00000  Uiso   1.00
O315   O     0.24728   0.81568   0.65664   0.00000  Uiso   1.00
O316   O     0.02736   0.87410   0.28954   0.00000  Uiso   1.00
N317   N     0.28033   0.42469   0.05899   0.00000  Uiso   1.00
N318   N     0.19300   0.76832   0.74938   0.00000  Uiso   1.00
N319   N     0.03628   0.80997   0.20038   0.00000  Uiso   1.00
N320   N     0.37024   0.43818   0.07805   0.00000  Uiso   1.00
N321   N     0.28291   0.78182   0.76844   0.00000  Uiso   1.00
N322   N     0.12619   0.82346   0.21943   0.00000  Uiso   1.00
C323   C     0.31547   0.90953   0.56049   0.00000  Uiso   1.00
C324   C     0.34064   0.95030   0.50096   0.00000  Uiso   1.00
C325   C     0.34724   0.94368   0.42919   0.00000  Uiso   1.00
C326   C     0.37115   0.98568   0.38315   0.00000  Uiso   1.00
C327   C     0.40767   0.04187   0.28694   0.00000  Uiso   1.00
C328   C     0.25686   0.95687   0.60281   0.00000  Uiso   1.00
C329   C     0.19301   0.95576   0.61668   0.00000  Uiso   1.00
C330   C     0.14640   0.00329   0.65639   0.00000  Uiso   1.00
C331   C     0.05285   0.06966   0.71834   0.00000  Uiso   1.00
C332   C     0.36996   0.88060   0.60911   0.00000  Uiso   1.00
C333   C     0.40121   0.81537   0.62830   0.00000  Uiso   1.00
C334   C     0.44981   0.79868   0.67332   0.00000  Uiso   1.00
C335   C     0.53187   0.74663   0.74506   0.00000  Uiso   1.00
C336   C     0.34620   0.99589   0.60635   0.00000  Uiso   1.00
C337   C     0.35733   0.99721   0.52588   0.00000  Uiso   1.00
C338   C     0.38124   0.03923   0.47994   0.00000  Uiso   1.00
C339   C     0.38788   0.03267   0.40811   0.00000  Uiso   1.00
C340   C     0.27355   0.00377   0.62773   0.00000  Uiso   1.00
C341   C     0.22702   0.05131   0.66743   0.00000  Uiso   1.00
C342   C     0.16312   0.05028   0.68135   0.00000  Uiso   1.00
C343   C     0.38665   0.92751   0.63402   0.00000  Uiso   1.00
C344   C     0.43521   0.91092   0.67904   0.00000  Uiso   1.00
C345   C     0.46653   0.84568   0.69828   0.00000  Uiso   1.00
H346   H     0.30247   0.87301   0.54109   0.00000  Uiso   1.00
H347   H     0.33431   0.90737   0.40993   0.00000  Uiso   1.00
H348   H     0.18011   0.91945   0.59740   0.00000  Uiso   1.00
H349   H     0.38828   0.77908   0.60901   0.00000  Uiso   1.00
H350   H     0.37695   0.96618   0.27550   0.00000  Uiso   1.00
H351   H     0.05182   0.99164   0.67081   0.00000  Uiso   1.00
H352   H     0.49077   0.69563   0.69529   0.00000  Uiso   1.00
H353   H     0.35919   0.03241   0.62575   0.00000  Uiso   1.00
H354   H     0.39415   0.07552   0.49923   0.00000  Uiso   1.00
H355   H     0.23995   0.08760   0.68670   0.00000  Uiso   1.00
H356   H     0.44812   0.94723   0.69831   0.00000  Uiso   1.00
H357   H     0.42552   0.10265   0.34798   0.00000  Uiso   1.00
H358   H     0.10039   0.12811   0.74329   0.00000  Uiso   1.00
H359   H     0.53934   0.83211   0.76776   0.00000  Uiso   1.00
O360   O     0.42319   0.05992   0.22699   0.00000  Uiso   1.00
O361   O     0.99663   0.09331   0.74563   0.00000  Uiso   1.00
O362   O     0.57253   0.70496   0.77773   0.00000  Uiso   1.00
N363   N     0.38360   0.99237   0.30992   0.00000  Uiso   1.00
N364   N     0.07962   0.01618   0.67950   0.00000  Uiso   1.00
N365   N     0.48999   0.73944   0.70240   0.00000  Uiso   1.00
N366   N     0.40973   0.06581   0.34892   0.00000  Uiso   1.00
N367   N     0.10575   0.08962   0.71850   0.00000  Uiso   1.00
N368   N     0.51612   0.81288   0.74140   0.00000  Uiso   1.00
C369   C     0.73070   0.19361   0.92021   0.00000  Uiso   1.00
C370   C     0.65615   0.20841   0.93594   0.00000  Uiso   1.00
C371   C     0.61739   0.19537   0.89412   0.00000  Uiso   1.00
C372   C     0.55014   0.21260   0.91769   0.00000  Uiso   1.00
C373   C     0.43856   0.23111   0.93253   0.00000  Uiso   1.00
C374   C     0.76111   0.15172   0.98460   0.00000  Uiso   1.00
C375   C     0.81060   0.09102   0.98368   0.00000  Uiso   1.00
C376   C     0.83171   0.06053   0.04821   0.00000  Uiso   1.00
C377   C     0.88312   0.99105   0.13858   0.00000  Uiso   1.00
C378   C     0.74024   0.25755   0.91975   0.00000  Uiso   1.00
C379   C     0.77221   0.28582   0.86431   0.00000  Uiso   1.00
C380   C     0.77577   0.34443   0.87424   0.00000  Uiso   1.00
C381   C     0.79477   0.43927   0.86392   0.00000  Uiso   1.00
C382   C     0.68020   0.24741   0.03643   0.00000  Uiso   1.00
C383   C     0.62872   0.23763   0.99907   0.00000  Uiso   1.00
C384   C     0.56151   0.25489   0.02271   0.00000  Uiso   1.00
C385   C     0.52266   0.24188   0.98093   0.00000  Uiso   1.00
C386   C     0.73368   0.18094   0.04772   0.00000  Uiso   1.00
C387   C     0.75473   0.15054   0.11227   0.00000  Uiso   1.00
C388   C     0.80423   0.08981   0.11145   0.00000  Uiso   1.00
C389   C     0.71281   0.28678   0.98287   0.00000  Uiso   1.00
C390   C     0.71633   0.34535   0.99289   0.00000  Uiso   1.00
C391   C     0.74829   0.37371   0.93748   0.00000  Uiso   1.00
H392   H     0.75206   0.17085   0.87107   0.00000  Uiso   1.00
H393   H     0.63864   0.17275   0.84528   0.00000  Uiso   1.00
H394   H     0.83182   0.06842   0.93483   0.00000  Uiso   1.00
H395   H     0.79343   0.26320   0.81547   0.00000  Uiso   1.00
H396   H     0.50079   0.18771   0.84454   0.00000  Uiso   1.00
H397   H     0.90815   0.96774   0.03335   0.00000  Uiso   1.00
H398   H     0.82720   0.37846   0.78166   0.00000  Uiso   1.00
H399   H     0.65885   0.27016   0.08558   0.00000  Uiso   1.00
H400   H     0.54030   0.27751   0.07156   0.00000  Uiso   1.00
H401   H     0.73349   0.17317   0.16111   0.00000  Uiso   1.00
H402   H     0.69510   0.36795   0.04175   0.00000  Uiso   1.00
H403   H     0.42098   0.27273   0.02820   0.00000  Uiso   1.00
H404   H     0.82835   0.05276   0.21700   0.00000  Uiso   1.00
H405   H     0.74738   0.46349   0.96532   0.00000  Uiso   1.00
O406   O     0.38459   0.23324   0.92329   0.00000  Uiso   1.00
O407   O     0.91904   0.94465   0.17099   0.00000  Uiso   1.00
O408   O     0.81282   0.48351   0.84079   0.00000  Uiso   1.00
N409   N     0.49827   0.20672   0.88968   0.00000  Uiso   1.00
N410   N     0.87912   0.00106   0.06620   0.00000  Uiso   1.00
N411   N     0.80345   0.38504   0.83091   0.00000  Uiso   1.00
N412   N     0.45533   0.25248   0.98850   0.00000  Uiso   1.00
N413   N     0.83618   0.04681   0.16503   0.00000  Uiso   1.00
N414   N     0.76051   0.43079   0.92973   0.00000  Uiso   1.00
C415   C     0.65085   0.67102   0.03071   0.00000  Uiso   1.00
C416   C     0.67969   0.70068   0.96329   0.00000  Uiso   1.00
C417   C     0.67611   0.69069   0.89473   0.00000  Uiso   1.00
C418   C     0.70562   0.72220   0.84019   0.00000  Uiso   1.00
C419   C     0.74557   0.76213   0.73343   0.00000  Uiso   1.00
C420   C     0.70861   0.63546   0.07409   0.00000  Uiso   1.00
C421   C     0.72933   0.57064   0.09869   0.00000  Uiso   1.00
C422   C     0.78317   0.54725   0.13744   0.00000  Uiso   1.00
C423   C     0.86798   0.48593   0.20274   0.00000  Uiso   1.00
C424   C     0.60455   0.72743   0.07193   0.00000  Uiso   1.00
C425   C     0.53777   0.73994   0.09475   0.00000  Uiso   1.00
C426   C     0.50401   0.79398   0.13169   0.00000  Uiso   1.00
C427   C     0.42725   0.87547   0.19365   0.00000  Uiso   1.00
C428   C     0.70963   0.74473   0.05578   0.00000  Uiso   1.00
C429   C     0.71162   0.74071   0.97690   0.00000  Uiso   1.00
C430   C     0.74114   0.77224   0.92246   0.00000  Uiso   1.00
C431   C     0.73760   0.76231   0.85383   0.00000  Uiso   1.00
C432   C     0.74053   0.67549   0.08770   0.00000  Uiso   1.00
C433   C     0.79435   0.65219   0.12642   0.00000  Uiso   1.00
C434   C     0.81515   0.58735   0.15108   0.00000  Uiso   1.00
C435   C     0.63647   0.76747   0.08555   0.00000  Uiso   1.00
C436   C     0.60280   0.82149   0.12247   0.00000  Uiso   1.00
C437   C     0.53599   0.83408   0.14533   0.00000  Uiso   1.00
H438   H     0.62600   0.63985   0.02011   0.00000  Uiso   1.00
H439   H     0.65140   0.65970   0.88421   0.00000  Uiso   1.00
H440   H     0.70461   0.53967   0.08815   0.00000  Uiso   1.00
H441   H     0.51309   0.70895   0.08420   0.00000  Uiso   1.00
H442   H     0.69366   0.69935   0.73954   0.00000  Uiso   1.00
H443   H     0.80583   0.44626   0.16958   0.00000  Uiso   1.00
H444   H     0.40197   0.80322   0.16126   0.00000  Uiso   1.00
H445   H     0.73449   0.77590   0.06638   0.00000  Uiso   1.00
H446   H     0.76584   0.80322   0.93301   0.00000  Uiso   1.00
H447   H     0.81904   0.68319   0.13695   0.00000  Uiso   1.00
H448   H     0.62752   0.85246   0.13300   0.00000  Uiso   1.00
H449   H     0.78655   0.81583   0.77915   0.00000  Uiso   1.00
H450   H     0.89872   0.56274   0.20920   0.00000  Uiso   1.00
H451   H     0.49485   0.91970   0.20086   0.00000  Uiso   1.00
O452   O     0.75879   0.77309   0.67078   0.00000  Uiso   1.00
O453   O     0.90595   0.44105   0.23499   0.00000  Uiso   1.00
O454   O     0.37609   0.90937   0.22406   0.00000  Uiso   1.00
N455   N     0.71121   0.72302   0.76717   0.00000  Uiso   1.00
N456   N     0.81609   0.48640   0.16922   0.00000  Uiso   1.00
N457   N     0.43851   0.82011   0.16145   0.00000  Uiso   1.00
N458   N     0.76119   0.78570   0.78848   0.00000  Uiso   1.00
N459   N     0.86607   0.54908   0.19053   0.00000  Uiso   1.00
N460   N     0.48849   0.88279   0.18276   0.00000  Uiso   1.00
C461   C     0.69315   0.18223   0.41224   0.00000  Uiso   1.00
C462   C     0.71557   0.12092   0.37457   0.00000  Uiso   1.00
C463   C     0.68859   0.11307   0.31753   0.00000  Uiso   1.00
C464   C     0.71605   0.05325   0.29057   0.00000  Uiso   1.00
C465   C     0.74286   0.96565   0.22767   0.00000  Uiso   1.00
C466   C     0.67551   0.16294   0.49000   0.00000  Uiso   1.00
C467   C     0.61485   0.19044   0.53001   0.00000  Uiso   1.00
C468   C     0.60860   0.16600   0.60023   0.00000  Uiso   1.00
C469   C     0.57323   0.14368   0.71655   0.00000  Uiso   1.00
C470   C     0.75466   0.19960   0.40888   0.00000  Uiso   1.00
C471   C     0.76054   0.25793   0.38070   0.00000  Uiso   1.00
C472   C     0.82092   0.26436   0.38263   0.00000  Uiso   1.00
C473   C     0.90844   0.29897   0.37300   0.00000  Uiso   1.00
C474   C     0.78991   0.08995   0.46581   0.00000  Uiso   1.00
C475   C     0.76813   0.07079   0.40367   0.00000  Uiso   1.00
C476   C     0.79565   0.01097   0.37679   0.00000  Uiso   1.00
C477   C     0.76871   0.00303   0.31971   0.00000  Uiso   1.00
C478   C     0.72807   0.11282   0.51909   0.00000  Uiso   1.00
C479   C     0.72191   0.08834   0.58927   0.00000  Uiso   1.00
C480   C     0.66125   0.11578   0.62938   0.00000  Uiso   1.00
C481   C     0.80722   0.14948   0.43797   0.00000  Uiso   1.00
C482   C     0.86760   0.15583   0.43996   0.00000  Uiso   1.00
C483   C     0.87358   0.21415   0.41178   0.00000  Uiso   1.00
H484   H     0.65222   0.22126   0.38960   0.00000  Uiso   1.00
H485   H     0.64791   0.15187   0.29503   0.00000  Uiso   1.00
H486   H     0.57419   0.22923   0.50748   0.00000  Uiso   1.00
H487   H     0.71986   0.29671   0.35819   0.00000  Uiso   1.00
H488   H     0.66629   0.05282   0.20303   0.00000  Uiso   1.00
H489   H     0.51085   0.21596   0.65100   0.00000  Uiso   1.00
H490   H     0.81802   0.35825   0.33619   0.00000  Uiso   1.00
H491   H     0.83084   0.05093   0.48846   0.00000  Uiso   1.00
H492   H     0.83632   0.97219   0.39931   0.00000  Uiso   1.00
H493   H     0.76260   0.04955   0.61177   0.00000  Uiso   1.00
H494   H     0.90827   0.11703   0.46248   0.00000  Uiso   1.00
H495   H     0.81921   0.90699   0.28767   0.00000  Uiso   1.00
H496   H     0.66377   0.07013   0.73565   0.00000  Uiso   1.00
H497   H     0.97094   0.21242   0.42084   0.00000  Uiso   1.00
O498   O     0.74312   0.93118   0.18494   0.00000  Uiso   1.00
O499   O     0.53919   0.14521   0.77267   0.00000  Uiso   1.00
O500   O     0.94219   0.33190   0.35964   0.00000  Uiso   1.00
N501   N     0.70153   0.02931   0.23517   0.00000  Uiso   1.00
N502   N     0.55620   0.18182   0.65400   0.00000  Uiso   1.00
N503   N     0.84337   0.31487   0.35970   0.00000  Uiso   1.00
N504   N     0.78382   0.95084   0.28072   0.00000  Uiso   1.00
N505   N     0.63849   0.10335   0.69955   0.00000  Uiso   1.00
N506   N     0.92566   0.23640   0.40524   0.00000  Uiso   1.00
C507   C     0.18208   0.43095   0.63472   0.00000  Uiso   1.00
C508   C     0.13073   0.40869   0.61272   0.00000  Uiso   1.00
C509   C     0.14452   0.35430   0.57781   0.00000  Uiso   1.00
C510   C     0.09062   0.34225   0.56236   0.00000  Uiso   1.00
C511   C     0.02083   0.30148   0.52531   0.00000  Uiso   1.00
C512   C     0.16770   0.49978   0.60088   0.00000  Uiso   1.00
C513   C     0.21258   0.52198   0.55602   0.00000  Uiso   1.00
C514   C     0.18980   0.58661   0.53061   0.00000  Uiso   1.00
C515   C     0.17742   0.68727   0.47522   0.00000  Uiso   1.00
C516   C     0.16539   0.43599   0.71429   0.00000  Uiso   1.00
C517   C     0.20832   0.40458   0.76478   0.00000  Uiso   1.00
C518   C     0.18360   0.41553   0.83485   0.00000  Uiso   1.00
C519   C     0.16763   0.41716   0.95554   0.00000  Uiso   1.00
C520   C     0.06183   0.50626   0.66938   0.00000  Uiso   1.00
C521   C     0.06542   0.44959   0.63155   0.00000  Uiso   1.00
C522   C     0.01148   0.43762   0.61615   0.00000  Uiso   1.00
C523   C     0.02519   0.38323   0.58122   0.00000  Uiso   1.00
C524   C     0.10239   0.54068   0.61971   0.00000  Uiso   1.00
C525   C     0.07954   0.60530   0.59436   0.00000  Uiso   1.00
C526   C     0.12437   0.62759   0.54947   0.00000  Uiso   1.00
C527   C     0.10008   0.47690   0.73311   0.00000  Uiso   1.00
C528   C     0.07528   0.48790   0.80312   0.00000  Uiso   1.00
C529   C     0.11817   0.45651   0.85371   0.00000  Uiso   1.00
H530   H     0.23292   0.39911   0.62006   0.00000  Uiso   1.00
H531   H     0.19507   0.32266   0.56324   0.00000  Uiso   1.00
H532   H     0.26312   0.49031   0.54147   0.00000  Uiso   1.00
H533   H     0.25886   0.37293   0.75019   0.00000  Uiso   1.00
H534   H     0.12430   0.25596   0.50853   0.00000  Uiso   1.00
H535   H     0.26779   0.60947   0.46263   0.00000  Uiso   1.00
H536   H     0.25882   0.36195   0.90277   0.00000  Uiso   1.00
H537   H     0.01098   0.53810   0.68403   0.00000  Uiso   1.00
H538   H     0.96094   0.46928   0.63073   0.00000  Uiso   1.00
H539   H     0.02900   0.63694   0.60895   0.00000  Uiso   1.00
H540   H     0.02474   0.51956   0.81767   0.00000  Uiso   1.00
H541   H     0.93427   0.37497   0.56330   0.00000  Uiso   1.00
H542   H     0.07777   0.72848   0.51740   0.00000  Uiso   1.00
H543   H     0.06879   0.48096   0.95754   0.00000  Uiso   1.00
O544   O     0.00038   0.26770   0.49967   0.00000  Uiso   1.00
O545   O     0.18864   0.73149   0.43947   0.00000  Uiso   1.00
O546   O     0.17686   0.40675   0.01691   0.00000  Uiso   1.00
N547   N     0.08644   0.29341   0.52875   0.00000  Uiso   1.00
N548   N     0.22060   0.62391   0.48582   0.00000  Uiso   1.00
N549   N     0.21221   0.39252   0.89732   0.00000  Uiso   1.00
N550   N     0.98419   0.35744   0.55822   0.00000  Uiso   1.00
N551   N     0.11835   0.68795   0.51530   0.00000  Uiso   1.00
N552   N     0.10996   0.45656   0.92679   0.00000  Uiso   1.00
