data_job_00026
_audit_creation_date              2018-12-19
_audit_creation_method            'Materials Studio'
_symmetry_space_group_name_H-M    'P1'
_symmetry_Int_Tables_number       1
_symmetry_cell_setting            triclinic
loop_
_symmetry_equiv_pos_as_xyz
  x,y,z
_cell_length_a                    7.2267
_cell_length_b                    26.1039
_cell_length_c                    15.4501
_cell_angle_alpha                 90.0000
_cell_angle_beta                  130.7211
_cell_angle_gamma                 90.0000
loop_
_atom_site_label
_atom_site_type_symbol
_atom_site_fract_x
_atom_site_fract_y
_atom_site_fract_z
_atom_site_U_iso_or_equiv
_atom_site_adp_type
_atom_site_occupancy
C1     C     0.24919   0.62552   0.19426   0.00000  Uiso   1.00
C2     C     0.32425   0.60764   0.30728   0.00000  Uiso   1.00
C3     C     0.54151   0.58324   0.39447   0.00000  Uiso   1.00
C4     C     0.57578   0.56992   0.49108   0.00000  Uiso   1.00
C5     C     0.71916   0.54050   0.66519   0.00000  Uiso   1.00
C6     C     0.00487   0.59982   0.10086   0.00000  Uiso   1.00
C7     C     0.95360   0.56886   0.01449   0.00000  Uiso   1.00
C8     C     0.71900   0.54898   0.93733   0.00000  Uiso   1.00
C9     C     0.36649   0.50746   0.79091   0.00000  Uiso   1.00
C10    C     0.19539   0.68263   0.18596   0.00000  Uiso   1.00
C11    C     0.30427   0.72130   0.17111   0.00000  Uiso   1.00
C12    C     0.23003   0.77114   0.16557   0.00000  Uiso   1.00
C13    C     0.17334   0.85819   0.15128   0.00000  Uiso   1.00
C14    C     0.92370   0.64527   0.21079   0.00000  Uiso   1.00
C15    C     0.14745   0.61836   0.31626   0.00000  Uiso   1.00
C16    C     0.18140   0.60509   0.41276   0.00000  Uiso   1.00
C17    C     0.39868   0.58068   0.50008   0.00000  Uiso   1.00
C18    C     0.82808   0.61055   0.10984   0.00000  Uiso   1.00
C19    C     0.59349   0.59072   0.03278   0.00000  Uiso   1.00
C20    C     0.54188   0.55973   0.94632   0.00000  Uiso   1.00
C21    C     0.01860   0.69336   0.19494   0.00000  Uiso   1.00
C22    C     0.94416   0.74315   0.18941   0.00000  Uiso   1.00
C23    C     0.05291   0.78189   0.17456   0.00000  Uiso   1.00
H24    H     0.38681   0.61717   0.18727   0.00000  Uiso   1.00
H25    H     0.67827   0.57493   0.38749   0.00000  Uiso   1.00
H26    H     0.09044   0.56057   0.00756   0.00000  Uiso   1.00
H27    H     0.44107   0.71298   0.16416   0.00000  Uiso   1.00
H28    H     0.92340   0.53283   0.61341   0.00000  Uiso   1.00
H29    H     0.68391   0.50255   0.81229   0.00000  Uiso   1.00
H30    H     0.42326   0.82395   0.14252   0.00000  Uiso   1.00
H31    H     0.78605   0.65363   0.21778   0.00000  Uiso   1.00
H32    H     0.04455   0.61340   0.41969   0.00000  Uiso   1.00
H33    H     0.45672   0.59903   0.03976   0.00000  Uiso   1.00
H34    H     0.80735   0.75144   0.19636   0.00000  Uiso   1.00
H35    H     0.40905   0.56404   0.63954   0.00000  Uiso   1.00
H36    H     0.16955   0.53377   0.83842   0.00000  Uiso   1.00
H37    H     0.90891   0.85516   0.16865   0.00000  Uiso   1.00
O38    O     0.84708   0.52130   0.75873   0.00000  Uiso   1.00
O39    O     0.22090   0.48159   0.70768   0.00000  Uiso   1.00
O40    O     0.19093   0.90324   0.14093   0.00000  Uiso   1.00
N41    N     0.76689   0.54571   0.59186   0.00000  Uiso   1.00
N42    N     0.60805   0.51739   0.84287   0.00000  Uiso   1.00
N43    N     0.29924   0.81787   0.15158   0.00000  Uiso   1.00
N44    N     0.49013   0.56250   0.60593   0.00000  Uiso   1.00
N45    N     0.33128   0.53419   0.85694   0.00000  Uiso   1.00
N46    N     0.02247   0.83466   0.16564   0.00000  Uiso   1.00
C47    C     0.75081   0.12552   0.30574   0.00000  Uiso   1.00
C48    C     0.67575   0.10764   0.19272   0.00000  Uiso   1.00
C49    C     0.45849   0.08324   0.10553   0.00000  Uiso   1.00
C50    C     0.42422   0.06992   0.00892   0.00000  Uiso   1.00
C51    C     0.28084   0.04050   0.83481   0.00000  Uiso   1.00
C52    C     0.99513   0.09982   0.39914   0.00000  Uiso   1.00
C53    C     0.04640   0.06886   0.48551   0.00000  Uiso   1.00
C54    C     0.28100   0.04898   0.56267   0.00000  Uiso   1.00
C55    C     0.63351   0.00746   0.70909   0.00000  Uiso   1.00
C56    C     0.80461   0.18263   0.31404   0.00000  Uiso   1.00
C57    C     0.69573   0.22130   0.32889   0.00000  Uiso   1.00
C58    C     0.76997   0.27114   0.33443   0.00000  Uiso   1.00
C59    C     0.82666   0.35819   0.34872   0.00000  Uiso   1.00
C60    C     0.07630   0.14527   0.28921   0.00000  Uiso   1.00
C61    C     0.85255   0.11836   0.18374   0.00000  Uiso   1.00
C62    C     0.81860   0.10509   0.08724   0.00000  Uiso   1.00
C63    C     0.60132   0.08068   0.99992   0.00000  Uiso   1.00
C64    C     0.17192   0.11055   0.39016   0.00000  Uiso   1.00
C65    C     0.40651   0.09072   0.46722   0.00000  Uiso   1.00
C66    C     0.45812   0.05973   0.55368   0.00000  Uiso   1.00
C67    C     0.98140   0.19336   0.30506   0.00000  Uiso   1.00
C68    C     0.05584   0.24315   0.31059   0.00000  Uiso   1.00
C69    C     0.94709   0.28189   0.32544   0.00000  Uiso   1.00
H70    H     0.61319   0.11717   0.31273   0.00000  Uiso   1.00
H71    H     0.32173   0.07493   0.11251   0.00000  Uiso   1.00
H72    H     0.90956   0.06057   0.49244   0.00000  Uiso   1.00
H73    H     0.55893   0.21298   0.33584   0.00000  Uiso   1.00
H74    H     0.07660   0.03283   0.88659   0.00000  Uiso   1.00
H75    H     0.31609   0.00255   0.68771   0.00000  Uiso   1.00
H76    H     0.57674   0.32395   0.35748   0.00000  Uiso   1.00
H77    H     0.21395   0.15363   0.28222   0.00000  Uiso   1.00
H78    H     0.95545   0.11340   0.08031   0.00000  Uiso   1.00
H79    H     0.54328   0.09903   0.46024   0.00000  Uiso   1.00
H80    H     0.19265   0.25144   0.30364   0.00000  Uiso   1.00
H81    H     0.59095   0.06404   0.86046   0.00000  Uiso   1.00
H82    H     0.83045   0.03377   0.66158   0.00000  Uiso   1.00
H83    H     0.09109   0.35516   0.33135   0.00000  Uiso   1.00
O84    O     0.15292   0.02130   0.74127   0.00000  Uiso   1.00
O85    O     0.77910   0.98159   0.79232   0.00000  Uiso   1.00
O86    O     0.80907   0.40324   0.35907   0.00000  Uiso   1.00
N87    N     0.23311   0.04571   0.90814   0.00000  Uiso   1.00
N88    N     0.39195   0.01739   0.65713   0.00000  Uiso   1.00
N89    N     0.70076   0.31787   0.34842   0.00000  Uiso   1.00
N90    N     0.50987   0.06250   0.89407   0.00000  Uiso   1.00
N91    N     0.66872   0.03419   0.64306   0.00000  Uiso   1.00
N92    N     0.97753   0.33466   0.33436   0.00000  Uiso   1.00
C93    C     0.75081   0.37448   0.80574   0.00000  Uiso   1.00
C94    C     0.67575   0.39236   0.69272   0.00000  Uiso   1.00
C95    C     0.45849   0.41676   0.60553   0.00000  Uiso   1.00
C96    C     0.42422   0.43008   0.50892   0.00000  Uiso   1.00
C97    C     0.28084   0.45950   0.33481   0.00000  Uiso   1.00
C98    C     0.99513   0.40018   0.89914   0.00000  Uiso   1.00
C99    C     0.04640   0.43114   0.98551   0.00000  Uiso   1.00
C100   C     0.28100   0.45102   0.06267   0.00000  Uiso   1.00
C101   C     0.63351   0.49254   0.20909   0.00000  Uiso   1.00
C102   C     0.80461   0.31737   0.81404   0.00000  Uiso   1.00
C103   C     0.69573   0.27870   0.82889   0.00000  Uiso   1.00
C104   C     0.76997   0.22886   0.83443   0.00000  Uiso   1.00
C105   C     0.82666   0.14181   0.84872   0.00000  Uiso   1.00
C106   C     0.07630   0.35473   0.78921   0.00000  Uiso   1.00
C107   C     0.85255   0.38164   0.68374   0.00000  Uiso   1.00
C108   C     0.81860   0.39491   0.58724   0.00000  Uiso   1.00
C109   C     0.60132   0.41932   0.49992   0.00000  Uiso   1.00
C110   C     0.17192   0.38945   0.89016   0.00000  Uiso   1.00
C111   C     0.40651   0.40928   0.96722   0.00000  Uiso   1.00
C112   C     0.45812   0.44027   0.05368   0.00000  Uiso   1.00
C113   C     0.98140   0.30664   0.80506   0.00000  Uiso   1.00
C114   C     0.05584   0.25685   0.81059   0.00000  Uiso   1.00
C115   C     0.94709   0.21811   0.82544   0.00000  Uiso   1.00
H116   H     0.61319   0.38283   0.81273   0.00000  Uiso   1.00
H117   H     0.32173   0.42507   0.61251   0.00000  Uiso   1.00
H118   H     0.90956   0.43943   0.99244   0.00000  Uiso   1.00
H119   H     0.55893   0.28702   0.83584   0.00000  Uiso   1.00
H120   H     0.07660   0.46717   0.38659   0.00000  Uiso   1.00
H121   H     0.31609   0.49745   0.18771   0.00000  Uiso   1.00
H122   H     0.57674   0.17605   0.85748   0.00000  Uiso   1.00
H123   H     0.21395   0.34637   0.78222   0.00000  Uiso   1.00
H124   H     0.95545   0.38660   0.58031   0.00000  Uiso   1.00
H125   H     0.54328   0.40097   0.96024   0.00000  Uiso   1.00
H126   H     0.19265   0.24856   0.80364   0.00000  Uiso   1.00
H127   H     0.59095   0.43596   0.36046   0.00000  Uiso   1.00
H128   H     0.83045   0.46623   0.16158   0.00000  Uiso   1.00
H129   H     0.09109   0.14484   0.83135   0.00000  Uiso   1.00
O130   O     0.15292   0.47870   0.24127   0.00000  Uiso   1.00
O131   O     0.77910   0.51841   0.29232   0.00000  Uiso   1.00
O132   O     0.80907   0.09676   0.85907   0.00000  Uiso   1.00
N133   N     0.23311   0.45429   0.40814   0.00000  Uiso   1.00
N134   N     0.39195   0.48261   0.15713   0.00000  Uiso   1.00
N135   N     0.70076   0.18213   0.84842   0.00000  Uiso   1.00
N136   N     0.50987   0.43750   0.39407   0.00000  Uiso   1.00
N137   N     0.66872   0.46581   0.14306   0.00000  Uiso   1.00
N138   N     0.97753   0.16534   0.83436   0.00000  Uiso   1.00
C139   C     0.24919   0.87448   0.69426   0.00000  Uiso   1.00
C140   C     0.32425   0.89236   0.80728   0.00000  Uiso   1.00
C141   C     0.54151   0.91676   0.89447   0.00000  Uiso   1.00
C142   C     0.57578   0.93008   0.99108   0.00000  Uiso   1.00
C143   C     0.71916   0.95950   0.16519   0.00000  Uiso   1.00
C144   C     0.00487   0.90018   0.60086   0.00000  Uiso   1.00
C145   C     0.95360   0.93114   0.51449   0.00000  Uiso   1.00
C146   C     0.71900   0.95102   0.43733   0.00000  Uiso   1.00
C147   C     0.36649   0.99254   0.29091   0.00000  Uiso   1.00
C148   C     0.19539   0.81737   0.68596   0.00000  Uiso   1.00
C149   C     0.30427   0.77870   0.67111   0.00000  Uiso   1.00
C150   C     0.23003   0.72886   0.66557   0.00000  Uiso   1.00
C151   C     0.17334   0.64181   0.65128   0.00000  Uiso   1.00
C152   C     0.92370   0.85473   0.71079   0.00000  Uiso   1.00
C153   C     0.14745   0.88164   0.81626   0.00000  Uiso   1.00
C154   C     0.18140   0.89491   0.91276   0.00000  Uiso   1.00
C155   C     0.39868   0.91932   0.00008   0.00000  Uiso   1.00
C156   C     0.82808   0.88945   0.60984   0.00000  Uiso   1.00
C157   C     0.59349   0.90928   0.53278   0.00000  Uiso   1.00
C158   C     0.54188   0.94027   0.44632   0.00000  Uiso   1.00
C159   C     0.01860   0.80664   0.69494   0.00000  Uiso   1.00
C160   C     0.94416   0.75685   0.68941   0.00000  Uiso   1.00
C161   C     0.05291   0.71811   0.67456   0.00000  Uiso   1.00
H162   H     0.38681   0.88283   0.68727   0.00000  Uiso   1.00
H163   H     0.67827   0.92507   0.88749   0.00000  Uiso   1.00
H164   H     0.09044   0.93943   0.50756   0.00000  Uiso   1.00
H165   H     0.44107   0.78702   0.66416   0.00000  Uiso   1.00
H166   H     0.92340   0.96717   0.11341   0.00000  Uiso   1.00
H167   H     0.68391   0.99745   0.31229   0.00000  Uiso   1.00
H168   H     0.42326   0.67605   0.64252   0.00000  Uiso   1.00
H169   H     0.78605   0.84637   0.71778   0.00000  Uiso   1.00
H170   H     0.04455   0.88660   0.91969   0.00000  Uiso   1.00
H171   H     0.45672   0.90097   0.53976   0.00000  Uiso   1.00
H172   H     0.80735   0.74856   0.69636   0.00000  Uiso   1.00
H173   H     0.40905   0.93596   0.13954   0.00000  Uiso   1.00
H174   H     0.16955   0.96623   0.33842   0.00000  Uiso   1.00
H175   H     0.90891   0.64484   0.66865   0.00000  Uiso   1.00
O176   O     0.84708   0.97870   0.25873   0.00000  Uiso   1.00
O177   O     0.22090   0.01841   0.20768   0.00000  Uiso   1.00
O178   O     0.19093   0.59676   0.64093   0.00000  Uiso   1.00
N179   N     0.76689   0.95429   0.09186   0.00000  Uiso   1.00
N180   N     0.60805   0.98261   0.34287   0.00000  Uiso   1.00
N181   N     0.29924   0.68213   0.65158   0.00000  Uiso   1.00
N182   N     0.49013   0.93750   0.10593   0.00000  Uiso   1.00
N183   N     0.33128   0.96581   0.35694   0.00000  Uiso   1.00
N184   N     0.02247   0.66534   0.66564   0.00000  Uiso   1.00
