data_job_05533
_audit_creation_date              2018-12-19
_audit_creation_method            'Materials Studio'
_symmetry_space_group_name_H-M    'P1'
_symmetry_Int_Tables_number       1
_symmetry_cell_setting            triclinic
loop_
_symmetry_equiv_pos_as_xyz
  x,y,z
_cell_length_a                    24.9409
_cell_length_b                    20.6478
_cell_length_c                    19.7408
_cell_angle_alpha                 90.0000
_cell_angle_beta                  150.9234
_cell_angle_gamma                 90.0000
loop_
_atom_site_label
_atom_site_type_symbol
_atom_site_fract_x
_atom_site_fract_y
_atom_site_fract_z
_atom_site_U_iso_or_equiv
_atom_site_adp_type
_atom_site_occupancy
C1     C     0.35454   0.32206   0.70514   0.00000  Uiso   1.00
C2     C     0.46149   0.35257   0.79800   0.00000  Uiso   1.00
C3     C     0.47927   0.37742   0.75324   0.00000  Uiso   1.00
C4     C     0.58283   0.40327   0.85444   0.00000  Uiso   1.00
C5     C     0.73629   0.45054   0.97719   0.00000  Uiso   1.00
C6     C     0.32135   0.36029   0.73136   0.00000  Uiso   1.00
C7     C     0.22130   0.39164   0.63056   0.00000  Uiso   1.00
C8     C     0.20688   0.42399   0.67566   0.00000  Uiso   1.00
C9     C     0.14274   0.48321   0.69494   0.00000  Uiso   1.00
C10    C     0.38515   0.25448   0.76378   0.00000  Uiso   1.00
C11    C     0.33871   0.19685   0.69023   0.00000  Uiso   1.00
C12    C     0.37799   0.14010   0.76263   0.00000  Uiso   1.00
C13    C     0.41290   0.03502   0.83224   0.00000  Uiso   1.00
C14    C     0.50684   0.32375   0.96447   0.00000  Uiso   1.00
C15    C     0.54421   0.35349   0.93886   0.00000  Uiso   1.00
C16    C     0.64777   0.37930   0.04016   0.00000  Uiso   1.00
C17    C     0.66570   0.40419   0.99555   0.00000  Uiso   1.00
C18    C     0.40407   0.36122   0.87221   0.00000  Uiso   1.00
C19    C     0.38979   0.39352   0.91748   0.00000  Uiso   1.00
C20    C     0.28975   0.42491   0.81677   0.00000  Uiso   1.00
C21    C     0.46787   0.25540   0.90464   0.00000  Uiso   1.00
C22    C     0.50721   0.19873   0.97716   0.00000  Uiso   1.00
C23    C     0.46085   0.14102   0.90374   0.00000  Uiso   1.00
H24    H     0.29014   0.32134   0.59548   0.00000  Uiso   1.00
H25    H     0.41523   0.37671   0.64422   0.00000  Uiso   1.00
H26    H     0.15730   0.39091   0.52156   0.00000  Uiso   1.00
H27    H     0.27470   0.19615   0.58123   0.00000  Uiso   1.00
H28    H     0.59039   0.43852   0.76037   0.00000  Uiso   1.00
H29    H     0.04650   0.46846   0.50173   0.00000  Uiso   1.00
H30    H     0.29406   0.05776   0.62755   0.00000  Uiso   1.00
H31    H     0.57124   0.32447   0.07414   0.00000  Uiso   1.00
H32    H     0.71177   0.38001   0.14915   0.00000  Uiso   1.00
H33    H     0.45382   0.39422   0.02649   0.00000  Uiso   1.00
H34    H     0.57123   0.19946   0.08616   0.00000  Uiso   1.00
H35    H     0.83106   0.44121   0.17019   0.00000  Uiso   1.00
H36    H     0.28717   0.47114   0.91155   0.00000  Uiso   1.00
H37    H     0.53474   0.06045   0.03738   0.00000  Uiso   1.00
O38    O     0.79808   0.47636   0.00598   0.00000  Uiso   1.00
O39    O     0.08451   0.51563   0.66665   0.00000  Uiso   1.00
O40    O     0.40932   0.97681   0.83173   0.00000  Uiso   1.00
N41    N     0.62775   0.43152   0.84653   0.00000  Uiso   1.00
N42    N     0.11926   0.45952   0.60472   0.00000  Uiso   1.00
N43    N     0.35069   0.07555   0.72234   0.00000  Uiso   1.00
N44    N     0.75726   0.43296   0.06705   0.00000  Uiso   1.00
N45    N     0.24876   0.46096   0.82524   0.00000  Uiso   1.00
N46    N     0.48019   0.07700   0.94287   0.00000  Uiso   1.00
C47    C     0.64546   0.82206   0.79486   0.00000  Uiso   1.00
C48    C     0.53851   0.85257   0.70200   0.00000  Uiso   1.00
C49    C     0.52073   0.87742   0.74676   0.00000  Uiso   1.00
C50    C     0.41717   0.90327   0.64556   0.00000  Uiso   1.00
C51    C     0.26371   0.95054   0.52281   0.00000  Uiso   1.00
C52    C     0.67865   0.86029   0.76864   0.00000  Uiso   1.00
C53    C     0.77870   0.89164   0.86944   0.00000  Uiso   1.00
C54    C     0.79312   0.92399   0.82434   0.00000  Uiso   1.00
C55    C     0.85726   0.98321   0.80506   0.00000  Uiso   1.00
C56    C     0.61485   0.75448   0.73622   0.00000  Uiso   1.00
C57    C     0.66129   0.69685   0.80977   0.00000  Uiso   1.00
C58    C     0.62201   0.64010   0.73737   0.00000  Uiso   1.00
C59    C     0.58710   0.53502   0.66776   0.00000  Uiso   1.00
C60    C     0.49316   0.82375   0.53553   0.00000  Uiso   1.00
C61    C     0.45579   0.85349   0.56114   0.00000  Uiso   1.00
C62    C     0.35223   0.87930   0.45984   0.00000  Uiso   1.00
C63    C     0.33430   0.90419   0.50445   0.00000  Uiso   1.00
C64    C     0.59593   0.86122   0.62779   0.00000  Uiso   1.00
C65    C     0.61021   0.89352   0.58252   0.00000  Uiso   1.00
C66    C     0.71025   0.92491   0.68323   0.00000  Uiso   1.00
C67    C     0.53213   0.75540   0.59536   0.00000  Uiso   1.00
C68    C     0.49279   0.69873   0.52284   0.00000  Uiso   1.00
C69    C     0.53915   0.64102   0.59626   0.00000  Uiso   1.00
H70    H     0.70986   0.82134   0.90452   0.00000  Uiso   1.00
H71    H     0.58477   0.87671   0.85578   0.00000  Uiso   1.00
H72    H     0.84270   0.89091   0.97844   0.00000  Uiso   1.00
H73    H     0.72530   0.69615   0.91877   0.00000  Uiso   1.00
H74    H     0.40961   0.93852   0.73963   0.00000  Uiso   1.00
H75    H     0.95350   0.96846   0.99827   0.00000  Uiso   1.00
H76    H     0.70594   0.55776   0.87245   0.00000  Uiso   1.00
H77    H     0.42876   0.82447   0.42586   0.00000  Uiso   1.00
H78    H     0.28823   0.88001   0.35085   0.00000  Uiso   1.00
H79    H     0.54618   0.89422   0.47351   0.00000  Uiso   1.00
H80    H     0.42877   0.69946   0.41384   0.00000  Uiso   1.00
H81    H     0.16894   0.94121   0.32981   0.00000  Uiso   1.00
H82    H     0.71283   0.97114   0.58845   0.00000  Uiso   1.00
H83    H     0.46526   0.56045   0.46262   0.00000  Uiso   1.00
O84    O     0.20192   0.97636   0.49402   0.00000  Uiso   1.00
O85    O     0.91549   0.01563   0.83335   0.00000  Uiso   1.00
O86    O     0.59068   0.47681   0.66827   0.00000  Uiso   1.00
N87    N     0.37225   0.93152   0.65347   0.00000  Uiso   1.00
N88    N     0.88074   0.95952   0.89528   0.00000  Uiso   1.00
N89    N     0.64931   0.57555   0.77766   0.00000  Uiso   1.00
N90    N     0.24274   0.93296   0.43295   0.00000  Uiso   1.00
N91    N     0.75124   0.96096   0.67476   0.00000  Uiso   1.00
N92    N     0.51981   0.57700   0.55713   0.00000  Uiso   1.00
C93    C     0.64546   0.67794   0.29486   0.00000  Uiso   1.00
C94    C     0.53851   0.64743   0.20200   0.00000  Uiso   1.00
C95    C     0.52073   0.62258   0.24676   0.00000  Uiso   1.00
C96    C     0.41717   0.59673   0.14556   0.00000  Uiso   1.00
C97    C     0.26371   0.54946   0.02281   0.00000  Uiso   1.00
C98    C     0.67865   0.63971   0.26864   0.00000  Uiso   1.00
C99    C     0.77870   0.60836   0.36944   0.00000  Uiso   1.00
C100   C     0.79312   0.57601   0.32434   0.00000  Uiso   1.00
C101   C     0.85726   0.51679   0.30506   0.00000  Uiso   1.00
C102   C     0.61485   0.74552   0.23622   0.00000  Uiso   1.00
C103   C     0.66129   0.80315   0.30977   0.00000  Uiso   1.00
C104   C     0.62201   0.85990   0.23737   0.00000  Uiso   1.00
C105   C     0.58710   0.96498   0.16776   0.00000  Uiso   1.00
C106   C     0.49316   0.67625   0.03553   0.00000  Uiso   1.00
C107   C     0.45579   0.64651   0.06114   0.00000  Uiso   1.00
C108   C     0.35223   0.62070   0.95984   0.00000  Uiso   1.00
C109   C     0.33430   0.59581   0.00445   0.00000  Uiso   1.00
C110   C     0.59593   0.63878   0.12779   0.00000  Uiso   1.00
C111   C     0.61021   0.60648   0.08252   0.00000  Uiso   1.00
C112   C     0.71025   0.57509   0.18323   0.00000  Uiso   1.00
C113   C     0.53213   0.74460   0.09536   0.00000  Uiso   1.00
C114   C     0.49279   0.80127   0.02284   0.00000  Uiso   1.00
C115   C     0.53915   0.85898   0.09626   0.00000  Uiso   1.00
H116   H     0.70986   0.67866   0.40452   0.00000  Uiso   1.00
H117   H     0.58477   0.62329   0.35578   0.00000  Uiso   1.00
H118   H     0.84270   0.60909   0.47844   0.00000  Uiso   1.00
H119   H     0.72530   0.80385   0.41877   0.00000  Uiso   1.00
H120   H     0.40961   0.56148   0.23963   0.00000  Uiso   1.00
H121   H     0.95350   0.53154   0.49827   0.00000  Uiso   1.00
H122   H     0.70594   0.94224   0.37245   0.00000  Uiso   1.00
H123   H     0.42876   0.67553   0.92586   0.00000  Uiso   1.00
H124   H     0.28823   0.61999   0.85085   0.00000  Uiso   1.00
H125   H     0.54618   0.60578   0.97351   0.00000  Uiso   1.00
H126   H     0.42877   0.80054   0.91384   0.00000  Uiso   1.00
H127   H     0.16894   0.55879   0.82981   0.00000  Uiso   1.00
H128   H     0.71283   0.52886   0.08845   0.00000  Uiso   1.00
H129   H     0.46526   0.93955   0.96262   0.00000  Uiso   1.00
O130   O     0.20192   0.52364   0.99402   0.00000  Uiso   1.00
O131   O     0.91549   0.48437   0.33335   0.00000  Uiso   1.00
O132   O     0.59068   0.02319   0.16827   0.00000  Uiso   1.00
N133   N     0.37225   0.56848   0.15347   0.00000  Uiso   1.00
N134   N     0.88074   0.54048   0.39528   0.00000  Uiso   1.00
N135   N     0.64931   0.92445   0.27766   0.00000  Uiso   1.00
N136   N     0.24274   0.56704   0.93295   0.00000  Uiso   1.00
N137   N     0.75124   0.53904   0.17476   0.00000  Uiso   1.00
N138   N     0.51981   0.92300   0.05713   0.00000  Uiso   1.00
C139   C     0.35454   0.17794   0.20514   0.00000  Uiso   1.00
C140   C     0.46149   0.14743   0.29800   0.00000  Uiso   1.00
C141   C     0.47927   0.12258   0.25324   0.00000  Uiso   1.00
C142   C     0.58283   0.09673   0.35444   0.00000  Uiso   1.00
C143   C     0.73629   0.04946   0.47719   0.00000  Uiso   1.00
C144   C     0.32135   0.13971   0.23136   0.00000  Uiso   1.00
C145   C     0.22130   0.10836   0.13056   0.00000  Uiso   1.00
C146   C     0.20688   0.07601   0.17566   0.00000  Uiso   1.00
C147   C     0.14274   0.01679   0.19494   0.00000  Uiso   1.00
C148   C     0.38515   0.24552   0.26378   0.00000  Uiso   1.00
C149   C     0.33871   0.30315   0.19023   0.00000  Uiso   1.00
C150   C     0.37799   0.35990   0.26263   0.00000  Uiso   1.00
C151   C     0.41290   0.46498   0.33224   0.00000  Uiso   1.00
C152   C     0.50684   0.17625   0.46447   0.00000  Uiso   1.00
C153   C     0.54421   0.14651   0.43886   0.00000  Uiso   1.00
C154   C     0.64777   0.12070   0.54016   0.00000  Uiso   1.00
C155   C     0.66570   0.09581   0.49555   0.00000  Uiso   1.00
C156   C     0.40407   0.13878   0.37221   0.00000  Uiso   1.00
C157   C     0.38979   0.10648   0.41748   0.00000  Uiso   1.00
C158   C     0.28975   0.07509   0.31677   0.00000  Uiso   1.00
C159   C     0.46787   0.24460   0.40464   0.00000  Uiso   1.00
C160   C     0.50721   0.30127   0.47716   0.00000  Uiso   1.00
C161   C     0.46085   0.35898   0.40374   0.00000  Uiso   1.00
H162   H     0.29014   0.17866   0.09548   0.00000  Uiso   1.00
H163   H     0.41523   0.12329   0.14422   0.00000  Uiso   1.00
H164   H     0.15730   0.10909   0.02156   0.00000  Uiso   1.00
H165   H     0.27470   0.30385   0.08123   0.00000  Uiso   1.00
H166   H     0.59039   0.06148   0.26037   0.00000  Uiso   1.00
H167   H     0.04650   0.03154   0.00173   0.00000  Uiso   1.00
H168   H     0.29406   0.44224   0.12755   0.00000  Uiso   1.00
H169   H     0.57124   0.17553   0.57414   0.00000  Uiso   1.00
H170   H     0.71177   0.11999   0.64915   0.00000  Uiso   1.00
H171   H     0.45382   0.10578   0.52649   0.00000  Uiso   1.00
H172   H     0.57123   0.30054   0.58616   0.00000  Uiso   1.00
H173   H     0.83106   0.05879   0.67019   0.00000  Uiso   1.00
H174   H     0.28717   0.02886   0.41155   0.00000  Uiso   1.00
H175   H     0.53474   0.43955   0.53738   0.00000  Uiso   1.00
O176   O     0.79808   0.02364   0.50598   0.00000  Uiso   1.00
O177   O     0.08451   0.98437   0.16665   0.00000  Uiso   1.00
O178   O     0.40932   0.52319   0.33173   0.00000  Uiso   1.00
N179   N     0.62775   0.06848   0.34653   0.00000  Uiso   1.00
N180   N     0.11926   0.04048   0.10472   0.00000  Uiso   1.00
N181   N     0.35069   0.42445   0.22234   0.00000  Uiso   1.00
N182   N     0.75726   0.06704   0.56705   0.00000  Uiso   1.00
N183   N     0.24876   0.03904   0.32524   0.00000  Uiso   1.00
N184   N     0.48019   0.42300   0.44287   0.00000  Uiso   1.00
