data_job_05085
_audit_creation_date              2018-12-19
_audit_creation_method            'Materials Studio'
_symmetry_space_group_name_H-M    'P1'
_symmetry_Int_Tables_number       1
_symmetry_cell_setting            triclinic
loop_
_symmetry_equiv_pos_as_xyz
  x,y,z
_cell_length_a                    19.9055
_cell_length_b                    12.9747
_cell_length_c                    27.1006
_cell_angle_alpha                 90.0000
_cell_angle_beta                  54.2821
_cell_angle_gamma                 90.0000
loop_
_atom_site_label
_atom_site_type_symbol
_atom_site_fract_x
_atom_site_fract_y
_atom_site_fract_z
_atom_site_U_iso_or_equiv
_atom_site_adp_type
_atom_site_occupancy
C1     C     0.64837   0.49858   0.66316   0.00000  Uiso   1.00
C2     C     0.63359   0.47082   0.61554   0.00000  Uiso   1.00
C3     C     0.55756   0.44757   0.62710   0.00000  Uiso   1.00
C4     C     0.55705   0.42416   0.57733   0.00000  Uiso   1.00
C5     C     0.52301   0.38103   0.51239   0.00000  Uiso   1.00
C6     C     0.71210   0.42161   0.65491   0.00000  Uiso   1.00
C7     C     0.70208   0.35700   0.69958   0.00000  Uiso   1.00
C8     C     0.76766   0.29218   0.68296   0.00000  Uiso   1.00
C9     C     0.85553   0.17269   0.67916   0.00000  Uiso   1.00
C10    C     0.69145   0.60314   0.64438   0.00000  Uiso   1.00
C11    C     0.66408   0.69117   0.68020   0.00000  Uiso   1.00
C12    C     0.71228   0.77918   0.65472   0.00000  Uiso   1.00
C13    C     0.76808   0.94156   0.63456   0.00000  Uiso   1.00
C14    C     0.78266   0.49835   0.55422   0.00000  Uiso   1.00
C15    C     0.70653   0.47069   0.55636   0.00000  Uiso   1.00
C16    C     0.70613   0.44732   0.50656   0.00000  Uiso   1.00
C17    C     0.63011   0.42404   0.51805   0.00000  Uiso   1.00
C18    C     0.78504   0.42148   0.59574   0.00000  Uiso   1.00
C19    C     0.85065   0.35674   0.57905   0.00000  Uiso   1.00
C20    C     0.84073   0.29205   0.62368   0.00000  Uiso   1.00
C21    C     0.76439   0.60302   0.58520   0.00000  Uiso   1.00
C22    C     0.81264   0.69091   0.55966   0.00000  Uiso   1.00
C23    C     0.78535   0.77905   0.59544   0.00000  Uiso   1.00
H24    H     0.59159   0.49868   0.70923   0.00000  Uiso   1.00
H25    H     0.50113   0.44767   0.67290   0.00000  Uiso   1.00
H26    H     0.64563   0.35712   0.74537   0.00000  Uiso   1.00
H27    H     0.60763   0.69124   0.72599   0.00000  Uiso   1.00
H28    H     0.43301   0.39103   0.60653   0.00000  Uiso   1.00
H29    H     0.73771   0.20013   0.75934   0.00000  Uiso   1.00
H30    H     0.65758   0.90467   0.71848   0.00000  Uiso   1.00
H31    H     0.83945   0.49825   0.50814   0.00000  Uiso   1.00
H32    H     0.76259   0.44722   0.46078   0.00000  Uiso   1.00
H33    H     0.90709   0.35667   0.53325   0.00000  Uiso   1.00
H34    H     0.86908   0.69079   0.51387   0.00000  Uiso   1.00
H35    H     0.64522   0.39066   0.43436   0.00000  Uiso   1.00
H36    H     0.94992   0.19976   0.58718   0.00000  Uiso   1.00
H37    H     0.86978   0.90431   0.54631   0.00000  Uiso   1.00
O38    O     0.48409   0.35725   0.49291   0.00000  Uiso   1.00
O39    O     0.88384   0.10681   0.69340   0.00000  Uiso   1.00
O40    O     0.77870   0.03116   0.63979   0.00000  Uiso   1.00
N41    N     0.49350   0.39797   0.57251   0.00000  Uiso   1.00
N42    N     0.77837   0.21947   0.71538   0.00000  Uiso   1.00
N43    N     0.70346   0.87816   0.67718   0.00000  Uiso   1.00
N44    N     0.60769   0.39777   0.47987   0.00000  Uiso   1.00
N45    N     0.89256   0.21928   0.62273   0.00000  Uiso   1.00
N46    N     0.81765   0.87796   0.58453   0.00000  Uiso   1.00
C47    C     0.14837   0.99858   0.66316   0.00000  Uiso   1.00
C48    C     0.13359   0.97082   0.61554   0.00000  Uiso   1.00
C49    C     0.05756   0.94757   0.62710   0.00000  Uiso   1.00
C50    C     0.05705   0.92416   0.57733   0.00000  Uiso   1.00
C51    C     0.02301   0.88103   0.51239   0.00000  Uiso   1.00
C52    C     0.21210   0.92161   0.65491   0.00000  Uiso   1.00
C53    C     0.20208   0.85700   0.69958   0.00000  Uiso   1.00
C54    C     0.26766   0.79218   0.68296   0.00000  Uiso   1.00
C55    C     0.35553   0.67269   0.67916   0.00000  Uiso   1.00
C56    C     0.19145   0.10314   0.64438   0.00000  Uiso   1.00
C57    C     0.16408   0.19117   0.68020   0.00000  Uiso   1.00
C58    C     0.21228   0.27918   0.65472   0.00000  Uiso   1.00
C59    C     0.26808   0.44156   0.63456   0.00000  Uiso   1.00
C60    C     0.28266   0.99835   0.55422   0.00000  Uiso   1.00
C61    C     0.20653   0.97069   0.55636   0.00000  Uiso   1.00
C62    C     0.20613   0.94732   0.50656   0.00000  Uiso   1.00
C63    C     0.13011   0.92404   0.51805   0.00000  Uiso   1.00
C64    C     0.28504   0.92148   0.59574   0.00000  Uiso   1.00
C65    C     0.35065   0.85674   0.57905   0.00000  Uiso   1.00
C66    C     0.34073   0.79205   0.62368   0.00000  Uiso   1.00
C67    C     0.26439   0.10302   0.58520   0.00000  Uiso   1.00
C68    C     0.31264   0.19091   0.55966   0.00000  Uiso   1.00
C69    C     0.28535   0.27905   0.59544   0.00000  Uiso   1.00
H70    H     0.09159   0.99868   0.70923   0.00000  Uiso   1.00
H71    H     0.00113   0.94767   0.67290   0.00000  Uiso   1.00
H72    H     0.14563   0.85712   0.74537   0.00000  Uiso   1.00
H73    H     0.10763   0.19124   0.72599   0.00000  Uiso   1.00
H74    H     0.93301   0.89103   0.60653   0.00000  Uiso   1.00
H75    H     0.23771   0.70013   0.75934   0.00000  Uiso   1.00
H76    H     0.15758   0.40467   0.71848   0.00000  Uiso   1.00
H77    H     0.33945   0.99825   0.50814   0.00000  Uiso   1.00
H78    H     0.26259   0.94722   0.46078   0.00000  Uiso   1.00
H79    H     0.40709   0.85667   0.53325   0.00000  Uiso   1.00
H80    H     0.36908   0.19079   0.51387   0.00000  Uiso   1.00
H81    H     0.14522   0.89066   0.43436   0.00000  Uiso   1.00
H82    H     0.44992   0.69976   0.58718   0.00000  Uiso   1.00
H83    H     0.36978   0.40431   0.54631   0.00000  Uiso   1.00
O84    O     0.98409   0.85725   0.49291   0.00000  Uiso   1.00
O85    O     0.38384   0.60681   0.69340   0.00000  Uiso   1.00
O86    O     0.27870   0.53116   0.63979   0.00000  Uiso   1.00
N87    N     0.99350   0.89797   0.57251   0.00000  Uiso   1.00
N88    N     0.27837   0.71947   0.71538   0.00000  Uiso   1.00
N89    N     0.20346   0.37816   0.67718   0.00000  Uiso   1.00
N90    N     0.10769   0.89777   0.47987   0.00000  Uiso   1.00
N91    N     0.39256   0.71928   0.62273   0.00000  Uiso   1.00
N92    N     0.31765   0.37796   0.58453   0.00000  Uiso   1.00
C93    C     0.35163   0.49858   0.83684   0.00000  Uiso   1.00
C94    C     0.36641   0.47082   0.88446   0.00000  Uiso   1.00
C95    C     0.44244   0.44757   0.87290   0.00000  Uiso   1.00
C96    C     0.44295   0.42416   0.92267   0.00000  Uiso   1.00
C97    C     0.47699   0.38103   0.98761   0.00000  Uiso   1.00
C98    C     0.28790   0.42161   0.84509   0.00000  Uiso   1.00
C99    C     0.29792   0.35700   0.80042   0.00000  Uiso   1.00
C100   C     0.23234   0.29218   0.81704   0.00000  Uiso   1.00
C101   C     0.14447   0.17269   0.82084   0.00000  Uiso   1.00
C102   C     0.30855   0.60314   0.85562   0.00000  Uiso   1.00
C103   C     0.33592   0.69117   0.81980   0.00000  Uiso   1.00
C104   C     0.28772   0.77918   0.84528   0.00000  Uiso   1.00
C105   C     0.23192   0.94156   0.86544   0.00000  Uiso   1.00
C106   C     0.21734   0.49835   0.94578   0.00000  Uiso   1.00
C107   C     0.29347   0.47069   0.94364   0.00000  Uiso   1.00
C108   C     0.29387   0.44732   0.99344   0.00000  Uiso   1.00
C109   C     0.36989   0.42404   0.98195   0.00000  Uiso   1.00
C110   C     0.21496   0.42148   0.90426   0.00000  Uiso   1.00
C111   C     0.14935   0.35674   0.92095   0.00000  Uiso   1.00
C112   C     0.15927   0.29205   0.87632   0.00000  Uiso   1.00
C113   C     0.23561   0.60302   0.91480   0.00000  Uiso   1.00
C114   C     0.18736   0.69091   0.94034   0.00000  Uiso   1.00
C115   C     0.21465   0.77905   0.90456   0.00000  Uiso   1.00
H116   H     0.40841   0.49868   0.79077   0.00000  Uiso   1.00
H117   H     0.49887   0.44767   0.82710   0.00000  Uiso   1.00
H118   H     0.35437   0.35712   0.75463   0.00000  Uiso   1.00
H119   H     0.39237   0.69124   0.77401   0.00000  Uiso   1.00
H120   H     0.56699   0.39103   0.89347   0.00000  Uiso   1.00
H121   H     0.26229   0.20013   0.74066   0.00000  Uiso   1.00
H122   H     0.34242   0.90467   0.78152   0.00000  Uiso   1.00
H123   H     0.16055   0.49825   0.99186   0.00000  Uiso   1.00
H124   H     0.23741   0.44722   0.03922   0.00000  Uiso   1.00
H125   H     0.09291   0.35667   0.96675   0.00000  Uiso   1.00
H126   H     0.13092   0.69079   0.98613   0.00000  Uiso   1.00
H127   H     0.35478   0.39066   0.06564   0.00000  Uiso   1.00
H128   H     0.05008   0.19976   0.91282   0.00000  Uiso   1.00
H129   H     0.13022   0.90431   0.95369   0.00000  Uiso   1.00
O130   O     0.51591   0.35725   0.00709   0.00000  Uiso   1.00
O131   O     0.11616   0.10681   0.80660   0.00000  Uiso   1.00
O132   O     0.22130   0.03116   0.86021   0.00000  Uiso   1.00
N133   N     0.50650   0.39797   0.92749   0.00000  Uiso   1.00
N134   N     0.22163   0.21947   0.78462   0.00000  Uiso   1.00
N135   N     0.29654   0.87816   0.82282   0.00000  Uiso   1.00
N136   N     0.39231   0.39777   0.02013   0.00000  Uiso   1.00
N137   N     0.10744   0.21928   0.87727   0.00000  Uiso   1.00
N138   N     0.18235   0.87796   0.91547   0.00000  Uiso   1.00
C139   C     0.85163   0.99858   0.83684   0.00000  Uiso   1.00
C140   C     0.86641   0.97082   0.88446   0.00000  Uiso   1.00
C141   C     0.94244   0.94757   0.87290   0.00000  Uiso   1.00
C142   C     0.94295   0.92416   0.92267   0.00000  Uiso   1.00
C143   C     0.97699   0.88103   0.98761   0.00000  Uiso   1.00
C144   C     0.78790   0.92161   0.84509   0.00000  Uiso   1.00
C145   C     0.79792   0.85700   0.80042   0.00000  Uiso   1.00
C146   C     0.73234   0.79218   0.81704   0.00000  Uiso   1.00
C147   C     0.64447   0.67269   0.82084   0.00000  Uiso   1.00
C148   C     0.80855   0.10314   0.85562   0.00000  Uiso   1.00
C149   C     0.83592   0.19117   0.81980   0.00000  Uiso   1.00
C150   C     0.78772   0.27918   0.84528   0.00000  Uiso   1.00
C151   C     0.73192   0.44156   0.86544   0.00000  Uiso   1.00
C152   C     0.71734   0.99835   0.94578   0.00000  Uiso   1.00
C153   C     0.79347   0.97069   0.94364   0.00000  Uiso   1.00
C154   C     0.79387   0.94732   0.99344   0.00000  Uiso   1.00
C155   C     0.86989   0.92404   0.98195   0.00000  Uiso   1.00
C156   C     0.71496   0.92148   0.90426   0.00000  Uiso   1.00
C157   C     0.64935   0.85674   0.92095   0.00000  Uiso   1.00
C158   C     0.65927   0.79205   0.87632   0.00000  Uiso   1.00
C159   C     0.73561   0.10302   0.91480   0.00000  Uiso   1.00
C160   C     0.68736   0.19091   0.94034   0.00000  Uiso   1.00
C161   C     0.71465   0.27905   0.90456   0.00000  Uiso   1.00
H162   H     0.90841   0.99868   0.79077   0.00000  Uiso   1.00
H163   H     0.99887   0.94767   0.82710   0.00000  Uiso   1.00
H164   H     0.85437   0.85712   0.75463   0.00000  Uiso   1.00
H165   H     0.89237   0.19124   0.77401   0.00000  Uiso   1.00
H166   H     0.06699   0.89103   0.89347   0.00000  Uiso   1.00
H167   H     0.76229   0.70013   0.74066   0.00000  Uiso   1.00
H168   H     0.84242   0.40467   0.78152   0.00000  Uiso   1.00
H169   H     0.66055   0.99825   0.99186   0.00000  Uiso   1.00
H170   H     0.73741   0.94722   0.03922   0.00000  Uiso   1.00
H171   H     0.59291   0.85667   0.96675   0.00000  Uiso   1.00
H172   H     0.63092   0.19079   0.98613   0.00000  Uiso   1.00
H173   H     0.85478   0.89066   0.06564   0.00000  Uiso   1.00
H174   H     0.55008   0.69976   0.91282   0.00000  Uiso   1.00
H175   H     0.63022   0.40431   0.95369   0.00000  Uiso   1.00
O176   O     0.01591   0.85725   0.00709   0.00000  Uiso   1.00
O177   O     0.61616   0.60681   0.80660   0.00000  Uiso   1.00
O178   O     0.72130   0.53116   0.86021   0.00000  Uiso   1.00
N179   N     0.00650   0.89797   0.92749   0.00000  Uiso   1.00
N180   N     0.72163   0.71947   0.78462   0.00000  Uiso   1.00
N181   N     0.79654   0.37816   0.82282   0.00000  Uiso   1.00
N182   N     0.89231   0.89777   0.02013   0.00000  Uiso   1.00
N183   N     0.60744   0.71928   0.87727   0.00000  Uiso   1.00
N184   N     0.68235   0.37796   0.91547   0.00000  Uiso   1.00
C185   C     0.35163   0.50142   0.33684   0.00000  Uiso   1.00
C186   C     0.36641   0.52918   0.38446   0.00000  Uiso   1.00
C187   C     0.44244   0.55243   0.37290   0.00000  Uiso   1.00
C188   C     0.44295   0.57584   0.42267   0.00000  Uiso   1.00
C189   C     0.47699   0.61897   0.48761   0.00000  Uiso   1.00
C190   C     0.28790   0.57839   0.34509   0.00000  Uiso   1.00
C191   C     0.29792   0.64300   0.30042   0.00000  Uiso   1.00
C192   C     0.23234   0.70782   0.31704   0.00000  Uiso   1.00
C193   C     0.14447   0.82731   0.32084   0.00000  Uiso   1.00
C194   C     0.30855   0.39686   0.35562   0.00000  Uiso   1.00
C195   C     0.33592   0.30883   0.31980   0.00000  Uiso   1.00
C196   C     0.28772   0.22082   0.34528   0.00000  Uiso   1.00
C197   C     0.23192   0.05844   0.36544   0.00000  Uiso   1.00
C198   C     0.21734   0.50165   0.44578   0.00000  Uiso   1.00
C199   C     0.29347   0.52931   0.44364   0.00000  Uiso   1.00
C200   C     0.29387   0.55268   0.49344   0.00000  Uiso   1.00
C201   C     0.36989   0.57596   0.48195   0.00000  Uiso   1.00
C202   C     0.21496   0.57852   0.40426   0.00000  Uiso   1.00
C203   C     0.14935   0.64326   0.42095   0.00000  Uiso   1.00
C204   C     0.15927   0.70795   0.37632   0.00000  Uiso   1.00
C205   C     0.23561   0.39698   0.41480   0.00000  Uiso   1.00
C206   C     0.18736   0.30909   0.44034   0.00000  Uiso   1.00
C207   C     0.21465   0.22095   0.40456   0.00000  Uiso   1.00
H208   H     0.40841   0.50132   0.29077   0.00000  Uiso   1.00
H209   H     0.49887   0.55233   0.32710   0.00000  Uiso   1.00
H210   H     0.35437   0.64288   0.25463   0.00000  Uiso   1.00
H211   H     0.39237   0.30876   0.27401   0.00000  Uiso   1.00
H212   H     0.56699   0.60897   0.39347   0.00000  Uiso   1.00
H213   H     0.26229   0.79987   0.24066   0.00000  Uiso   1.00
H214   H     0.34242   0.09533   0.28152   0.00000  Uiso   1.00
H215   H     0.16055   0.50175   0.49186   0.00000  Uiso   1.00
H216   H     0.23741   0.55278   0.53922   0.00000  Uiso   1.00
H217   H     0.09291   0.64333   0.46675   0.00000  Uiso   1.00
H218   H     0.13092   0.30921   0.48613   0.00000  Uiso   1.00
H219   H     0.35478   0.60934   0.56564   0.00000  Uiso   1.00
H220   H     0.05008   0.80024   0.41282   0.00000  Uiso   1.00
H221   H     0.13022   0.09569   0.45369   0.00000  Uiso   1.00
O222   O     0.51591   0.64275   0.50709   0.00000  Uiso   1.00
O223   O     0.11616   0.89319   0.30660   0.00000  Uiso   1.00
O224   O     0.22130   0.96884   0.36021   0.00000  Uiso   1.00
N225   N     0.50650   0.60203   0.42749   0.00000  Uiso   1.00
N226   N     0.22163   0.78053   0.28462   0.00000  Uiso   1.00
N227   N     0.29654   0.12184   0.32282   0.00000  Uiso   1.00
N228   N     0.39231   0.60223   0.52013   0.00000  Uiso   1.00
N229   N     0.10744   0.78072   0.37727   0.00000  Uiso   1.00
N230   N     0.18235   0.12204   0.41547   0.00000  Uiso   1.00
C231   C     0.85163   0.00142   0.33684   0.00000  Uiso   1.00
C232   C     0.86641   0.02918   0.38446   0.00000  Uiso   1.00
C233   C     0.94244   0.05243   0.37290   0.00000  Uiso   1.00
C234   C     0.94295   0.07584   0.42267   0.00000  Uiso   1.00
C235   C     0.97699   0.11897   0.48761   0.00000  Uiso   1.00
C236   C     0.78790   0.07839   0.34509   0.00000  Uiso   1.00
C237   C     0.79792   0.14300   0.30042   0.00000  Uiso   1.00
C238   C     0.73234   0.20782   0.31704   0.00000  Uiso   1.00
C239   C     0.64447   0.32731   0.32084   0.00000  Uiso   1.00
C240   C     0.80855   0.89686   0.35562   0.00000  Uiso   1.00
C241   C     0.83592   0.80883   0.31980   0.00000  Uiso   1.00
C242   C     0.78772   0.72082   0.34528   0.00000  Uiso   1.00
C243   C     0.73192   0.55844   0.36544   0.00000  Uiso   1.00
C244   C     0.71734   0.00165   0.44578   0.00000  Uiso   1.00
C245   C     0.79347   0.02931   0.44364   0.00000  Uiso   1.00
C246   C     0.79387   0.05268   0.49344   0.00000  Uiso   1.00
C247   C     0.86989   0.07596   0.48195   0.00000  Uiso   1.00
C248   C     0.71496   0.07852   0.40426   0.00000  Uiso   1.00
C249   C     0.64935   0.14326   0.42095   0.00000  Uiso   1.00
C250   C     0.65927   0.20795   0.37632   0.00000  Uiso   1.00
C251   C     0.73561   0.89698   0.41480   0.00000  Uiso   1.00
C252   C     0.68736   0.80909   0.44034   0.00000  Uiso   1.00
C253   C     0.71465   0.72095   0.40456   0.00000  Uiso   1.00
H254   H     0.90841   0.00132   0.29077   0.00000  Uiso   1.00
H255   H     0.99887   0.05233   0.32710   0.00000  Uiso   1.00
H256   H     0.85437   0.14288   0.25463   0.00000  Uiso   1.00
H257   H     0.89237   0.80876   0.27401   0.00000  Uiso   1.00
H258   H     0.06699   0.10897   0.39347   0.00000  Uiso   1.00
H259   H     0.76229   0.29987   0.24066   0.00000  Uiso   1.00
H260   H     0.84242   0.59533   0.28152   0.00000  Uiso   1.00
H261   H     0.66055   0.00175   0.49186   0.00000  Uiso   1.00
H262   H     0.73741   0.05278   0.53922   0.00000  Uiso   1.00
H263   H     0.59291   0.14333   0.46675   0.00000  Uiso   1.00
H264   H     0.63092   0.80921   0.48613   0.00000  Uiso   1.00
H265   H     0.85478   0.10934   0.56564   0.00000  Uiso   1.00
H266   H     0.55008   0.30024   0.41282   0.00000  Uiso   1.00
H267   H     0.63022   0.59569   0.45369   0.00000  Uiso   1.00
O268   O     0.01591   0.14275   0.50709   0.00000  Uiso   1.00
O269   O     0.61616   0.39319   0.30660   0.00000  Uiso   1.00
O270   O     0.72130   0.46884   0.36021   0.00000  Uiso   1.00
N271   N     0.00650   0.10203   0.42749   0.00000  Uiso   1.00
N272   N     0.72163   0.28053   0.28462   0.00000  Uiso   1.00
N273   N     0.79654   0.62184   0.32282   0.00000  Uiso   1.00
N274   N     0.89231   0.10223   0.52013   0.00000  Uiso   1.00
N275   N     0.60744   0.28072   0.37727   0.00000  Uiso   1.00
N276   N     0.68235   0.62204   0.41547   0.00000  Uiso   1.00
C277   C     0.64837   0.50142   0.16316   0.00000  Uiso   1.00
C278   C     0.63359   0.52918   0.11554   0.00000  Uiso   1.00
C279   C     0.55756   0.55243   0.12710   0.00000  Uiso   1.00
C280   C     0.55705   0.57584   0.07733   0.00000  Uiso   1.00
C281   C     0.52301   0.61897   0.01239   0.00000  Uiso   1.00
C282   C     0.71210   0.57839   0.15491   0.00000  Uiso   1.00
C283   C     0.70208   0.64300   0.19958   0.00000  Uiso   1.00
C284   C     0.76766   0.70782   0.18296   0.00000  Uiso   1.00
C285   C     0.85553   0.82731   0.17916   0.00000  Uiso   1.00
C286   C     0.69145   0.39686   0.14438   0.00000  Uiso   1.00
C287   C     0.66408   0.30883   0.18020   0.00000  Uiso   1.00
C288   C     0.71228   0.22082   0.15472   0.00000  Uiso   1.00
C289   C     0.76808   0.05844   0.13456   0.00000  Uiso   1.00
C290   C     0.78266   0.50165   0.05422   0.00000  Uiso   1.00
C291   C     0.70653   0.52931   0.05636   0.00000  Uiso   1.00
C292   C     0.70613   0.55268   0.00656   0.00000  Uiso   1.00
C293   C     0.63011   0.57596   0.01805   0.00000  Uiso   1.00
C294   C     0.78504   0.57852   0.09574   0.00000  Uiso   1.00
C295   C     0.85065   0.64326   0.07905   0.00000  Uiso   1.00
C296   C     0.84073   0.70795   0.12368   0.00000  Uiso   1.00
C297   C     0.76439   0.39698   0.08520   0.00000  Uiso   1.00
C298   C     0.81264   0.30909   0.05966   0.00000  Uiso   1.00
C299   C     0.78535   0.22095   0.09544   0.00000  Uiso   1.00
H300   H     0.59159   0.50132   0.20923   0.00000  Uiso   1.00
H301   H     0.50113   0.55233   0.17290   0.00000  Uiso   1.00
H302   H     0.64563   0.64288   0.24537   0.00000  Uiso   1.00
H303   H     0.60763   0.30876   0.22599   0.00000  Uiso   1.00
H304   H     0.43301   0.60897   0.10653   0.00000  Uiso   1.00
H305   H     0.73771   0.79987   0.25934   0.00000  Uiso   1.00
H306   H     0.65758   0.09533   0.21848   0.00000  Uiso   1.00
H307   H     0.83945   0.50175   0.00814   0.00000  Uiso   1.00
H308   H     0.76259   0.55278   0.96078   0.00000  Uiso   1.00
H309   H     0.90709   0.64333   0.03325   0.00000  Uiso   1.00
H310   H     0.86908   0.30921   0.01387   0.00000  Uiso   1.00
H311   H     0.64522   0.60934   0.93436   0.00000  Uiso   1.00
H312   H     0.94992   0.80024   0.08718   0.00000  Uiso   1.00
H313   H     0.86978   0.09569   0.04631   0.00000  Uiso   1.00
O314   O     0.48409   0.64275   0.99291   0.00000  Uiso   1.00
O315   O     0.88384   0.89319   0.19340   0.00000  Uiso   1.00
O316   O     0.77870   0.96884   0.13979   0.00000  Uiso   1.00
N317   N     0.49350   0.60203   0.07251   0.00000  Uiso   1.00
N318   N     0.77837   0.78053   0.21538   0.00000  Uiso   1.00
N319   N     0.70346   0.12184   0.17718   0.00000  Uiso   1.00
N320   N     0.60769   0.60223   0.97987   0.00000  Uiso   1.00
N321   N     0.89256   0.78072   0.12273   0.00000  Uiso   1.00
N322   N     0.81765   0.12204   0.08453   0.00000  Uiso   1.00
C323   C     0.14837   0.00142   0.16316   0.00000  Uiso   1.00
C324   C     0.13359   0.02918   0.11554   0.00000  Uiso   1.00
C325   C     0.05756   0.05243   0.12710   0.00000  Uiso   1.00
C326   C     0.05705   0.07584   0.07733   0.00000  Uiso   1.00
C327   C     0.02301   0.11897   0.01239   0.00000  Uiso   1.00
C328   C     0.21210   0.07839   0.15491   0.00000  Uiso   1.00
C329   C     0.20208   0.14300   0.19958   0.00000  Uiso   1.00
C330   C     0.26766   0.20782   0.18296   0.00000  Uiso   1.00
C331   C     0.35553   0.32731   0.17916   0.00000  Uiso   1.00
C332   C     0.19145   0.89686   0.14438   0.00000  Uiso   1.00
C333   C     0.16408   0.80883   0.18020   0.00000  Uiso   1.00
C334   C     0.21228   0.72082   0.15472   0.00000  Uiso   1.00
C335   C     0.26808   0.55844   0.13456   0.00000  Uiso   1.00
C336   C     0.28266   0.00165   0.05422   0.00000  Uiso   1.00
C337   C     0.20653   0.02931   0.05636   0.00000  Uiso   1.00
C338   C     0.20613   0.05268   0.00656   0.00000  Uiso   1.00
C339   C     0.13011   0.07596   0.01805   0.00000  Uiso   1.00
C340   C     0.28504   0.07852   0.09574   0.00000  Uiso   1.00
C341   C     0.35065   0.14326   0.07905   0.00000  Uiso   1.00
C342   C     0.34073   0.20795   0.12368   0.00000  Uiso   1.00
C343   C     0.26439   0.89698   0.08520   0.00000  Uiso   1.00
C344   C     0.31264   0.80909   0.05966   0.00000  Uiso   1.00
C345   C     0.28535   0.72095   0.09544   0.00000  Uiso   1.00
H346   H     0.09159   0.00132   0.20923   0.00000  Uiso   1.00
H347   H     0.00113   0.05233   0.17290   0.00000  Uiso   1.00
H348   H     0.14563   0.14288   0.24537   0.00000  Uiso   1.00
H349   H     0.10763   0.80876   0.22599   0.00000  Uiso   1.00
H350   H     0.93301   0.10897   0.10653   0.00000  Uiso   1.00
H351   H     0.23771   0.29987   0.25934   0.00000  Uiso   1.00
H352   H     0.15758   0.59533   0.21848   0.00000  Uiso   1.00
H353   H     0.33945   0.00175   0.00814   0.00000  Uiso   1.00
H354   H     0.26259   0.05278   0.96078   0.00000  Uiso   1.00
H355   H     0.40709   0.14333   0.03325   0.00000  Uiso   1.00
H356   H     0.36908   0.80921   0.01387   0.00000  Uiso   1.00
H357   H     0.14522   0.10934   0.93436   0.00000  Uiso   1.00
H358   H     0.44992   0.30024   0.08718   0.00000  Uiso   1.00
H359   H     0.36978   0.59569   0.04631   0.00000  Uiso   1.00
O360   O     0.98409   0.14275   0.99291   0.00000  Uiso   1.00
O361   O     0.38384   0.39319   0.19340   0.00000  Uiso   1.00
O362   O     0.27870   0.46884   0.13979   0.00000  Uiso   1.00
N363   N     0.99350   0.10203   0.07251   0.00000  Uiso   1.00
N364   N     0.27837   0.28053   0.21538   0.00000  Uiso   1.00
N365   N     0.20346   0.62184   0.17718   0.00000  Uiso   1.00
N366   N     0.10769   0.10223   0.97987   0.00000  Uiso   1.00
N367   N     0.39256   0.28072   0.12273   0.00000  Uiso   1.00
N368   N     0.31765   0.62204   0.08453   0.00000  Uiso   1.00
