data_job_03209
_audit_creation_date              2018-12-19
_audit_creation_method            'Materials Studio'
_symmetry_space_group_name_H-M    'P1'
_symmetry_Int_Tables_number       1
_symmetry_cell_setting            triclinic
loop_
_symmetry_equiv_pos_as_xyz
  x,y,z
_cell_length_a                    23.9191
_cell_length_b                    12.1259
_cell_length_c                    22.4434
_cell_angle_alpha                 90.0000
_cell_angle_beta                  138.9352
_cell_angle_gamma                 90.0000
loop_
_atom_site_label
_atom_site_type_symbol
_atom_site_fract_x
_atom_site_fract_y
_atom_site_fract_z
_atom_site_U_iso_or_equiv
_atom_site_adp_type
_atom_site_occupancy
C1     C     0.29339   0.11161   0.28240   0.00000  Uiso   1.00
C2     C     0.20360   0.15849   0.21507   0.00000  Uiso   1.00
C3     C     0.17640   0.25852   0.16998   0.00000  Uiso   1.00
C4     C     0.09175   0.28663   0.11115   0.00000  Uiso   1.00
C5     C     0.96076   0.37001   0.00865   0.00000  Uiso   1.00
C6     C     0.32266   0.09009   0.36965   0.00000  Uiso   1.00
C7     C     0.39557   0.13259   0.45452   0.00000  Uiso   1.00
C8     C     0.41116   0.10311   0.52581   0.00000  Uiso   1.00
C9     C     0.46504   0.08023   0.66330   0.00000  Uiso   1.00
C10    C     0.28405   0.99858   0.24584   0.00000  Uiso   1.00
C11    C     0.32452   0.96413   0.22664   0.00000  Uiso   1.00
C12    C     0.30761   0.85759   0.19372   0.00000  Uiso   1.00
C13    C     0.30155   0.69264   0.13899   0.00000  Uiso   1.00
C14    C     0.19143   0.98365   0.25811   0.00000  Uiso   1.00
C15    C     0.14822   0.08898   0.20188   0.00000  Uiso   1.00
C16    C     0.06359   0.11695   0.14310   0.00000  Uiso   1.00
C17    C     0.03627   0.21700   0.09793   0.00000  Uiso   1.00
C18    C     0.26728   0.02058   0.35646   0.00000  Uiso   1.00
C19    C     0.28277   0.99102   0.42764   0.00000  Uiso   1.00
C20    C     0.35568   0.03348   0.51260   0.00000  Uiso   1.00
C21    C     0.22867   0.92907   0.23265   0.00000  Uiso   1.00
C22    C     0.21170   0.82256   0.19976   0.00000  Uiso   1.00
C23    C     0.25213   0.78796   0.18051   0.00000  Uiso   1.00
H24    H     0.33651   0.16572   0.29268   0.00000  Uiso   1.00
H25    H     0.21928   0.31229   0.18021   0.00000  Uiso   1.00
H26    H     0.43842   0.18637   0.46471   0.00000  Uiso   1.00
H27    H     0.36737   0.01794   0.23686   0.00000  Uiso   1.00
H28    H     0.06489   0.44415   0.04973   0.00000  Uiso   1.00
H29    H     0.52698   0.17861   0.64961   0.00000  Uiso   1.00
H30    H     0.37716   0.82344   0.16915   0.00000  Uiso   1.00
H31    H     0.14832   0.92954   0.24784   0.00000  Uiso   1.00
H32    H     0.02075   0.06314   0.13291   0.00000  Uiso   1.00
H33    H     0.23990   0.93723   0.41741   0.00000  Uiso   1.00
H34    H     0.16884   0.76880   0.18956   0.00000  Uiso   1.00
H35    H     0.90376   0.24194   0.01134   0.00000  Uiso   1.00
H36    H     0.36585   0.97640   0.61123   0.00000  Uiso   1.00
H37    H     0.21602   0.62123   0.13076   0.00000  Uiso   1.00
O38    O     0.90381   0.43522   0.95577   0.00000  Uiso   1.00
O39    O     0.51006   0.08682   0.74279   0.00000  Uiso   1.00
O40    O     0.31349   0.62086   0.11243   0.00000  Uiso   1.00
N41    N     0.04447   0.37822   0.05646   0.00000  Uiso   1.00
N42    N     0.47649   0.12997   0.61731   0.00000  Uiso   1.00
N43    N     0.33643   0.79790   0.16814   0.00000  Uiso   1.00
N44    N     0.95777   0.26941   0.03580   0.00000  Uiso   1.00
N45    N     0.38978   0.02116   0.59665   0.00000  Uiso   1.00
N46    N     0.24973   0.68909   0.14748   0.00000  Uiso   1.00
C47    C     0.70661   0.61161   0.21760   0.00000  Uiso   1.00
C48    C     0.79640   0.65849   0.28493   0.00000  Uiso   1.00
C49    C     0.82360   0.75852   0.33002   0.00000  Uiso   1.00
C50    C     0.90825   0.78663   0.38885   0.00000  Uiso   1.00
C51    C     0.03924   0.87001   0.49135   0.00000  Uiso   1.00
C52    C     0.67734   0.59009   0.13035   0.00000  Uiso   1.00
C53    C     0.60443   0.63259   0.04548   0.00000  Uiso   1.00
C54    C     0.58884   0.60311   0.97419   0.00000  Uiso   1.00
C55    C     0.53496   0.58023   0.83670   0.00000  Uiso   1.00
C56    C     0.71595   0.49858   0.25416   0.00000  Uiso   1.00
C57    C     0.67548   0.46413   0.27336   0.00000  Uiso   1.00
C58    C     0.69239   0.35759   0.30628   0.00000  Uiso   1.00
C59    C     0.69845   0.19264   0.36101   0.00000  Uiso   1.00
C60    C     0.80857   0.48365   0.24189   0.00000  Uiso   1.00
C61    C     0.85178   0.58898   0.29812   0.00000  Uiso   1.00
C62    C     0.93641   0.61695   0.35690   0.00000  Uiso   1.00
C63    C     0.96373   0.71700   0.40207   0.00000  Uiso   1.00
C64    C     0.73272   0.52058   0.14354   0.00000  Uiso   1.00
C65    C     0.71723   0.49102   0.07236   0.00000  Uiso   1.00
C66    C     0.64432   0.53348   0.98740   0.00000  Uiso   1.00
C67    C     0.77133   0.42907   0.26735   0.00000  Uiso   1.00
C68    C     0.78830   0.32256   0.30024   0.00000  Uiso   1.00
C69    C     0.74787   0.28796   0.31949   0.00000  Uiso   1.00
H70    H     0.66349   0.66572   0.20732   0.00000  Uiso   1.00
H71    H     0.78072   0.81229   0.31979   0.00000  Uiso   1.00
H72    H     0.56158   0.68637   0.03529   0.00000  Uiso   1.00
H73    H     0.63263   0.51794   0.26314   0.00000  Uiso   1.00
H74    H     0.93511   0.94415   0.45027   0.00000  Uiso   1.00
H75    H     0.47302   0.67861   0.85039   0.00000  Uiso   1.00
H76    H     0.62284   0.32344   0.33085   0.00000  Uiso   1.00
H77    H     0.85168   0.42954   0.25216   0.00000  Uiso   1.00
H78    H     0.97925   0.56314   0.36709   0.00000  Uiso   1.00
H79    H     0.76010   0.43723   0.08259   0.00000  Uiso   1.00
H80    H     0.83116   0.26880   0.31044   0.00000  Uiso   1.00
H81    H     0.09624   0.74194   0.48866   0.00000  Uiso   1.00
H82    H     0.63415   0.47640   0.88877   0.00000  Uiso   1.00
H83    H     0.78398   0.12123   0.36924   0.00000  Uiso   1.00
O84    O     0.09619   0.93522   0.54423   0.00000  Uiso   1.00
O85    O     0.48994   0.58682   0.75721   0.00000  Uiso   1.00
O86    O     0.68651   0.12086   0.38757   0.00000  Uiso   1.00
N87    N     0.95553   0.87822   0.44354   0.00000  Uiso   1.00
N88    N     0.52351   0.62997   0.88269   0.00000  Uiso   1.00
N89    N     0.66357   0.29790   0.33186   0.00000  Uiso   1.00
N90    N     0.04223   0.76941   0.46420   0.00000  Uiso   1.00
N91    N     0.61022   0.52116   0.90335   0.00000  Uiso   1.00
N92    N     0.75027   0.18909   0.35252   0.00000  Uiso   1.00
C93    C     0.70661   0.88839   0.71760   0.00000  Uiso   1.00
C94    C     0.79640   0.84151   0.78493   0.00000  Uiso   1.00
C95    C     0.82360   0.74148   0.83002   0.00000  Uiso   1.00
C96    C     0.90825   0.71337   0.88885   0.00000  Uiso   1.00
C97    C     0.03924   0.62999   0.99135   0.00000  Uiso   1.00
C98    C     0.67734   0.90991   0.63035   0.00000  Uiso   1.00
C99    C     0.60443   0.86741   0.54548   0.00000  Uiso   1.00
C100   C     0.58884   0.89689   0.47419   0.00000  Uiso   1.00
C101   C     0.53496   0.91977   0.33670   0.00000  Uiso   1.00
C102   C     0.71595   0.00142   0.75416   0.00000  Uiso   1.00
C103   C     0.67548   0.03587   0.77336   0.00000  Uiso   1.00
C104   C     0.69239   0.14241   0.80628   0.00000  Uiso   1.00
C105   C     0.69845   0.30736   0.86101   0.00000  Uiso   1.00
C106   C     0.80857   0.01635   0.74189   0.00000  Uiso   1.00
C107   C     0.85178   0.91102   0.79812   0.00000  Uiso   1.00
C108   C     0.93641   0.88305   0.85690   0.00000  Uiso   1.00
C109   C     0.96373   0.78300   0.90207   0.00000  Uiso   1.00
C110   C     0.73272   0.97942   0.64354   0.00000  Uiso   1.00
C111   C     0.71723   0.00898   0.57236   0.00000  Uiso   1.00
C112   C     0.64432   0.96652   0.48740   0.00000  Uiso   1.00
C113   C     0.77133   0.07093   0.76735   0.00000  Uiso   1.00
C114   C     0.78830   0.17744   0.80024   0.00000  Uiso   1.00
C115   C     0.74787   0.21204   0.81949   0.00000  Uiso   1.00
H116   H     0.66349   0.83428   0.70732   0.00000  Uiso   1.00
H117   H     0.78072   0.68771   0.81979   0.00000  Uiso   1.00
H118   H     0.56158   0.81363   0.53529   0.00000  Uiso   1.00
H119   H     0.63263   0.98206   0.76314   0.00000  Uiso   1.00
H120   H     0.93511   0.55585   0.95027   0.00000  Uiso   1.00
H121   H     0.47302   0.82139   0.35039   0.00000  Uiso   1.00
H122   H     0.62284   0.17656   0.83085   0.00000  Uiso   1.00
H123   H     0.85168   0.07046   0.75216   0.00000  Uiso   1.00
H124   H     0.97925   0.93686   0.86709   0.00000  Uiso   1.00
H125   H     0.76010   0.06277   0.58259   0.00000  Uiso   1.00
H126   H     0.83116   0.23120   0.81044   0.00000  Uiso   1.00
H127   H     0.09624   0.75806   0.98866   0.00000  Uiso   1.00
H128   H     0.63415   0.02360   0.38877   0.00000  Uiso   1.00
H129   H     0.78398   0.37877   0.86924   0.00000  Uiso   1.00
O130   O     0.09619   0.56478   0.04423   0.00000  Uiso   1.00
O131   O     0.48994   0.91318   0.25721   0.00000  Uiso   1.00
O132   O     0.68651   0.37914   0.88757   0.00000  Uiso   1.00
N133   N     0.95553   0.62178   0.94354   0.00000  Uiso   1.00
N134   N     0.52351   0.87003   0.38269   0.00000  Uiso   1.00
N135   N     0.66357   0.20210   0.83186   0.00000  Uiso   1.00
N136   N     0.04223   0.73059   0.96420   0.00000  Uiso   1.00
N137   N     0.61022   0.97884   0.40335   0.00000  Uiso   1.00
N138   N     0.75027   0.31091   0.85252   0.00000  Uiso   1.00
C139   C     0.29339   0.38839   0.78240   0.00000  Uiso   1.00
C140   C     0.20360   0.34151   0.71507   0.00000  Uiso   1.00
C141   C     0.17640   0.24148   0.66998   0.00000  Uiso   1.00
C142   C     0.09175   0.21337   0.61115   0.00000  Uiso   1.00
C143   C     0.96076   0.12999   0.50865   0.00000  Uiso   1.00
C144   C     0.32266   0.40991   0.86965   0.00000  Uiso   1.00
C145   C     0.39557   0.36741   0.95452   0.00000  Uiso   1.00
C146   C     0.41116   0.39689   0.02581   0.00000  Uiso   1.00
C147   C     0.46504   0.41977   0.16330   0.00000  Uiso   1.00
C148   C     0.28405   0.50142   0.74584   0.00000  Uiso   1.00
C149   C     0.32452   0.53587   0.72664   0.00000  Uiso   1.00
C150   C     0.30761   0.64241   0.69372   0.00000  Uiso   1.00
C151   C     0.30155   0.80736   0.63899   0.00000  Uiso   1.00
C152   C     0.19143   0.51635   0.75811   0.00000  Uiso   1.00
C153   C     0.14822   0.41102   0.70188   0.00000  Uiso   1.00
C154   C     0.06359   0.38305   0.64310   0.00000  Uiso   1.00
C155   C     0.03627   0.28300   0.59793   0.00000  Uiso   1.00
C156   C     0.26728   0.47942   0.85646   0.00000  Uiso   1.00
C157   C     0.28277   0.50898   0.92764   0.00000  Uiso   1.00
C158   C     0.35568   0.46652   0.01260   0.00000  Uiso   1.00
C159   C     0.22867   0.57093   0.73265   0.00000  Uiso   1.00
C160   C     0.21170   0.67744   0.69976   0.00000  Uiso   1.00
C161   C     0.25213   0.71204   0.68051   0.00000  Uiso   1.00
H162   H     0.33651   0.33428   0.79268   0.00000  Uiso   1.00
H163   H     0.21928   0.18771   0.68021   0.00000  Uiso   1.00
H164   H     0.43842   0.31363   0.96471   0.00000  Uiso   1.00
H165   H     0.36737   0.48206   0.73686   0.00000  Uiso   1.00
H166   H     0.06489   0.05585   0.54973   0.00000  Uiso   1.00
H167   H     0.52698   0.32139   0.14961   0.00000  Uiso   1.00
H168   H     0.37716   0.67656   0.66915   0.00000  Uiso   1.00
H169   H     0.14832   0.57046   0.74784   0.00000  Uiso   1.00
H170   H     0.02075   0.43686   0.63291   0.00000  Uiso   1.00
H171   H     0.23990   0.56277   0.91741   0.00000  Uiso   1.00
H172   H     0.16884   0.73120   0.68956   0.00000  Uiso   1.00
H173   H     0.90376   0.25806   0.51134   0.00000  Uiso   1.00
H174   H     0.36585   0.52360   0.11123   0.00000  Uiso   1.00
H175   H     0.21602   0.87877   0.63076   0.00000  Uiso   1.00
O176   O     0.90381   0.06478   0.45577   0.00000  Uiso   1.00
O177   O     0.51006   0.41318   0.24279   0.00000  Uiso   1.00
O178   O     0.31349   0.87914   0.61243   0.00000  Uiso   1.00
N179   N     0.04447   0.12178   0.55646   0.00000  Uiso   1.00
N180   N     0.47649   0.37003   0.11731   0.00000  Uiso   1.00
N181   N     0.33643   0.70210   0.66814   0.00000  Uiso   1.00
N182   N     0.95777   0.23059   0.53580   0.00000  Uiso   1.00
N183   N     0.38978   0.47884   0.09665   0.00000  Uiso   1.00
N184   N     0.24973   0.81091   0.64748   0.00000  Uiso   1.00
