data_job_06196
_audit_creation_date              2018-12-19
_audit_creation_method            'Materials Studio'
_symmetry_space_group_name_H-M    'P1'
_symmetry_Int_Tables_number       1
_symmetry_cell_setting            triclinic
loop_
_symmetry_equiv_pos_as_xyz
  x,y,z
_cell_length_a                    12.4394
_cell_length_b                    23.7477
_cell_length_c                    24.3894
_cell_angle_alpha                 116.9830
_cell_angle_beta                  78.5185
_cell_angle_gamma                 83.8266
loop_
_atom_site_label
_atom_site_type_symbol
_atom_site_fract_x
_atom_site_fract_y
_atom_site_fract_z
_atom_site_U_iso_or_equiv
_atom_site_adp_type
_atom_site_occupancy
C1     C     0.12836   0.40972   0.82154   0.00000  Uiso   1.00
C2     C     0.23102   0.43254   0.84180   0.00000  Uiso   1.00
C3     C     0.30067   0.40515   0.86547   0.00000  Uiso   1.00
C4     C     0.39020   0.43311   0.88129   0.00000  Uiso   1.00
C5     C     0.54666   0.46044   0.91393   0.00000  Uiso   1.00
C6     C     0.02963   0.46852   0.86095   0.00000  Uiso   1.00
C7     C     0.92995   0.47138   0.90071   0.00000  Uiso   1.00
C8     C     0.84996   0.52962   0.93264   0.00000  Uiso   1.00
C9     C     0.69373   0.61280   0.99497   0.00000  Uiso   1.00
C10    C     0.14853   0.39550   0.75229   0.00000  Uiso   1.00
C11    C     0.14878   0.33696   0.70070   0.00000  Uiso   1.00
C12    C     0.16886   0.33372   0.64115   0.00000  Uiso   1.00
C13    C     0.19723   0.30351   0.53477   0.00000  Uiso   1.00
C14    C     0.16352   0.50807   0.80753   0.00000  Uiso   1.00
C15    C     0.25011   0.48597   0.83419   0.00000  Uiso   1.00
C16    C     0.33957   0.51397   0.84997   0.00000  Uiso   1.00
C17    C     0.40934   0.48663   0.87367   0.00000  Uiso   1.00
C18    C     0.04872   0.52194   0.85334   0.00000  Uiso   1.00
C19    C     0.96885   0.58019   0.88521   0.00000  Uiso   1.00
C20    C     0.86908   0.58314   0.92502   0.00000  Uiso   1.00
C21    C     0.16762   0.44892   0.74468   0.00000  Uiso   1.00
C22    C     0.18769   0.44577   0.68520   0.00000  Uiso   1.00
C23    C     0.18799   0.38724   0.63353   0.00000  Uiso   1.00
H24    H     0.11349   0.36813   0.82747   0.00000  Uiso   1.00
H25    H     0.28586   0.36382   0.87136   0.00000  Uiso   1.00
H26    H     0.91520   0.43003   0.90658   0.00000  Uiso   1.00
H27    H     0.13400   0.29563   0.70660   0.00000  Uiso   1.00
H28    H     0.48535   0.38260   0.91669   0.00000  Uiso   1.00
H29    H     0.70378   0.52221   0.99095   0.00000  Uiso   1.00
H30    H     0.16517   0.23880   0.56925   0.00000  Uiso   1.00
H31    H     0.17839   0.54967   0.80161   0.00000  Uiso   1.00
H32    H     0.35432   0.55531   0.84408   0.00000  Uiso   1.00
H33    H     0.98366   0.62152   0.87931   0.00000  Uiso   1.00
H34    H     0.20246   0.48712   0.67933   0.00000  Uiso   1.00
H35    H     0.54092   0.53803   0.89455   0.00000  Uiso   1.00
H36    H     0.75934   0.67763   0.96881   0.00000  Uiso   1.00
H37    H     0.22073   0.39423   0.54711   0.00000  Uiso   1.00
O38    O     0.62768   0.46077   0.93405   0.00000  Uiso   1.00
O39    O     0.60228   0.64391   0.03146   0.00000  Uiso   1.00
O40    O     0.20761   0.27209   0.47820   0.00000  Uiso   1.00
N41    N     0.47430   0.41840   0.90564   0.00000  Uiso   1.00
N42    N     0.74358   0.54892   0.97507   0.00000  Uiso   1.00
N43    N     0.17491   0.28397   0.58082   0.00000  Uiso   1.00
N44    N     0.50420   0.50203   0.89373   0.00000  Uiso   1.00
N45    N     0.77349   0.63256   0.96316   0.00000  Uiso   1.00
N46    N     0.20481   0.36760   0.56891   0.00000  Uiso   1.00
C47    C     0.95291   0.17702   0.59119   0.00000  Uiso   1.00
C48    C     0.07412   0.15901   0.59151   0.00000  Uiso   1.00
C49    C     0.16900   0.13731   0.54007   0.00000  Uiso   1.00
C50    C     0.27236   0.12337   0.55003   0.00000  Uiso   1.00
C51    C     0.45934   0.09423   0.54149   0.00000  Uiso   1.00
C52    C     0.88930   0.13496   0.61133   0.00000  Uiso   1.00
C53    C     0.82879   0.09305   0.57655   0.00000  Uiso   1.00
C54    C     0.77656   0.05886   0.60320   0.00000  Uiso   1.00
C55    C     0.67655   0.99242   0.62546   0.00000  Uiso   1.00
C56    C     0.90546   0.24656   0.64555   0.00000  Uiso   1.00
C57    C     0.85850   0.29848   0.63954   0.00000  Uiso   1.00
C58    C     0.81985   0.35826   0.69501   0.00000  Uiso   1.00
C59    C     0.74492   0.46509   0.77039   0.00000  Uiso   1.00
C60    C     0.96774   0.19085   0.70037   0.00000  Uiso   1.00
C61    C     0.08217   0.16652   0.65081   0.00000  Uiso   1.00
C62    C     0.18542   0.15261   0.66086   0.00000  Uiso   1.00
C63    C     0.28044   0.13089   0.60943   0.00000  Uiso   1.00
C64    C     0.89736   0.14247   0.67063   0.00000  Uiso   1.00
C65    C     0.84520   0.10834   0.69734   0.00000  Uiso   1.00
C66    C     0.78463   0.06638   0.66261   0.00000  Uiso   1.00
C67    C     0.91352   0.25407   0.70485   0.00000  Uiso   1.00
C68    C     0.87492   0.31378   0.76034   0.00000  Uiso   1.00
C69    C     0.82792   0.36578   0.75442   0.00000  Uiso   1.00
H70    H     0.94663   0.17118   0.54502   0.00000  Uiso   1.00
H71    H     0.16273   0.13150   0.49418   0.00000  Uiso   1.00
H72    H     0.82256   0.08725   0.53066   0.00000  Uiso   1.00
H73    H     0.85228   0.29266   0.59365   0.00000  Uiso   1.00
H74    H     0.40587   0.09081   0.46395   0.00000  Uiso   1.00
H75    H     0.68857   0.99752   0.54089   0.00000  Uiso   1.00
H76    H     0.75123   0.43065   0.67370   0.00000  Uiso   1.00
H77    H     0.97401   0.19669   0.74654   0.00000  Uiso   1.00
H78    H     0.19163   0.15842   0.70675   0.00000  Uiso   1.00
H79    H     0.85145   0.11417   0.74323   0.00000  Uiso   1.00
H80    H     0.88117   0.31957   0.80622   0.00000  Uiso   1.00
H81    H     0.42932   0.11265   0.63648   0.00000  Uiso   1.00
H82    H     0.71202   0.01936   0.71342   0.00000  Uiso   1.00
H83    H     0.77468   0.45250   0.84623   0.00000  Uiso   1.00
O84    O     0.56025   0.07607   0.52040   0.00000  Uiso   1.00
O85    O     0.61917   0.95369   0.62135   0.00000  Uiso   1.00
O86    O     0.70138   0.52195   0.79559   0.00000  Uiso   1.00
N87    N     0.38153   0.10121   0.51002   0.00000  Uiso   1.00
N88    N     0.71091   0.01398   0.58195   0.00000  Uiso   1.00
N89    N     0.76946   0.41893   0.70612   0.00000  Uiso   1.00
N90    N     0.39415   0.11297   0.60286   0.00000  Uiso   1.00
N91    N     0.72353   0.02574   0.67479   0.00000  Uiso   1.00
N92    N     0.78208   0.43068   0.79896   0.00000  Uiso   1.00
C93    C     0.54613   0.40724   0.58687   0.00000  Uiso   1.00
C94    C     0.66885   0.40989   0.56677   0.00000  Uiso   1.00
C95    C     0.71424   0.46350   0.59482   0.00000  Uiso   1.00
C96    C     0.82839   0.45610   0.56946   0.00000  Uiso   1.00
C97    C     0.00885   0.46919   0.54606   0.00000  Uiso   1.00
C98    C     0.50521   0.38612   0.52706   0.00000  Uiso   1.00
C99    C     0.41302   0.41975   0.52173   0.00000  Uiso   1.00
C100   C     0.38941   0.39233   0.46294   0.00000  Uiso   1.00
C101   C     0.31579   0.36850   0.37791   0.00000  Uiso   1.00
C102   C     0.54791   0.35137   0.60174   0.00000  Uiso   1.00
C103   C     0.49159   0.35577   0.65919   0.00000  Uiso   1.00
C104   C     0.50391   0.29910   0.66327   0.00000  Uiso   1.00
C105   C     0.49657   0.22131   0.69419   0.00000  Uiso   1.00
C106   C     0.66811   0.29877   0.49194   0.00000  Uiso   1.00
C107   C     0.73510   0.35097   0.51520   0.00000  Uiso   1.00
C108   C     0.84921   0.34349   0.48979   0.00000  Uiso   1.00
C109   C     0.89477   0.39708   0.51780   0.00000  Uiso   1.00
C110   C     0.57147   0.32721   0.47549   0.00000  Uiso   1.00
C111   C     0.54799   0.29973   0.41670   0.00000  Uiso   1.00
C112   C     0.45579   0.33331   0.41128   0.00000  Uiso   1.00
C113   C     0.61417   0.29245   0.55017   0.00000  Uiso   1.00
C114   C     0.62656   0.23576   0.55416   0.00000  Uiso   1.00
C115   C     0.57028   0.24007   0.61161   0.00000  Uiso   1.00
H116   H     0.49454   0.45311   0.62702   0.00000  Uiso   1.00
H117   H     0.66294   0.50909   0.63472   0.00000  Uiso   1.00
H118   H     0.36176   0.46534   0.56165   0.00000  Uiso   1.00
H119   H     0.44032   0.40138   0.69909   0.00000  Uiso   1.00
H120   H     0.87885   0.54518   0.62052   0.00000  Uiso   1.00
H121   H     0.24378   0.45291   0.46643   0.00000  Uiso   1.00
H122   H     0.40944   0.31804   0.75625   0.00000  Uiso   1.00
H123   H     0.71970   0.25289   0.45179   0.00000  Uiso   1.00
H124   H     0.90046   0.29789   0.44988   0.00000  Uiso   1.00
H125   H     0.59928   0.25414   0.37680   0.00000  Uiso   1.00
H126   H     0.67784   0.19018   0.51424   0.00000  Uiso   1.00
H127   H     0.07163   0.37376   0.47049   0.00000  Uiso   1.00
H128   H     0.43655   0.28150   0.31640   0.00000  Uiso   1.00
H129   H     0.60222   0.14662   0.60622   0.00000  Uiso   1.00
O130   O     0.09008   0.49269   0.54740   0.00000  Uiso   1.00
O131   O     0.25687   0.37163   0.34525   0.00000  Uiso   1.00
O132   O     0.47423   0.19468   0.72549   0.00000  Uiso   1.00
N133   N     0.89942   0.49866   0.58548   0.00000  Uiso   1.00
N134   N     0.30567   0.41240   0.44141   0.00000  Uiso   1.00
N135   N     0.46053   0.28630   0.71237   0.00000  Uiso   1.00
N136   N     0.00315   0.40642   0.50475   0.00000  Uiso   1.00
N137   N     0.40941   0.32016   0.36068   0.00000  Uiso   1.00
N138   N     0.56427   0.19406   0.63164   0.00000  Uiso   1.00
C139   C     0.87164   0.59028   0.17846   0.00000  Uiso   1.00
C140   C     0.76898   0.56746   0.15820   0.00000  Uiso   1.00
C141   C     0.69933   0.59484   0.13453   0.00000  Uiso   1.00
C142   C     0.60980   0.56689   0.11871   0.00000  Uiso   1.00
C143   C     0.45334   0.53956   0.08607   0.00000  Uiso   1.00
C144   C     0.97037   0.53148   0.13905   0.00000  Uiso   1.00
C145   C     0.07005   0.52862   0.09929   0.00000  Uiso   1.00
C146   C     0.15004   0.47038   0.06736   0.00000  Uiso   1.00
C147   C     0.30627   0.38721   0.00503   0.00000  Uiso   1.00
C148   C     0.85147   0.60450   0.24771   0.00000  Uiso   1.00
C149   C     0.85122   0.66304   0.29930   0.00000  Uiso   1.00
C150   C     0.83114   0.66628   0.35885   0.00000  Uiso   1.00
C151   C     0.80277   0.69649   0.46523   0.00000  Uiso   1.00
C152   C     0.83648   0.49193   0.19247   0.00000  Uiso   1.00
C153   C     0.74989   0.51403   0.16581   0.00000  Uiso   1.00
C154   C     0.66043   0.48603   0.15003   0.00000  Uiso   1.00
C155   C     0.59066   0.51337   0.12633   0.00000  Uiso   1.00
C156   C     0.95127   0.47806   0.14666   0.00000  Uiso   1.00
C157   C     0.03115   0.41981   0.11479   0.00000  Uiso   1.00
C158   C     0.13092   0.41686   0.07498   0.00000  Uiso   1.00
C159   C     0.83238   0.55108   0.25532   0.00000  Uiso   1.00
C160   C     0.81231   0.55423   0.31480   0.00000  Uiso   1.00
C161   C     0.81201   0.61276   0.36647   0.00000  Uiso   1.00
H162   H     0.88651   0.63187   0.17253   0.00000  Uiso   1.00
H163   H     0.71415   0.63618   0.12864   0.00000  Uiso   1.00
H164   H     0.08480   0.56997   0.09342   0.00000  Uiso   1.00
H165   H     0.86600   0.70437   0.29340   0.00000  Uiso   1.00
H166   H     0.51465   0.61740   0.08331   0.00000  Uiso   1.00
H167   H     0.29622   0.47779   0.00905   0.00000  Uiso   1.00
H168   H     0.83483   0.76120   0.43075   0.00000  Uiso   1.00
H169   H     0.82161   0.45033   0.19839   0.00000  Uiso   1.00
H170   H     0.64568   0.44469   0.15592   0.00000  Uiso   1.00
H171   H     0.01634   0.37848   0.12069   0.00000  Uiso   1.00
H172   H     0.79754   0.51288   0.32067   0.00000  Uiso   1.00
H173   H     0.45908   0.46197   0.10545   0.00000  Uiso   1.00
H174   H     0.24066   0.32237   0.03119   0.00000  Uiso   1.00
H175   H     0.77927   0.60577   0.45289   0.00000  Uiso   1.00
O176   O     0.37232   0.53923   0.06595   0.00000  Uiso   1.00
O177   O     0.39772   0.35609   0.96854   0.00000  Uiso   1.00
O178   O     0.79239   0.72791   0.52180   0.00000  Uiso   1.00
N179   N     0.52570   0.58160   0.09436   0.00000  Uiso   1.00
N180   N     0.25642   0.45108   0.02493   0.00000  Uiso   1.00
N181   N     0.82509   0.71603   0.41918   0.00000  Uiso   1.00
N182   N     0.49580   0.49797   0.10628   0.00000  Uiso   1.00
N183   N     0.22651   0.36744   0.03684   0.00000  Uiso   1.00
N184   N     0.79519   0.63240   0.43109   0.00000  Uiso   1.00
C185   C     0.04709   0.82298   0.40881   0.00000  Uiso   1.00
C186   C     0.92588   0.84099   0.40849   0.00000  Uiso   1.00
C187   C     0.83100   0.86269   0.45993   0.00000  Uiso   1.00
C188   C     0.72764   0.87663   0.44997   0.00000  Uiso   1.00
C189   C     0.54066   0.90577   0.45851   0.00000  Uiso   1.00
C190   C     0.11070   0.86504   0.38867   0.00000  Uiso   1.00
C191   C     0.17121   0.90695   0.42345   0.00000  Uiso   1.00
C192   C     0.22344   0.94114   0.39680   0.00000  Uiso   1.00
C193   C     0.32345   0.00758   0.37454   0.00000  Uiso   1.00
C194   C     0.09454   0.75344   0.35445   0.00000  Uiso   1.00
C195   C     0.14150   0.70152   0.36046   0.00000  Uiso   1.00
C196   C     0.18015   0.64174   0.30499   0.00000  Uiso   1.00
C197   C     0.25508   0.53491   0.22961   0.00000  Uiso   1.00
C198   C     0.03226   0.80915   0.29963   0.00000  Uiso   1.00
C199   C     0.91783   0.83348   0.34919   0.00000  Uiso   1.00
C200   C     0.81458   0.84739   0.33914   0.00000  Uiso   1.00
C201   C     0.71956   0.86911   0.39057   0.00000  Uiso   1.00
C202   C     0.10264   0.85753   0.32937   0.00000  Uiso   1.00
C203   C     0.15480   0.89166   0.30266   0.00000  Uiso   1.00
C204   C     0.21537   0.93362   0.33739   0.00000  Uiso   1.00
C205   C     0.08648   0.74593   0.29515   0.00000  Uiso   1.00
C206   C     0.12508   0.68622   0.23966   0.00000  Uiso   1.00
C207   C     0.17208   0.63422   0.24558   0.00000  Uiso   1.00
H208   H     0.05337   0.82882   0.45498   0.00000  Uiso   1.00
H209   H     0.83727   0.86850   0.50582   0.00000  Uiso   1.00
H210   H     0.17744   0.91275   0.46934   0.00000  Uiso   1.00
H211   H     0.14772   0.70734   0.40635   0.00000  Uiso   1.00
H212   H     0.59413   0.90919   0.53605   0.00000  Uiso   1.00
H213   H     0.31143   0.00249   0.45911   0.00000  Uiso   1.00
H214   H     0.24877   0.56935   0.32630   0.00000  Uiso   1.00
H215   H     0.02599   0.80331   0.25346   0.00000  Uiso   1.00
H216   H     0.80837   0.84158   0.29325   0.00000  Uiso   1.00
H217   H     0.14855   0.88583   0.25677   0.00000  Uiso   1.00
H218   H     0.11883   0.68043   0.19378   0.00000  Uiso   1.00
H219   H     0.57068   0.88735   0.36352   0.00000  Uiso   1.00
H220   H     0.28798   0.98064   0.28658   0.00000  Uiso   1.00
H221   H     0.22532   0.54750   0.15377   0.00000  Uiso   1.00
O222   O     0.43975   0.92393   0.47960   0.00000  Uiso   1.00
O223   O     0.38083   0.04631   0.37865   0.00000  Uiso   1.00
O224   O     0.29862   0.47805   0.20441   0.00000  Uiso   1.00
N225   N     0.61847   0.89879   0.48998   0.00000  Uiso   1.00
N226   N     0.28909   0.98602   0.41805   0.00000  Uiso   1.00
N227   N     0.23054   0.58107   0.29388   0.00000  Uiso   1.00
N228   N     0.60585   0.88703   0.39714   0.00000  Uiso   1.00
N229   N     0.27647   0.97426   0.32521   0.00000  Uiso   1.00
N230   N     0.21792   0.56932   0.20104   0.00000  Uiso   1.00
C231   C     0.45387   0.59276   0.41313   0.00000  Uiso   1.00
C232   C     0.33115   0.59011   0.43323   0.00000  Uiso   1.00
C233   C     0.28576   0.53650   0.40518   0.00000  Uiso   1.00
C234   C     0.17161   0.54390   0.43054   0.00000  Uiso   1.00
C235   C     0.99115   0.53081   0.45394   0.00000  Uiso   1.00
C236   C     0.49479   0.61388   0.47294   0.00000  Uiso   1.00
C237   C     0.58698   0.58025   0.47827   0.00000  Uiso   1.00
C238   C     0.61059   0.60767   0.53706   0.00000  Uiso   1.00
C239   C     0.68421   0.63150   0.62209   0.00000  Uiso   1.00
C240   C     0.45209   0.64863   0.39827   0.00000  Uiso   1.00
C241   C     0.50841   0.64423   0.34081   0.00000  Uiso   1.00
C242   C     0.49609   0.70090   0.33673   0.00000  Uiso   1.00
C243   C     0.50343   0.77869   0.30581   0.00000  Uiso   1.00
C244   C     0.33189   0.70123   0.50806   0.00000  Uiso   1.00
C245   C     0.26490   0.64903   0.48480   0.00000  Uiso   1.00
C246   C     0.15079   0.65651   0.51021   0.00000  Uiso   1.00
C247   C     0.10523   0.60292   0.48220   0.00000  Uiso   1.00
C248   C     0.42853   0.67279   0.52451   0.00000  Uiso   1.00
C249   C     0.45201   0.70027   0.58330   0.00000  Uiso   1.00
C250   C     0.54421   0.66669   0.58872   0.00000  Uiso   1.00
C251   C     0.38583   0.70755   0.44983   0.00000  Uiso   1.00
C252   C     0.37344   0.76424   0.44584   0.00000  Uiso   1.00
C253   C     0.42972   0.75993   0.38839   0.00000  Uiso   1.00
H254   H     0.50546   0.54689   0.37298   0.00000  Uiso   1.00
H255   H     0.33706   0.49091   0.36528   0.00000  Uiso   1.00
H256   H     0.63824   0.53466   0.43835   0.00000  Uiso   1.00
H257   H     0.55968   0.59862   0.30091   0.00000  Uiso   1.00
H258   H     0.12115   0.45482   0.37948   0.00000  Uiso   1.00
H259   H     0.75622   0.54709   0.53357   0.00000  Uiso   1.00
H260   H     0.59056   0.68196   0.24375   0.00000  Uiso   1.00
H261   H     0.28030   0.74711   0.54821   0.00000  Uiso   1.00
H262   H     0.09954   0.70211   0.55012   0.00000  Uiso   1.00
H263   H     0.40072   0.74586   0.62320   0.00000  Uiso   1.00
H264   H     0.32216   0.80982   0.48576   0.00000  Uiso   1.00
H265   H     0.92837   0.62624   0.52951   0.00000  Uiso   1.00
H266   H     0.56345   0.71850   0.68360   0.00000  Uiso   1.00
H267   H     0.39778   0.85338   0.39378   0.00000  Uiso   1.00
O268   O     0.90992   0.50731   0.45260   0.00000  Uiso   1.00
O269   O     0.74313   0.62837   0.65475   0.00000  Uiso   1.00
O270   O     0.52577   0.80532   0.27451   0.00000  Uiso   1.00
N271   N     0.10058   0.50134   0.41452   0.00000  Uiso   1.00
N272   N     0.69433   0.58760   0.55859   0.00000  Uiso   1.00
N273   N     0.53947   0.71370   0.28763   0.00000  Uiso   1.00
N274   N     0.99685   0.59358   0.49525   0.00000  Uiso   1.00
N275   N     0.59059   0.67984   0.63932   0.00000  Uiso   1.00
N276   N     0.43573   0.80594   0.36836   0.00000  Uiso   1.00
