data_job_02564
_audit_creation_date              2018-12-19
_audit_creation_method            'Materials Studio'
_symmetry_space_group_name_H-M    'P1'
_symmetry_Int_Tables_number       1
_symmetry_cell_setting            triclinic
loop_
_symmetry_equiv_pos_as_xyz
  x,y,z
_cell_length_a                    21.7135
_cell_length_b                    13.0862
_cell_length_c                    18.2166
_cell_angle_alpha                 90.0000
_cell_angle_beta                  90.0000
_cell_angle_gamma                 90.0000
loop_
_atom_site_label
_atom_site_type_symbol
_atom_site_fract_x
_atom_site_fract_y
_atom_site_fract_z
_atom_site_U_iso_or_equiv
_atom_site_adp_type
_atom_site_occupancy
C1     C     0.72888   0.15389   0.13392   0.00000  Uiso   1.00
C2     C     0.79640   0.18366   0.14252   0.00000  Uiso   1.00
C3     C     0.84641   0.12824   0.11673   0.00000  Uiso   1.00
C4     C     0.90452   0.16837   0.13017   0.00000  Uiso   1.00
C5     C     0.00818   0.20054   0.13779   0.00000  Uiso   1.00
C6     C     0.70229   0.15066   0.21136   0.00000  Uiso   1.00
C7     C     0.67316   0.06750   0.24346   0.00000  Uiso   1.00
C8     C     0.65204   0.07986   0.31485   0.00000  Uiso   1.00
C9     C     0.60954   0.06082   0.42933   0.00000  Uiso   1.00
C10    C     0.69774   0.24373   0.09567   0.00000  Uiso   1.00
C11    C     0.66477   0.23882   0.03049   0.00000  Uiso   1.00
C12    C     0.63980   0.32954   0.00448   0.00000  Uiso   1.00
C13    C     0.59025   0.45500   0.93932   0.00000  Uiso   1.00
C14    C     0.74314   0.32372   0.20363   0.00000  Uiso   1.00
C15    C     0.80414   0.27591   0.18038   0.00000  Uiso   1.00
C16    C     0.86219   0.31614   0.19386   0.00000  Uiso   1.00
C17    C     0.91228   0.26079   0.16810   0.00000  Uiso   1.00
C18    C     0.71003   0.24290   0.24923   0.00000  Uiso   1.00
C19    C     0.68894   0.25540   0.32058   0.00000  Uiso   1.00
C20    C     0.65979   0.17227   0.35278   0.00000  Uiso   1.00
C21    C     0.70548   0.33598   0.13353   0.00000  Uiso   1.00
C22    C     0.68055   0.42672   0.10761   0.00000  Uiso   1.00
C23    C     0.64756   0.42195   0.04241   0.00000  Uiso   1.00
H24    H     0.72285   0.08207   0.10445   0.00000  Uiso   1.00
H25    H     0.84040   0.05685   0.08744   0.00000  Uiso   1.00
H26    H     0.66717   0.99613   0.21414   0.00000  Uiso   1.00
H27    H     0.65879   0.16742   0.00121   0.00000  Uiso   1.00
H28    H     0.97414   0.06955   0.08530   0.00000  Uiso   1.00
H29    H     0.60886   0.94152   0.35245   0.00000  Uiso   1.00
H30    H     0.59118   0.30273   0.90344   0.00000  Uiso   1.00
H31    H     0.74917   0.39554   0.23311   0.00000  Uiso   1.00
H32    H     0.86817   0.38753   0.22316   0.00000  Uiso   1.00
H33    H     0.69494   0.32679   0.34986   0.00000  Uiso   1.00
H34    H     0.68656   0.49809   0.13693   0.00000  Uiso   1.00
H35    H     0.99668   0.33793   0.19546   0.00000  Uiso   1.00
H36    H     0.63139   0.20990   0.46261   0.00000  Uiso   1.00
H37    H     0.61372   0.57111   0.01360   0.00000  Uiso   1.00
O38    O     0.06321   0.19279   0.13154   0.00000  Uiso   1.00
O39    O     0.58397   0.02482   0.48202   0.00000  Uiso   1.00
O40    O     0.56078   0.49873   0.89292   0.00000  Uiso   1.00
N41    N     0.96311   0.13382   0.11258   0.00000  Uiso   1.00
N42    N     0.62160   0.01411   0.36235   0.00000  Uiso   1.00
N43    N     0.60506   0.35181   0.94257   0.00000  Uiso   1.00
N44    N     0.97524   0.27824   0.17186   0.00000  Uiso   1.00
N45    N     0.63373   0.15853   0.42163   0.00000  Uiso   1.00
N46    N     0.61719   0.49623   0.00185   0.00000  Uiso   1.00
C47    C     0.77112   0.84611   0.13392   0.00000  Uiso   1.00
C48    C     0.70360   0.81634   0.14252   0.00000  Uiso   1.00
C49    C     0.65359   0.87176   0.11673   0.00000  Uiso   1.00
C50    C     0.59548   0.83163   0.13017   0.00000  Uiso   1.00
C51    C     0.49182   0.79946   0.13779   0.00000  Uiso   1.00
C52    C     0.79771   0.84934   0.21136   0.00000  Uiso   1.00
C53    C     0.82684   0.93250   0.24346   0.00000  Uiso   1.00
C54    C     0.84796   0.92014   0.31485   0.00000  Uiso   1.00
C55    C     0.89046   0.93918   0.42933   0.00000  Uiso   1.00
C56    C     0.80226   0.75627   0.09567   0.00000  Uiso   1.00
C57    C     0.83523   0.76118   0.03049   0.00000  Uiso   1.00
C58    C     0.86020   0.67046   0.00448   0.00000  Uiso   1.00
C59    C     0.90975   0.54500   0.93932   0.00000  Uiso   1.00
C60    C     0.75686   0.67628   0.20363   0.00000  Uiso   1.00
C61    C     0.69586   0.72409   0.18038   0.00000  Uiso   1.00
C62    C     0.63781   0.68386   0.19386   0.00000  Uiso   1.00
C63    C     0.58772   0.73921   0.16810   0.00000  Uiso   1.00
C64    C     0.78997   0.75710   0.24923   0.00000  Uiso   1.00
C65    C     0.81106   0.74460   0.32058   0.00000  Uiso   1.00
C66    C     0.84021   0.82773   0.35278   0.00000  Uiso   1.00
C67    C     0.79452   0.66402   0.13353   0.00000  Uiso   1.00
C68    C     0.81945   0.57328   0.10761   0.00000  Uiso   1.00
C69    C     0.85244   0.57805   0.04241   0.00000  Uiso   1.00
H70    H     0.77715   0.91793   0.10445   0.00000  Uiso   1.00
H71    H     0.65960   0.94315   0.08744   0.00000  Uiso   1.00
H72    H     0.83283   0.00387   0.21414   0.00000  Uiso   1.00
H73    H     0.84121   0.83258   0.00121   0.00000  Uiso   1.00
H74    H     0.52586   0.93045   0.08530   0.00000  Uiso   1.00
H75    H     0.89114   0.05848   0.35245   0.00000  Uiso   1.00
H76    H     0.90882   0.69727   0.90344   0.00000  Uiso   1.00
H77    H     0.75083   0.60446   0.23311   0.00000  Uiso   1.00
H78    H     0.63183   0.61247   0.22316   0.00000  Uiso   1.00
H79    H     0.80506   0.67321   0.34986   0.00000  Uiso   1.00
H80    H     0.81344   0.50191   0.13693   0.00000  Uiso   1.00
H81    H     0.50332   0.66207   0.19546   0.00000  Uiso   1.00
H82    H     0.86861   0.79010   0.46261   0.00000  Uiso   1.00
H83    H     0.88628   0.42889   0.01360   0.00000  Uiso   1.00
O84    O     0.43679   0.80721   0.13154   0.00000  Uiso   1.00
O85    O     0.91603   0.97518   0.48202   0.00000  Uiso   1.00
O86    O     0.93922   0.50127   0.89292   0.00000  Uiso   1.00
N87    N     0.53689   0.86618   0.11258   0.00000  Uiso   1.00
N88    N     0.87840   0.98589   0.36235   0.00000  Uiso   1.00
N89    N     0.89494   0.64819   0.94257   0.00000  Uiso   1.00
N90    N     0.52476   0.72176   0.17186   0.00000  Uiso   1.00
N91    N     0.86627   0.84147   0.42163   0.00000  Uiso   1.00
N92    N     0.88281   0.50377   0.00185   0.00000  Uiso   1.00
C93    C     0.27112   0.15389   0.36608   0.00000  Uiso   1.00
C94    C     0.20360   0.18366   0.35748   0.00000  Uiso   1.00
C95    C     0.15359   0.12824   0.38327   0.00000  Uiso   1.00
C96    C     0.09548   0.16837   0.36983   0.00000  Uiso   1.00
C97    C     0.99182   0.20054   0.36221   0.00000  Uiso   1.00
C98    C     0.29771   0.15066   0.28864   0.00000  Uiso   1.00
C99    C     0.32684   0.06750   0.25654   0.00000  Uiso   1.00
C100   C     0.34796   0.07986   0.18515   0.00000  Uiso   1.00
C101   C     0.39046   0.06082   0.07067   0.00000  Uiso   1.00
C102   C     0.30226   0.24373   0.40433   0.00000  Uiso   1.00
C103   C     0.33523   0.23882   0.46951   0.00000  Uiso   1.00
C104   C     0.36020   0.32954   0.49552   0.00000  Uiso   1.00
C105   C     0.40975   0.45500   0.56068   0.00000  Uiso   1.00
C106   C     0.25686   0.32372   0.29637   0.00000  Uiso   1.00
C107   C     0.19586   0.27591   0.31962   0.00000  Uiso   1.00
C108   C     0.13781   0.31614   0.30614   0.00000  Uiso   1.00
C109   C     0.08772   0.26079   0.33190   0.00000  Uiso   1.00
C110   C     0.28997   0.24290   0.25077   0.00000  Uiso   1.00
C111   C     0.31106   0.25540   0.17942   0.00000  Uiso   1.00
C112   C     0.34021   0.17227   0.14722   0.00000  Uiso   1.00
C113   C     0.29452   0.33598   0.36647   0.00000  Uiso   1.00
C114   C     0.31945   0.42672   0.39239   0.00000  Uiso   1.00
C115   C     0.35244   0.42195   0.45759   0.00000  Uiso   1.00
H116   H     0.27715   0.08207   0.39555   0.00000  Uiso   1.00
H117   H     0.15960   0.05685   0.41256   0.00000  Uiso   1.00
H118   H     0.33283   0.99613   0.28586   0.00000  Uiso   1.00
H119   H     0.34121   0.16742   0.49879   0.00000  Uiso   1.00
H120   H     0.02586   0.06955   0.41470   0.00000  Uiso   1.00
H121   H     0.39114   0.94152   0.14755   0.00000  Uiso   1.00
H122   H     0.40882   0.30273   0.59656   0.00000  Uiso   1.00
H123   H     0.25083   0.39554   0.26689   0.00000  Uiso   1.00
H124   H     0.13183   0.38753   0.27684   0.00000  Uiso   1.00
H125   H     0.30506   0.32679   0.15014   0.00000  Uiso   1.00
H126   H     0.31344   0.49809   0.36307   0.00000  Uiso   1.00
H127   H     0.00332   0.33793   0.30454   0.00000  Uiso   1.00
H128   H     0.36861   0.20990   0.03739   0.00000  Uiso   1.00
H129   H     0.38628   0.57111   0.48640   0.00000  Uiso   1.00
O130   O     0.93679   0.19279   0.36846   0.00000  Uiso   1.00
O131   O     0.41603   0.02482   0.01798   0.00000  Uiso   1.00
O132   O     0.43922   0.49873   0.60708   0.00000  Uiso   1.00
N133   N     0.03689   0.13382   0.38742   0.00000  Uiso   1.00
N134   N     0.37840   0.01411   0.13765   0.00000  Uiso   1.00
N135   N     0.39494   0.35181   0.55743   0.00000  Uiso   1.00
N136   N     0.02476   0.27824   0.32814   0.00000  Uiso   1.00
N137   N     0.36627   0.15853   0.07837   0.00000  Uiso   1.00
N138   N     0.38281   0.49623   0.49815   0.00000  Uiso   1.00
C139   C     0.22888   0.84611   0.36608   0.00000  Uiso   1.00
C140   C     0.29640   0.81634   0.35748   0.00000  Uiso   1.00
C141   C     0.34641   0.87176   0.38327   0.00000  Uiso   1.00
C142   C     0.40452   0.83163   0.36983   0.00000  Uiso   1.00
C143   C     0.50818   0.79946   0.36221   0.00000  Uiso   1.00
C144   C     0.20229   0.84934   0.28864   0.00000  Uiso   1.00
C145   C     0.17316   0.93250   0.25654   0.00000  Uiso   1.00
C146   C     0.15204   0.92014   0.18515   0.00000  Uiso   1.00
C147   C     0.10954   0.93918   0.07067   0.00000  Uiso   1.00
C148   C     0.19774   0.75627   0.40433   0.00000  Uiso   1.00
C149   C     0.16477   0.76118   0.46951   0.00000  Uiso   1.00
C150   C     0.13980   0.67046   0.49552   0.00000  Uiso   1.00
C151   C     0.09025   0.54500   0.56068   0.00000  Uiso   1.00
C152   C     0.24314   0.67628   0.29637   0.00000  Uiso   1.00
C153   C     0.30414   0.72409   0.31962   0.00000  Uiso   1.00
C154   C     0.36219   0.68386   0.30614   0.00000  Uiso   1.00
C155   C     0.41228   0.73921   0.33190   0.00000  Uiso   1.00
C156   C     0.21003   0.75710   0.25077   0.00000  Uiso   1.00
C157   C     0.18894   0.74460   0.17942   0.00000  Uiso   1.00
C158   C     0.15979   0.82773   0.14722   0.00000  Uiso   1.00
C159   C     0.20548   0.66402   0.36647   0.00000  Uiso   1.00
C160   C     0.18055   0.57328   0.39239   0.00000  Uiso   1.00
C161   C     0.14756   0.57805   0.45759   0.00000  Uiso   1.00
H162   H     0.22285   0.91793   0.39555   0.00000  Uiso   1.00
H163   H     0.34040   0.94315   0.41256   0.00000  Uiso   1.00
H164   H     0.16717   0.00387   0.28586   0.00000  Uiso   1.00
H165   H     0.15879   0.83258   0.49879   0.00000  Uiso   1.00
H166   H     0.47414   0.93045   0.41470   0.00000  Uiso   1.00
H167   H     0.10886   0.05848   0.14755   0.00000  Uiso   1.00
H168   H     0.09118   0.69727   0.59656   0.00000  Uiso   1.00
H169   H     0.24917   0.60446   0.26689   0.00000  Uiso   1.00
H170   H     0.36817   0.61247   0.27684   0.00000  Uiso   1.00
H171   H     0.19494   0.67321   0.15014   0.00000  Uiso   1.00
H172   H     0.18656   0.50191   0.36307   0.00000  Uiso   1.00
H173   H     0.49668   0.66207   0.30454   0.00000  Uiso   1.00
H174   H     0.13139   0.79010   0.03739   0.00000  Uiso   1.00
H175   H     0.11372   0.42889   0.48640   0.00000  Uiso   1.00
O176   O     0.56321   0.80721   0.36846   0.00000  Uiso   1.00
O177   O     0.08397   0.97518   0.01798   0.00000  Uiso   1.00
O178   O     0.06078   0.50127   0.60708   0.00000  Uiso   1.00
N179   N     0.46311   0.86618   0.38742   0.00000  Uiso   1.00
N180   N     0.12160   0.98589   0.13765   0.00000  Uiso   1.00
N181   N     0.10506   0.64819   0.55743   0.00000  Uiso   1.00
N182   N     0.47524   0.72176   0.32814   0.00000  Uiso   1.00
N183   N     0.13373   0.84147   0.07837   0.00000  Uiso   1.00
N184   N     0.11719   0.50377   0.49815   0.00000  Uiso   1.00
C185   C     0.27112   0.84611   0.86608   0.00000  Uiso   1.00
C186   C     0.20360   0.81634   0.85748   0.00000  Uiso   1.00
C187   C     0.15359   0.87176   0.88327   0.00000  Uiso   1.00
C188   C     0.09548   0.83163   0.86983   0.00000  Uiso   1.00
C189   C     0.99182   0.79946   0.86221   0.00000  Uiso   1.00
C190   C     0.29771   0.84934   0.78864   0.00000  Uiso   1.00
C191   C     0.32684   0.93250   0.75654   0.00000  Uiso   1.00
C192   C     0.34796   0.92014   0.68515   0.00000  Uiso   1.00
C193   C     0.39046   0.93918   0.57067   0.00000  Uiso   1.00
C194   C     0.30226   0.75627   0.90433   0.00000  Uiso   1.00
C195   C     0.33523   0.76118   0.96951   0.00000  Uiso   1.00
C196   C     0.36020   0.67046   0.99552   0.00000  Uiso   1.00
C197   C     0.40975   0.54500   0.06068   0.00000  Uiso   1.00
C198   C     0.25686   0.67628   0.79637   0.00000  Uiso   1.00
C199   C     0.19586   0.72409   0.81962   0.00000  Uiso   1.00
C200   C     0.13781   0.68386   0.80614   0.00000  Uiso   1.00
C201   C     0.08772   0.73921   0.83190   0.00000  Uiso   1.00
C202   C     0.28997   0.75710   0.75077   0.00000  Uiso   1.00
C203   C     0.31106   0.74460   0.67942   0.00000  Uiso   1.00
C204   C     0.34021   0.82773   0.64722   0.00000  Uiso   1.00
C205   C     0.29452   0.66402   0.86647   0.00000  Uiso   1.00
C206   C     0.31945   0.57328   0.89239   0.00000  Uiso   1.00
C207   C     0.35244   0.57805   0.95759   0.00000  Uiso   1.00
H208   H     0.27715   0.91793   0.89555   0.00000  Uiso   1.00
H209   H     0.15960   0.94315   0.91256   0.00000  Uiso   1.00
H210   H     0.33283   0.00387   0.78586   0.00000  Uiso   1.00
H211   H     0.34121   0.83258   0.99879   0.00000  Uiso   1.00
H212   H     0.02586   0.93045   0.91470   0.00000  Uiso   1.00
H213   H     0.39114   0.05848   0.64755   0.00000  Uiso   1.00
H214   H     0.40882   0.69727   0.09656   0.00000  Uiso   1.00
H215   H     0.25083   0.60446   0.76689   0.00000  Uiso   1.00
H216   H     0.13183   0.61247   0.77684   0.00000  Uiso   1.00
H217   H     0.30506   0.67321   0.65014   0.00000  Uiso   1.00
H218   H     0.31344   0.50191   0.86307   0.00000  Uiso   1.00
H219   H     0.00332   0.66207   0.80454   0.00000  Uiso   1.00
H220   H     0.36861   0.79010   0.53739   0.00000  Uiso   1.00
H221   H     0.38628   0.42889   0.98640   0.00000  Uiso   1.00
O222   O     0.93679   0.80721   0.86846   0.00000  Uiso   1.00
O223   O     0.41603   0.97518   0.51798   0.00000  Uiso   1.00
O224   O     0.43922   0.50127   0.10708   0.00000  Uiso   1.00
N225   N     0.03689   0.86618   0.88742   0.00000  Uiso   1.00
N226   N     0.37840   0.98589   0.63765   0.00000  Uiso   1.00
N227   N     0.39494   0.64819   0.05743   0.00000  Uiso   1.00
N228   N     0.02476   0.72176   0.82814   0.00000  Uiso   1.00
N229   N     0.36627   0.84147   0.57837   0.00000  Uiso   1.00
N230   N     0.38281   0.50377   0.99815   0.00000  Uiso   1.00
C231   C     0.22888   0.15389   0.86608   0.00000  Uiso   1.00
C232   C     0.29640   0.18366   0.85748   0.00000  Uiso   1.00
C233   C     0.34641   0.12824   0.88327   0.00000  Uiso   1.00
C234   C     0.40452   0.16837   0.86983   0.00000  Uiso   1.00
C235   C     0.50818   0.20054   0.86221   0.00000  Uiso   1.00
C236   C     0.20229   0.15066   0.78864   0.00000  Uiso   1.00
C237   C     0.17316   0.06750   0.75654   0.00000  Uiso   1.00
C238   C     0.15204   0.07986   0.68515   0.00000  Uiso   1.00
C239   C     0.10954   0.06082   0.57067   0.00000  Uiso   1.00
C240   C     0.19774   0.24373   0.90433   0.00000  Uiso   1.00
C241   C     0.16477   0.23882   0.96951   0.00000  Uiso   1.00
C242   C     0.13980   0.32954   0.99552   0.00000  Uiso   1.00
C243   C     0.09025   0.45500   0.06068   0.00000  Uiso   1.00
C244   C     0.24314   0.32372   0.79637   0.00000  Uiso   1.00
C245   C     0.30414   0.27591   0.81962   0.00000  Uiso   1.00
C246   C     0.36219   0.31614   0.80614   0.00000  Uiso   1.00
C247   C     0.41228   0.26079   0.83190   0.00000  Uiso   1.00
C248   C     0.21003   0.24290   0.75077   0.00000  Uiso   1.00
C249   C     0.18894   0.25540   0.67942   0.00000  Uiso   1.00
C250   C     0.15979   0.17227   0.64722   0.00000  Uiso   1.00
C251   C     0.20548   0.33598   0.86647   0.00000  Uiso   1.00
C252   C     0.18055   0.42672   0.89239   0.00000  Uiso   1.00
C253   C     0.14756   0.42195   0.95759   0.00000  Uiso   1.00
H254   H     0.22285   0.08207   0.89555   0.00000  Uiso   1.00
H255   H     0.34040   0.05685   0.91256   0.00000  Uiso   1.00
H256   H     0.16717   0.99613   0.78586   0.00000  Uiso   1.00
H257   H     0.15879   0.16742   0.99879   0.00000  Uiso   1.00
H258   H     0.47414   0.06955   0.91470   0.00000  Uiso   1.00
H259   H     0.10886   0.94152   0.64755   0.00000  Uiso   1.00
H260   H     0.09118   0.30273   0.09656   0.00000  Uiso   1.00
H261   H     0.24917   0.39554   0.76689   0.00000  Uiso   1.00
H262   H     0.36817   0.38753   0.77684   0.00000  Uiso   1.00
H263   H     0.19494   0.32679   0.65014   0.00000  Uiso   1.00
H264   H     0.18656   0.49809   0.86307   0.00000  Uiso   1.00
H265   H     0.49668   0.33793   0.80454   0.00000  Uiso   1.00
H266   H     0.13139   0.20990   0.53739   0.00000  Uiso   1.00
H267   H     0.11372   0.57111   0.98640   0.00000  Uiso   1.00
O268   O     0.56321   0.19279   0.86846   0.00000  Uiso   1.00
O269   O     0.08397   0.02482   0.51798   0.00000  Uiso   1.00
O270   O     0.06078   0.49873   0.10708   0.00000  Uiso   1.00
N271   N     0.46311   0.13382   0.88742   0.00000  Uiso   1.00
N272   N     0.12160   0.01411   0.63765   0.00000  Uiso   1.00
N273   N     0.10506   0.35181   0.05743   0.00000  Uiso   1.00
N274   N     0.47524   0.27824   0.82814   0.00000  Uiso   1.00
N275   N     0.13373   0.15853   0.57837   0.00000  Uiso   1.00
N276   N     0.11719   0.49623   0.99815   0.00000  Uiso   1.00
C277   C     0.72888   0.84611   0.63392   0.00000  Uiso   1.00
C278   C     0.79640   0.81634   0.64252   0.00000  Uiso   1.00
C279   C     0.84641   0.87176   0.61673   0.00000  Uiso   1.00
C280   C     0.90452   0.83163   0.63017   0.00000  Uiso   1.00
C281   C     0.00818   0.79946   0.63779   0.00000  Uiso   1.00
C282   C     0.70229   0.84934   0.71136   0.00000  Uiso   1.00
C283   C     0.67316   0.93250   0.74346   0.00000  Uiso   1.00
C284   C     0.65204   0.92014   0.81485   0.00000  Uiso   1.00
C285   C     0.60954   0.93918   0.92933   0.00000  Uiso   1.00
C286   C     0.69774   0.75627   0.59567   0.00000  Uiso   1.00
C287   C     0.66477   0.76118   0.53049   0.00000  Uiso   1.00
C288   C     0.63980   0.67046   0.50448   0.00000  Uiso   1.00
C289   C     0.59025   0.54500   0.43932   0.00000  Uiso   1.00
C290   C     0.74314   0.67628   0.70363   0.00000  Uiso   1.00
C291   C     0.80414   0.72409   0.68038   0.00000  Uiso   1.00
C292   C     0.86219   0.68386   0.69386   0.00000  Uiso   1.00
C293   C     0.91228   0.73921   0.66810   0.00000  Uiso   1.00
C294   C     0.71003   0.75710   0.74923   0.00000  Uiso   1.00
C295   C     0.68894   0.74460   0.82058   0.00000  Uiso   1.00
C296   C     0.65979   0.82773   0.85278   0.00000  Uiso   1.00
C297   C     0.70548   0.66402   0.63353   0.00000  Uiso   1.00
C298   C     0.68055   0.57328   0.60761   0.00000  Uiso   1.00
C299   C     0.64756   0.57805   0.54241   0.00000  Uiso   1.00
H300   H     0.72285   0.91793   0.60445   0.00000  Uiso   1.00
H301   H     0.84040   0.94315   0.58744   0.00000  Uiso   1.00
H302   H     0.66717   0.00387   0.71414   0.00000  Uiso   1.00
H303   H     0.65879   0.83258   0.50121   0.00000  Uiso   1.00
H304   H     0.97414   0.93045   0.58530   0.00000  Uiso   1.00
H305   H     0.60886   0.05848   0.85245   0.00000  Uiso   1.00
H306   H     0.59118   0.69727   0.40344   0.00000  Uiso   1.00
H307   H     0.74917   0.60446   0.73311   0.00000  Uiso   1.00
H308   H     0.86817   0.61247   0.72316   0.00000  Uiso   1.00
H309   H     0.69494   0.67321   0.84986   0.00000  Uiso   1.00
H310   H     0.68656   0.50191   0.63693   0.00000  Uiso   1.00
H311   H     0.99668   0.66207   0.69546   0.00000  Uiso   1.00
H312   H     0.63139   0.79010   0.96261   0.00000  Uiso   1.00
H313   H     0.61372   0.42889   0.51360   0.00000  Uiso   1.00
O314   O     0.06321   0.80721   0.63154   0.00000  Uiso   1.00
O315   O     0.58397   0.97518   0.98202   0.00000  Uiso   1.00
O316   O     0.56078   0.50127   0.39292   0.00000  Uiso   1.00
N317   N     0.96311   0.86618   0.61258   0.00000  Uiso   1.00
N318   N     0.62160   0.98589   0.86235   0.00000  Uiso   1.00
N319   N     0.60506   0.64819   0.44257   0.00000  Uiso   1.00
N320   N     0.97524   0.72176   0.67186   0.00000  Uiso   1.00
N321   N     0.63373   0.84147   0.92163   0.00000  Uiso   1.00
N322   N     0.61719   0.50377   0.50185   0.00000  Uiso   1.00
C323   C     0.77112   0.15389   0.63392   0.00000  Uiso   1.00
C324   C     0.70360   0.18366   0.64252   0.00000  Uiso   1.00
C325   C     0.65359   0.12824   0.61673   0.00000  Uiso   1.00
C326   C     0.59548   0.16837   0.63017   0.00000  Uiso   1.00
C327   C     0.49182   0.20054   0.63779   0.00000  Uiso   1.00
C328   C     0.79771   0.15066   0.71136   0.00000  Uiso   1.00
C329   C     0.82684   0.06750   0.74346   0.00000  Uiso   1.00
C330   C     0.84796   0.07986   0.81485   0.00000  Uiso   1.00
C331   C     0.89046   0.06082   0.92933   0.00000  Uiso   1.00
C332   C     0.80226   0.24373   0.59567   0.00000  Uiso   1.00
C333   C     0.83523   0.23882   0.53049   0.00000  Uiso   1.00
C334   C     0.86020   0.32954   0.50448   0.00000  Uiso   1.00
C335   C     0.90975   0.45500   0.43932   0.00000  Uiso   1.00
C336   C     0.75686   0.32372   0.70363   0.00000  Uiso   1.00
C337   C     0.69586   0.27591   0.68038   0.00000  Uiso   1.00
C338   C     0.63781   0.31614   0.69386   0.00000  Uiso   1.00
C339   C     0.58772   0.26079   0.66810   0.00000  Uiso   1.00
C340   C     0.78997   0.24290   0.74923   0.00000  Uiso   1.00
C341   C     0.81106   0.25540   0.82058   0.00000  Uiso   1.00
C342   C     0.84021   0.17227   0.85278   0.00000  Uiso   1.00
C343   C     0.79452   0.33598   0.63353   0.00000  Uiso   1.00
C344   C     0.81945   0.42672   0.60761   0.00000  Uiso   1.00
C345   C     0.85244   0.42195   0.54241   0.00000  Uiso   1.00
H346   H     0.77715   0.08207   0.60445   0.00000  Uiso   1.00
H347   H     0.65960   0.05685   0.58744   0.00000  Uiso   1.00
H348   H     0.83283   0.99613   0.71414   0.00000  Uiso   1.00
H349   H     0.84121   0.16742   0.50121   0.00000  Uiso   1.00
H350   H     0.52586   0.06955   0.58530   0.00000  Uiso   1.00
H351   H     0.89114   0.94152   0.85245   0.00000  Uiso   1.00
H352   H     0.90882   0.30273   0.40344   0.00000  Uiso   1.00
H353   H     0.75083   0.39554   0.73311   0.00000  Uiso   1.00
H354   H     0.63183   0.38753   0.72316   0.00000  Uiso   1.00
H355   H     0.80506   0.32679   0.84986   0.00000  Uiso   1.00
H356   H     0.81344   0.49809   0.63693   0.00000  Uiso   1.00
H357   H     0.50332   0.33793   0.69546   0.00000  Uiso   1.00
H358   H     0.86861   0.20990   0.96261   0.00000  Uiso   1.00
H359   H     0.88628   0.57111   0.51360   0.00000  Uiso   1.00
O360   O     0.43679   0.19279   0.63154   0.00000  Uiso   1.00
O361   O     0.91603   0.02482   0.98202   0.00000  Uiso   1.00
O362   O     0.93922   0.49873   0.39292   0.00000  Uiso   1.00
N363   N     0.53689   0.13382   0.61258   0.00000  Uiso   1.00
N364   N     0.87840   0.01411   0.86235   0.00000  Uiso   1.00
N365   N     0.89494   0.35181   0.44257   0.00000  Uiso   1.00
N366   N     0.52476   0.27824   0.67186   0.00000  Uiso   1.00
N367   N     0.86627   0.15853   0.92163   0.00000  Uiso   1.00
N368   N     0.88281   0.49623   0.50185   0.00000  Uiso   1.00
