data_job_00120
_audit_creation_date              2018-12-19
_audit_creation_method            'Materials Studio'
_symmetry_space_group_name_H-M    'P1'
_symmetry_Int_Tables_number       1
_symmetry_cell_setting            triclinic
loop_
_symmetry_equiv_pos_as_xyz
  x,y,z
_cell_length_a                    40.2615
_cell_length_b                    40.2615
_cell_length_c                    7.1832
_cell_angle_alpha                 90.0000
_cell_angle_beta                  90.0000
_cell_angle_gamma                 120.0000
loop_
_atom_site_label
_atom_site_type_symbol
_atom_site_fract_x
_atom_site_fract_y
_atom_site_fract_z
_atom_site_U_iso_or_equiv
_atom_site_adp_type
_atom_site_occupancy
C1     C     0.66669   0.66664   0.92947   0.00000  Uiso   1.00
C2     C     0.70163   0.66664   0.84748   0.00000  Uiso   1.00
C3     C     0.73100   0.66665   0.94856   0.00000  Uiso   1.00
C4     C     0.76042   0.66665   0.84765   0.00000  Uiso   1.00
C5     C     0.66669   0.70158   0.84748   0.00000  Uiso   1.00
C6     C     0.66669   0.73096   0.94856   0.00000  Uiso   1.00
C7     C     0.66669   0.76037   0.84765   0.00000  Uiso   1.00
C8     C     0.63175   0.63171   0.84748   0.00000  Uiso   1.00
C9     C     0.60237   0.60234   0.94856   0.00000  Uiso   1.00
C10    C     0.57295   0.57293   0.84765   0.00000  Uiso   1.00
H11    H     0.66669   0.66664   0.08125   0.00000  Uiso   1.00
H12    H     0.73100   0.66665   0.09943   0.00000  Uiso   1.00
H13    H     0.66669   0.73095   0.09943   0.00000  Uiso   1.00
H14    H     0.60238   0.60235   0.09943   0.00000  Uiso   1.00
H15    H     0.80230   0.66667   0.03361   0.00000  Uiso   1.00
H16    H     0.66669   0.80224   0.03361   0.00000  Uiso   1.00
H17    H     0.53107   0.53107   0.03361   0.00000  Uiso   1.00
N18    N     0.79347   0.66666   0.90261   0.00000  Uiso   1.00
N19    N     0.66669   0.79341   0.90261   0.00000  Uiso   1.00
N20    N     0.53990   0.53990   0.90261   0.00000  Uiso   1.00
C21    C     0.33336   0.00005   0.92947   0.00000  Uiso   1.00
C22    C     0.33336   0.03498   0.84748   0.00000  Uiso   1.00
C23    C     0.33335   0.06436   0.94856   0.00000  Uiso   1.00
C24    C     0.33335   0.09377   0.84765   0.00000  Uiso   1.00
C25    C     0.29842   0.96511   0.84748   0.00000  Uiso   1.00
C26    C     0.26904   0.93574   0.94856   0.00000  Uiso   1.00
C27    C     0.23963   0.90632   0.84765   0.00000  Uiso   1.00
C28    C     0.36829   0.00004   0.84748   0.00000  Uiso   1.00
C29    C     0.39766   0.00003   0.94856   0.00000  Uiso   1.00
C30    C     0.42707   0.00001   0.84765   0.00000  Uiso   1.00
H31    H     0.33336   0.00005   0.08125   0.00000  Uiso   1.00
H32    H     0.33335   0.06435   0.09943   0.00000  Uiso   1.00
H33    H     0.26905   0.93574   0.09943   0.00000  Uiso   1.00
H34    H     0.39765   0.00003   0.09943   0.00000  Uiso   1.00
H35    H     0.33333   0.13563   0.03361   0.00000  Uiso   1.00
H36    H     0.19776   0.86445   0.03361   0.00000  Uiso   1.00
H37    H     0.46893   0.00000   0.03361   0.00000  Uiso   1.00
N38    N     0.33334   0.12681   0.90261   0.00000  Uiso   1.00
N39    N     0.20659   0.87328   0.90261   0.00000  Uiso   1.00
N40    N     0.46010  -0.00000   0.90261   0.00000  Uiso   1.00
C41    C     0.99995   0.33331   0.92947   0.00000  Uiso   1.00
C42    C     0.96502   0.29837   0.84748   0.00000  Uiso   1.00
C43    C     0.93564   0.26900   0.94856   0.00000  Uiso   1.00
C44    C     0.90623   0.23958   0.84765   0.00000  Uiso   1.00
C45    C     0.03489   0.33331   0.84748   0.00000  Uiso   1.00
C46    C     0.06426   0.33331   0.94856   0.00000  Uiso   1.00
C47    C     0.09368   0.33331   0.84765   0.00000  Uiso   1.00
C48    C     0.99996   0.36825   0.84748   0.00000  Uiso   1.00
C49    C     0.99997   0.39763   0.94856   0.00000  Uiso   1.00
C50    C     0.99999   0.42705   0.84765   0.00000  Uiso   1.00
H51    H     0.99995   0.33331   0.08125   0.00000  Uiso   1.00
H52    H     0.93565   0.26900   0.09943   0.00000  Uiso   1.00
H53    H     0.06426   0.33331   0.09943   0.00000  Uiso   1.00
H54    H     0.99997   0.39762   0.09943   0.00000  Uiso   1.00
H55    H     0.86437   0.19770   0.03361   0.00000  Uiso   1.00
H56    H     0.13555   0.33331   0.03361   0.00000  Uiso   1.00
H57    H    -0.00000   0.46893   0.03361   0.00000  Uiso   1.00
N58    N     0.87319   0.20653   0.90261   0.00000  Uiso   1.00
N59    N     0.12672   0.33331   0.90261   0.00000  Uiso   1.00
N60    N     0.00000   0.46010   0.90261   0.00000  Uiso   1.00
C61    C     0.33331   0.33336   0.42947   0.00000  Uiso   1.00
C62    C     0.29837   0.33336   0.34748   0.00000  Uiso   1.00
C63    C     0.26900   0.33335   0.44856   0.00000  Uiso   1.00
C64    C     0.23958   0.33335   0.34765   0.00000  Uiso   1.00
C65    C     0.33331   0.29842   0.34748   0.00000  Uiso   1.00
C66    C     0.33331   0.26904   0.44856   0.00000  Uiso   1.00
C67    C     0.33331   0.23963   0.34765   0.00000  Uiso   1.00
C68    C     0.36825   0.36829   0.34748   0.00000  Uiso   1.00
C69    C     0.39763   0.39766   0.44856   0.00000  Uiso   1.00
C70    C     0.42705   0.42707   0.34765   0.00000  Uiso   1.00
H71    H     0.33331   0.33336   0.58125   0.00000  Uiso   1.00
H72    H     0.26900   0.33335   0.59943   0.00000  Uiso   1.00
H73    H     0.33331   0.26905   0.59943   0.00000  Uiso   1.00
H74    H     0.39762   0.39765   0.59943   0.00000  Uiso   1.00
H75    H     0.19770   0.33333   0.53361   0.00000  Uiso   1.00
H76    H     0.33331   0.19776   0.53361   0.00000  Uiso   1.00
H77    H     0.46893   0.46893   0.53361   0.00000  Uiso   1.00
N78    N     0.20653   0.33334   0.40261   0.00000  Uiso   1.00
N79    N     0.33331   0.20659   0.40261   0.00000  Uiso   1.00
N80    N     0.46010   0.46010   0.40261   0.00000  Uiso   1.00
C81    C     0.66664   0.99995   0.42947   0.00000  Uiso   1.00
C82    C     0.66664   0.96502   0.34748   0.00000  Uiso   1.00
C83    C     0.66665   0.93564   0.44856   0.00000  Uiso   1.00
C84    C     0.66665   0.90623   0.34765   0.00000  Uiso   1.00
C85    C     0.70158   0.03489   0.34748   0.00000  Uiso   1.00
C86    C     0.73096   0.06426   0.44856   0.00000  Uiso   1.00
C87    C     0.76037   0.09368   0.34765   0.00000  Uiso   1.00
C88    C     0.63171   0.99996   0.34748   0.00000  Uiso   1.00
C89    C     0.60234   0.99997   0.44856   0.00000  Uiso   1.00
C90    C     0.57293   0.99999   0.34765   0.00000  Uiso   1.00
H91    H     0.66664   0.99995   0.58125   0.00000  Uiso   1.00
H92    H     0.66665   0.93565   0.59943   0.00000  Uiso   1.00
H93    H     0.73095   0.06426   0.59943   0.00000  Uiso   1.00
H94    H     0.60235   0.99997   0.59943   0.00000  Uiso   1.00
H95    H     0.66667   0.86437   0.53361   0.00000  Uiso   1.00
H96    H     0.80224   0.13555   0.53361   0.00000  Uiso   1.00
H97    H     0.53107  -0.00000   0.53361   0.00000  Uiso   1.00
N98    N     0.66666   0.87319   0.40261   0.00000  Uiso   1.00
N99    N     0.79341   0.12672   0.40261   0.00000  Uiso   1.00
N100   N     0.53990   0.00000   0.40261   0.00000  Uiso   1.00
C101   C     0.00005   0.66669   0.42947   0.00000  Uiso   1.00
C102   C     0.03498   0.70163   0.34748   0.00000  Uiso   1.00
C103   C     0.06436   0.73100   0.44856   0.00000  Uiso   1.00
C104   C     0.09377   0.76042   0.34765   0.00000  Uiso   1.00
C105   C     0.96511   0.66669   0.34748   0.00000  Uiso   1.00
C106   C     0.93574   0.66669   0.44856   0.00000  Uiso   1.00
C107   C     0.90632   0.66669   0.34765   0.00000  Uiso   1.00
C108   C     0.00004   0.63175   0.34748   0.00000  Uiso   1.00
C109   C     0.00003   0.60237   0.44856   0.00000  Uiso   1.00
C110   C     0.00001   0.57295   0.34765   0.00000  Uiso   1.00
H111   H     0.00005   0.66669   0.58125   0.00000  Uiso   1.00
H112   H     0.06435   0.73100   0.59943   0.00000  Uiso   1.00
H113   H     0.93574   0.66669   0.59943   0.00000  Uiso   1.00
H114   H     0.00003   0.60238   0.59943   0.00000  Uiso   1.00
H115   H     0.13563   0.80230   0.53361   0.00000  Uiso   1.00
H116   H     0.86445   0.66669   0.53361   0.00000  Uiso   1.00
H117   H     0.00000   0.53107   0.53361   0.00000  Uiso   1.00
N118   N     0.12681   0.79347   0.40261   0.00000  Uiso   1.00
N119   N     0.87328   0.66669   0.40261   0.00000  Uiso   1.00
N120   N    -0.00000   0.53990   0.40261   0.00000  Uiso   1.00
C121   C     0.33331   0.33336   0.07053   0.00000  Uiso   1.00
C122   C     0.29837   0.33336   0.15252   0.00000  Uiso   1.00
C123   C     0.26900   0.33335   0.05144   0.00000  Uiso   1.00
C124   C     0.23958   0.33335   0.15235   0.00000  Uiso   1.00
C125   C     0.33331   0.29842   0.15252   0.00000  Uiso   1.00
C126   C     0.33331   0.26904   0.05144   0.00000  Uiso   1.00
C127   C     0.33331   0.23963   0.15235   0.00000  Uiso   1.00
C128   C     0.36825   0.36829   0.15252   0.00000  Uiso   1.00
C129   C     0.39763   0.39766   0.05144   0.00000  Uiso   1.00
C130   C     0.42705   0.42707   0.15235   0.00000  Uiso   1.00
H131   H     0.33331   0.33336   0.91875   0.00000  Uiso   1.00
H132   H     0.26900   0.33335   0.90057   0.00000  Uiso   1.00
H133   H     0.33331   0.26905   0.90057   0.00000  Uiso   1.00
H134   H     0.39762   0.39765   0.90057   0.00000  Uiso   1.00
H135   H     0.19770   0.33333   0.96639   0.00000  Uiso   1.00
H136   H     0.33331   0.19776   0.96639   0.00000  Uiso   1.00
H137   H     0.46893   0.46893   0.96639   0.00000  Uiso   1.00
N138   N     0.20653   0.33334   0.09739   0.00000  Uiso   1.00
N139   N     0.33331   0.20659   0.09739   0.00000  Uiso   1.00
N140   N     0.46010   0.46010   0.09739   0.00000  Uiso   1.00
C141   C     0.66664   0.99995   0.07053   0.00000  Uiso   1.00
C142   C     0.66664   0.96502   0.15252   0.00000  Uiso   1.00
C143   C     0.66665   0.93564   0.05144   0.00000  Uiso   1.00
C144   C     0.66665   0.90623   0.15235   0.00000  Uiso   1.00
C145   C     0.70158   0.03489   0.15252   0.00000  Uiso   1.00
C146   C     0.73096   0.06426   0.05144   0.00000  Uiso   1.00
C147   C     0.76037   0.09368   0.15235   0.00000  Uiso   1.00
C148   C     0.63171   0.99996   0.15252   0.00000  Uiso   1.00
C149   C     0.60234   0.99997   0.05144   0.00000  Uiso   1.00
C150   C     0.57293   0.99999   0.15235   0.00000  Uiso   1.00
H151   H     0.66664   0.99995   0.91875   0.00000  Uiso   1.00
H152   H     0.66665   0.93565   0.90057   0.00000  Uiso   1.00
H153   H     0.73095   0.06426   0.90057   0.00000  Uiso   1.00
H154   H     0.60235   0.99997   0.90057   0.00000  Uiso   1.00
H155   H     0.66667   0.86437   0.96639   0.00000  Uiso   1.00
H156   H     0.80224   0.13555   0.96639   0.00000  Uiso   1.00
H157   H     0.53107  -0.00000   0.96639   0.00000  Uiso   1.00
N158   N     0.66666   0.87319   0.09739   0.00000  Uiso   1.00
N159   N     0.79341   0.12672   0.09739   0.00000  Uiso   1.00
N160   N     0.53990   0.00000   0.09739   0.00000  Uiso   1.00
C161   C     0.00005   0.66669   0.07053   0.00000  Uiso   1.00
C162   C     0.03498   0.70163   0.15252   0.00000  Uiso   1.00
C163   C     0.06436   0.73100   0.05144   0.00000  Uiso   1.00
C164   C     0.09377   0.76042   0.15235   0.00000  Uiso   1.00
C165   C     0.96511   0.66669   0.15252   0.00000  Uiso   1.00
C166   C     0.93574   0.66669   0.05144   0.00000  Uiso   1.00
C167   C     0.90632   0.66669   0.15235   0.00000  Uiso   1.00
C168   C     0.00004   0.63175   0.15252   0.00000  Uiso   1.00
C169   C     0.00003   0.60237   0.05144   0.00000  Uiso   1.00
C170   C     0.00001   0.57295   0.15235   0.00000  Uiso   1.00
H171   H     0.00005   0.66669   0.91875   0.00000  Uiso   1.00
H172   H     0.06435   0.73100   0.90057   0.00000  Uiso   1.00
H173   H     0.93574   0.66669   0.90057   0.00000  Uiso   1.00
H174   H     0.00003   0.60238   0.90057   0.00000  Uiso   1.00
H175   H     0.13563   0.80230   0.96639   0.00000  Uiso   1.00
H176   H     0.86445   0.66669   0.96639   0.00000  Uiso   1.00
H177   H     0.00000   0.53107   0.96639   0.00000  Uiso   1.00
N178   N     0.12681   0.79347   0.09739   0.00000  Uiso   1.00
N179   N     0.87328   0.66669   0.09739   0.00000  Uiso   1.00
N180   N    -0.00000   0.53990   0.09739   0.00000  Uiso   1.00
C181   C     0.66669   0.66664   0.57053   0.00000  Uiso   1.00
C182   C     0.70163   0.66664   0.65252   0.00000  Uiso   1.00
C183   C     0.73100   0.66665   0.55144   0.00000  Uiso   1.00
C184   C     0.76042   0.66665   0.65235   0.00000  Uiso   1.00
C185   C     0.66669   0.70158   0.65252   0.00000  Uiso   1.00
C186   C     0.66669   0.73096   0.55144   0.00000  Uiso   1.00
C187   C     0.66669   0.76037   0.65235   0.00000  Uiso   1.00
C188   C     0.63175   0.63171   0.65252   0.00000  Uiso   1.00
C189   C     0.60237   0.60234   0.55144   0.00000  Uiso   1.00
C190   C     0.57295   0.57293   0.65235   0.00000  Uiso   1.00
H191   H     0.66669   0.66664   0.41875   0.00000  Uiso   1.00
H192   H     0.73100   0.66665   0.40057   0.00000  Uiso   1.00
H193   H     0.66669   0.73095   0.40057   0.00000  Uiso   1.00
H194   H     0.60238   0.60235   0.40057   0.00000  Uiso   1.00
H195   H     0.80230   0.66667   0.46639   0.00000  Uiso   1.00
H196   H     0.66669   0.80224   0.46639   0.00000  Uiso   1.00
H197   H     0.53107   0.53107   0.46639   0.00000  Uiso   1.00
N198   N     0.79347   0.66666   0.59739   0.00000  Uiso   1.00
N199   N     0.66669   0.79341   0.59739   0.00000  Uiso   1.00
N200   N     0.53990   0.53990   0.59739   0.00000  Uiso   1.00
C201   C     0.33336   0.00005   0.57053   0.00000  Uiso   1.00
C202   C     0.33336   0.03498   0.65252   0.00000  Uiso   1.00
C203   C     0.33335   0.06436   0.55144   0.00000  Uiso   1.00
C204   C     0.33335   0.09377   0.65235   0.00000  Uiso   1.00
C205   C     0.29842   0.96511   0.65252   0.00000  Uiso   1.00
C206   C     0.26904   0.93574   0.55144   0.00000  Uiso   1.00
C207   C     0.23963   0.90632   0.65235   0.00000  Uiso   1.00
C208   C     0.36829   0.00004   0.65252   0.00000  Uiso   1.00
C209   C     0.39766   0.00003   0.55144   0.00000  Uiso   1.00
C210   C     0.42707   0.00001   0.65235   0.00000  Uiso   1.00
H211   H     0.33336   0.00005   0.41875   0.00000  Uiso   1.00
H212   H     0.33335   0.06435   0.40057   0.00000  Uiso   1.00
H213   H     0.26905   0.93574   0.40057   0.00000  Uiso   1.00
H214   H     0.39765   0.00003   0.40057   0.00000  Uiso   1.00
H215   H     0.33333   0.13563   0.46639   0.00000  Uiso   1.00
H216   H     0.19776   0.86445   0.46639   0.00000  Uiso   1.00
H217   H     0.46893   0.00000   0.46639   0.00000  Uiso   1.00
N218   N     0.33334   0.12681   0.59739   0.00000  Uiso   1.00
N219   N     0.20659   0.87328   0.59739   0.00000  Uiso   1.00
N220   N     0.46010  -0.00000   0.59739   0.00000  Uiso   1.00
C221   C     0.99995   0.33331   0.57053   0.00000  Uiso   1.00
C222   C     0.96502   0.29837   0.65252   0.00000  Uiso   1.00
C223   C     0.93564   0.26900   0.55144   0.00000  Uiso   1.00
C224   C     0.90623   0.23958   0.65235   0.00000  Uiso   1.00
C225   C     0.03489   0.33331   0.65252   0.00000  Uiso   1.00
C226   C     0.06426   0.33331   0.55144   0.00000  Uiso   1.00
C227   C     0.09368   0.33331   0.65235   0.00000  Uiso   1.00
C228   C     0.99996   0.36825   0.65252   0.00000  Uiso   1.00
C229   C     0.99997   0.39763   0.55144   0.00000  Uiso   1.00
C230   C     0.99999   0.42705   0.65235   0.00000  Uiso   1.00
H231   H     0.99995   0.33331   0.41875   0.00000  Uiso   1.00
H232   H     0.93565   0.26900   0.40057   0.00000  Uiso   1.00
H233   H     0.06426   0.33331   0.40057   0.00000  Uiso   1.00
H234   H     0.99997   0.39762   0.40057   0.00000  Uiso   1.00
H235   H     0.86437   0.19770   0.46639   0.00000  Uiso   1.00
H236   H     0.13555   0.33331   0.46639   0.00000  Uiso   1.00
H237   H    -0.00000   0.46893   0.46639   0.00000  Uiso   1.00
N238   N     0.87319   0.20653   0.59739   0.00000  Uiso   1.00
N239   N     0.12672   0.33331   0.59739   0.00000  Uiso   1.00
N240   N     0.00000   0.46010   0.59739   0.00000  Uiso   1.00
C241   C     0.81468   0.66667   0.75000   0.00000  Uiso   1.00
C242   C     0.66669   0.81462   0.75000   0.00000  Uiso   1.00
C243   C     0.51869   0.51870   0.75000   0.00000  Uiso   1.00
O244   O     0.84461   0.66669   0.75000   0.00000  Uiso   1.00
O245   O     0.66669   0.84454   0.75000   0.00000  Uiso   1.00
O246   O     0.48877   0.48878   0.75000   0.00000  Uiso   1.00
C247   C     0.33333   0.14801   0.75000   0.00000  Uiso   1.00
C248   C     0.18538   0.85207   0.75000   0.00000  Uiso   1.00
C249   C     0.48130  -0.00001   0.75000   0.00000  Uiso   1.00
O250   O     0.33331   0.17792   0.75000   0.00000  Uiso   1.00
O251   O     0.15546   0.82215   0.75000   0.00000  Uiso   1.00
O252   O     0.51122   0.99999   0.75000   0.00000  Uiso   1.00
C253   C     0.85199   0.18532   0.75000   0.00000  Uiso   1.00
C254   C     0.14793   0.33331   0.75000   0.00000  Uiso   1.00
C255   C     0.00001   0.48131   0.75000   0.00000  Uiso   1.00
O256   O     0.82208   0.15539   0.75000   0.00000  Uiso   1.00
O257   O     0.17785   0.33331   0.75000   0.00000  Uiso   1.00
O258   O     0.00001   0.51123   0.75000   0.00000  Uiso   1.00
C259   C     0.18532   0.33333   0.25000   0.00000  Uiso   1.00
C260   C     0.33331   0.18538   0.25000   0.00000  Uiso   1.00
C261   C     0.48131   0.48130   0.25000   0.00000  Uiso   1.00
O262   O     0.15539   0.33331   0.25000   0.00000  Uiso   1.00
O263   O     0.33331   0.15546   0.25000   0.00000  Uiso   1.00
O264   O     0.51123   0.51122   0.25000   0.00000  Uiso   1.00
C265   C     0.66667   0.85199   0.25000   0.00000  Uiso   1.00
C266   C     0.81462   0.14793   0.25000   0.00000  Uiso   1.00
C267   C     0.51870   0.00001   0.25000   0.00000  Uiso   1.00
O268   O     0.66669   0.82208   0.25000   0.00000  Uiso   1.00
O269   O     0.84454   0.17785   0.25000   0.00000  Uiso   1.00
O270   O     0.48878   0.00001   0.25000   0.00000  Uiso   1.00
C271   C     0.14801   0.81468   0.25000   0.00000  Uiso   1.00
C272   C     0.85207   0.66669   0.25000   0.00000  Uiso   1.00
C273   C    -0.00001   0.51869   0.25000   0.00000  Uiso   1.00
O274   O     0.17792   0.84461   0.25000   0.00000  Uiso   1.00
O275   O     0.82215   0.66669   0.25000   0.00000  Uiso   1.00
O276   O     0.99999   0.48877   0.25000   0.00000  Uiso   1.00
