data_job_06080
_audit_creation_date              2018-12-19
_audit_creation_method            'Materials Studio'
_symmetry_space_group_name_H-M    'P1'
_symmetry_Int_Tables_number       1
_symmetry_cell_setting            triclinic
loop_
_symmetry_equiv_pos_as_xyz
  x,y,z
_cell_length_a                    15.5982
_cell_length_b                    16.1684
_cell_length_c                    16.7382
_cell_angle_alpha                 110.3254
_cell_angle_beta                  110.4010
_cell_angle_gamma                 102.9894
loop_
_atom_site_label
_atom_site_type_symbol
_atom_site_fract_x
_atom_site_fract_y
_atom_site_fract_z
_atom_site_U_iso_or_equiv
_atom_site_adp_type
_atom_site_occupancy
C1     C     0.11675   0.99418   0.64400   0.00000  Uiso   1.00
C2     C     0.21797   0.07101   0.72465   0.00000  Uiso   1.00
C3     C     0.24335   0.16934   0.76400   0.00000  Uiso   1.00
C4     C     0.33976   0.22770   0.83722   0.00000  Uiso   1.00
C5     C     0.48651   0.35288   0.95744   0.00000  Uiso   1.00
C6     C     0.13644   0.93377   0.56478   0.00000  Uiso   1.00
C7     C     0.09325   0.91671   0.46971   0.00000  Uiso   1.00
C8     C     0.12102   0.85953   0.40835   0.00000  Uiso   1.00
C9     C     0.14114   0.77159   0.28036   0.00000  Uiso   1.00
C10    C     0.08227   0.92895   0.68373   0.00000  Uiso   1.00
C11    C     0.99353   0.90780   0.68865   0.00000  Uiso   1.00
C12    C     0.97568   0.84654   0.72742   0.00000  Uiso   1.00
C13    C     0.91169   0.75112   0.78411   0.00000  Uiso   1.00
C14    C     0.24284   0.92296   0.70406   0.00000  Uiso   1.00
C15    C     0.28645   0.03232   0.75727   0.00000  Uiso   1.00
C16    C     0.38284   0.09055   0.83044   0.00000  Uiso   1.00
C17    C     0.40836   0.18895   0.86990   0.00000  Uiso   1.00
C18    C     0.20492   0.89509   0.59740   0.00000  Uiso   1.00
C19    C     0.23275   0.83792   0.53616   0.00000  Uiso   1.00
C20    C     0.18963   0.82078   0.44102   0.00000  Uiso   1.00
C21    C     0.15075   0.89027   0.71635   0.00000  Uiso   1.00
C22    C     0.13303   0.82902   0.75510   0.00000  Uiso   1.00
C23    C     0.04429   0.80779   0.76009   0.00000  Uiso   1.00
H24    H     0.06343   0.02429   0.61860   0.00000  Uiso   1.00
H25    H     0.19033   0.19925   0.73873   0.00000  Uiso   1.00
H26    H     0.04025   0.94664   0.44449   0.00000  Uiso   1.00
H27    H     0.94055   0.93775   0.66340   0.00000  Uiso   1.00
H28    H     0.36123   0.37616   0.88627   0.00000  Uiso   1.00
H29    H     0.04475   0.84351   0.26584   0.00000  Uiso   1.00
H30    H     0.83450   0.82475   0.72746   0.00000  Uiso   1.00
H31    H     0.29616   0.89285   0.72945   0.00000  Uiso   1.00
H32    H     0.43583   0.06060   0.85567   0.00000  Uiso   1.00
H33    H     0.28574   0.80800   0.56142   0.00000  Uiso   1.00
H34    H     0.18604   0.79910   0.78034   0.00000  Uiso   1.00
H35    H     0.56048   0.26363   0.98119   0.00000  Uiso   1.00
H36    H     0.24400   0.73098   0.36075   0.00000  Uiso   1.00
H37    H     0.03376   0.71222   0.82237   0.00000  Uiso   1.00
O38    O     0.54854   0.43262   0.01474   0.00000  Uiso   1.00
O39    O     0.13332   0.73379   0.20075   0.00000  Uiso   1.00
O40    O     0.85749   0.70918   0.80639   0.00000  Uiso   1.00
N41    N     0.38895   0.32665   0.89131   0.00000  Uiso   1.00
N42    N     0.09307   0.82867   0.31124   0.00000  Uiso   1.00
N43    N     0.89650   0.81111   0.74279   0.00000  Uiso   1.00
N44    N     0.49617   0.26610   0.94238   0.00000  Uiso   1.00
N45    N     0.20029   0.76812   0.36231   0.00000  Uiso   1.00
N46    N     0.00372   0.75056   0.79386   0.00000  Uiso   1.00
C47    C     0.51074   0.86593   0.87377   0.00000  Uiso   1.00
C48    C     0.49161   0.84396   0.77138   0.00000  Uiso   1.00
C49    C     0.49253   0.90904   0.73491   0.00000  Uiso   1.00
C50    C     0.47322   0.87488   0.63940   0.00000  Uiso   1.00
C51    C     0.44644   0.85532   0.48905   0.00000  Uiso   1.00
C52    C     0.41946   0.79554   0.86385   0.00000  Uiso   1.00
C53    C     0.35973   0.81992   0.90515   0.00000  Uiso   1.00
C54    C     0.27970   0.74498   0.88749   0.00000  Uiso   1.00
C55    C     0.14095   0.65026   0.88078   0.00000  Uiso   1.00
C56    C     0.59651   0.83739   0.91428   0.00000  Uiso   1.00
C57    C     0.68564   0.89696   0.99799   0.00000  Uiso   1.00
C58    C     0.75466   0.85725   0.02280   0.00000  Uiso   1.00
C59    C     0.89082   0.82751   0.09438   0.00000  Uiso   1.00
C60    C     0.47482   0.68950   0.76900   0.00000  Uiso   1.00
C61    C     0.47210   0.74812   0.71447   0.00000  Uiso   1.00
C62    C     0.45279   0.71385   0.61899   0.00000  Uiso   1.00
C63    C     0.45368   0.77888   0.58239   0.00000  Uiso   1.00
C64    C     0.39996   0.69971   0.80695   0.00000  Uiso   1.00
C65    C     0.32000   0.62472   0.78924   0.00000  Uiso   1.00
C66    C     0.26016   0.64898   0.83049   0.00000  Uiso   1.00
C67    C     0.57701   0.74156   0.85737   0.00000  Uiso   1.00
C68    C     0.64591   0.70176   0.88207   0.00000  Uiso   1.00
C69    C     0.73512   0.76125   0.96580   0.00000  Uiso   1.00
H70    H     0.52592   0.94053   0.91807   0.00000  Uiso   1.00
H71    H     0.50761   0.98320   0.77897   0.00000  Uiso   1.00
H72    H     0.37485   0.89408   0.94919   0.00000  Uiso   1.00
H73    H     0.70071   0.97111   0.04201   0.00000  Uiso   1.00
H74    H     0.47868   0.98823   0.59964   0.00000  Uiso   1.00
H75    H     0.19876   0.80032   0.95859   0.00000  Uiso   1.00
H76    H     0.88590   0.96275   0.15432   0.00000  Uiso   1.00
H77    H     0.45964   0.61489   0.72470   0.00000  Uiso   1.00
H78    H     0.43770   0.63969   0.57498   0.00000  Uiso   1.00
H79    H     0.30493   0.55057   0.74520   0.00000  Uiso   1.00
H80    H     0.63079   0.62760   0.83802   0.00000  Uiso   1.00
H81    H     0.42193   0.70942   0.43407   0.00000  Uiso   1.00
H82    H     0.14201   0.52152   0.79302   0.00000  Uiso   1.00
H83    H     0.82914   0.68394   0.98875   0.00000  Uiso   1.00
O84    O     0.43704   0.87100   0.42184   0.00000  Uiso   1.00
O85    O     0.06981   0.62448   0.89279   0.00000  Uiso   1.00
O86    O     0.97131   0.83758   0.14957   0.00000  Uiso   1.00
N87    N     0.46836   0.91921   0.58122   0.00000  Uiso   1.00
N88    N     0.20664   0.74353   0.91681   0.00000  Uiso   1.00
N89    N     0.84904   0.89538   0.09981   0.00000  Uiso   1.00
N90    N     0.43782   0.76919   0.49213   0.00000  Uiso   1.00
N91    N     0.17610   0.59351   0.82772   0.00000  Uiso   1.00
N92    N     0.81850   0.74536   0.01072   0.00000  Uiso   1.00
C93    C     0.35392   0.34459   0.47714   0.00000  Uiso   1.00
C94    C     0.26560   0.34338   0.49718   0.00000  Uiso   1.00
C95    C     0.21356   0.40148   0.48727   0.00000  Uiso   1.00
C96    C     0.13505   0.38938   0.50918   0.00000  Uiso   1.00
C97    C     0.00182   0.39784   0.53567   0.00000  Uiso   1.00
C98    C     0.43863   0.36247   0.56987   0.00000  Uiso   1.00
C99    C     0.53208   0.43661   0.62105   0.00000  Uiso   1.00
C100   C     0.59924   0.44057   0.70414   0.00000  Uiso   1.00
C101   C     0.73467   0.47863   0.84344   0.00000  Uiso   1.00
C102   C     0.32539   0.24242   0.40313   0.00000  Uiso   1.00
C103   C     0.32366   0.21562   0.31412   0.00000  Uiso   1.00
C104   C     0.29550   0.11852   0.25684   0.00000  Uiso   1.00
C105   C     0.25511   0.97018   0.13725   0.00000  Uiso   1.00
C106   C     0.30702   0.21980   0.53368   0.00000  Uiso   1.00
C107   C     0.24013   0.27559   0.52790   0.00000  Uiso   1.00
C108   C     0.16168   0.26340   0.54982   0.00000  Uiso   1.00
C109   C     0.10953   0.32147   0.53994   0.00000  Uiso   1.00
C110   C     0.41316   0.29469   0.60058   0.00000  Uiso   1.00
C111   C     0.48020   0.29854   0.68361   0.00000  Uiso   1.00
C112   C     0.57372   0.37267   0.73491   0.00000  Uiso   1.00
C113   C     0.29992   0.17463   0.43384   0.00000  Uiso   1.00
C114   C     0.27177   0.07755   0.37668   0.00000  Uiso   1.00
C115   C     0.26999   0.05061   0.28761   0.00000  Uiso   1.00
H116   H     0.37375   0.39737   0.45324   0.00000  Uiso   1.00
H117   H     0.23330   0.45393   0.46351   0.00000  Uiso   1.00
H118   H     0.55177   0.48905   0.59726   0.00000  Uiso   1.00
H119   H     0.34338   0.26810   0.29038   0.00000  Uiso   1.00
H120   H     0.06637   0.48677   0.48847   0.00000  Uiso   1.00
H121   H     0.73790   0.56080   0.77049   0.00000  Uiso   1.00
H122   H     0.29846   0.09489   0.12337   0.00000  Uiso   1.00
H123   H     0.28720   0.16702   0.55759   0.00000  Uiso   1.00
H124   H     0.14198   0.21094   0.57359   0.00000  Uiso   1.00
H125   H     0.46046   0.24607   0.70735   0.00000  Uiso   1.00
H126   H     0.25207   0.02512   0.40047   0.00000  Uiso   1.00
H127   H     0.99226   0.28956   0.57782   0.00000  Uiso   1.00
H128   H     0.66379   0.36359   0.85984   0.00000  Uiso   1.00
H129   H     0.22435   0.89767   0.21272   0.00000  Uiso   1.00
O130   O     0.93538   0.42124   0.54182   0.00000  Uiso   1.00
O131   O     0.81640   0.51835   0.91180   0.00000  Uiso   1.00
O132   O     0.23986   0.90709   0.06280   0.00000  Uiso   1.00
N133   N     0.06884   0.43432   0.50729   0.00000  Uiso   1.00
N134   N     0.69668   0.50354   0.77096   0.00000  Uiso   1.00
N135   N     0.28586   0.06795   0.16597   0.00000  Uiso   1.00
N136   N     0.02897   0.32820   0.55536   0.00000  Uiso   1.00
N137   N     0.65680   0.39742   0.81904   0.00000  Uiso   1.00
N138   N     0.24599   0.96183   0.21405   0.00000  Uiso   1.00
C139   C     0.88325   0.00582   0.35600   0.00000  Uiso   1.00
C140   C     0.78203   0.92899   0.27535   0.00000  Uiso   1.00
C141   C     0.75665   0.83066   0.23600   0.00000  Uiso   1.00
C142   C     0.66024   0.77230   0.16278   0.00000  Uiso   1.00
C143   C     0.51349   0.64712   0.04256   0.00000  Uiso   1.00
C144   C     0.86356   0.06623   0.43522   0.00000  Uiso   1.00
C145   C     0.90675   0.08329   0.53029   0.00000  Uiso   1.00
C146   C     0.87898   0.14047   0.59165   0.00000  Uiso   1.00
C147   C     0.85886   0.22841   0.71964   0.00000  Uiso   1.00
C148   C     0.91773   0.07105   0.31627   0.00000  Uiso   1.00
C149   C     0.00647   0.09220   0.31135   0.00000  Uiso   1.00
C150   C     0.02432   0.15346   0.27258   0.00000  Uiso   1.00
C151   C     0.08831   0.24888   0.21589   0.00000  Uiso   1.00
C152   C     0.75716   0.07704   0.29594   0.00000  Uiso   1.00
C153   C     0.71355   0.96768   0.24273   0.00000  Uiso   1.00
C154   C     0.61716   0.90945   0.16956   0.00000  Uiso   1.00
C155   C     0.59164   0.81105   0.13010   0.00000  Uiso   1.00
C156   C     0.79508   0.10491   0.40260   0.00000  Uiso   1.00
C157   C     0.76725   0.16208   0.46384   0.00000  Uiso   1.00
C158   C     0.81037   0.17922   0.55898   0.00000  Uiso   1.00
C159   C     0.84925   0.10973   0.28365   0.00000  Uiso   1.00
C160   C     0.86697   0.17098   0.24490   0.00000  Uiso   1.00
C161   C     0.95571   0.19221   0.23991   0.00000  Uiso   1.00
H162   H     0.93657   0.97571   0.38140   0.00000  Uiso   1.00
H163   H     0.80967   0.80076   0.26127   0.00000  Uiso   1.00
H164   H     0.95975   0.05336   0.55551   0.00000  Uiso   1.00
H165   H     0.05945   0.06225   0.33660   0.00000  Uiso   1.00
H166   H     0.63877   0.62384   0.11373   0.00000  Uiso   1.00
H167   H     0.95525   0.15649   0.73416   0.00000  Uiso   1.00
H168   H     0.16550   0.17525   0.27254   0.00000  Uiso   1.00
H169   H     0.70384   0.10715   0.27055   0.00000  Uiso   1.00
H170   H     0.56417   0.93940   0.14433   0.00000  Uiso   1.00
H171   H     0.71426   0.19201   0.43858   0.00000  Uiso   1.00
H172   H     0.81396   0.20090   0.21966   0.00000  Uiso   1.00
H173   H     0.43952   0.73637   0.01881   0.00000  Uiso   1.00
H174   H     0.75600   0.26902   0.63925   0.00000  Uiso   1.00
H175   H     0.96624   0.28778   0.17763   0.00000  Uiso   1.00
O176   O     0.45146   0.56738   0.98526   0.00000  Uiso   1.00
O177   O     0.86668   0.26621   0.79925   0.00000  Uiso   1.00
O178   O     0.14251   0.29082   0.19361   0.00000  Uiso   1.00
N179   N     0.61105   0.67335   0.10869   0.00000  Uiso   1.00
N180   N     0.90693   0.17133   0.68876   0.00000  Uiso   1.00
N181   N     0.10350   0.18889   0.25721   0.00000  Uiso   1.00
N182   N     0.50383   0.73390   0.05762   0.00000  Uiso   1.00
N183   N     0.79971   0.23188   0.63769   0.00000  Uiso   1.00
N184   N     0.99628   0.24944   0.20614   0.00000  Uiso   1.00
C185   C     0.48926   0.13407   0.12623   0.00000  Uiso   1.00
C186   C     0.50839   0.15604   0.22862   0.00000  Uiso   1.00
C187   C     0.50747   0.09096   0.26509   0.00000  Uiso   1.00
C188   C     0.52678   0.12512   0.36060   0.00000  Uiso   1.00
C189   C     0.55356   0.14468   0.51095   0.00000  Uiso   1.00
C190   C     0.58054   0.20447   0.13615   0.00000  Uiso   1.00
C191   C     0.64027   0.18008   0.09485   0.00000  Uiso   1.00
C192   C     0.72030   0.25502   0.11251   0.00000  Uiso   1.00
C193   C     0.85905   0.34975   0.11922   0.00000  Uiso   1.00
C194   C     0.40349   0.16261   0.08572   0.00000  Uiso   1.00
C195   C     0.31436   0.10304   0.00201   0.00000  Uiso   1.00
C196   C     0.24534   0.14275   0.97720   0.00000  Uiso   1.00
C197   C     0.10918   0.17249   0.90562   0.00000  Uiso   1.00
C198   C     0.52517   0.31050   0.23100   0.00000  Uiso   1.00
C199   C     0.52790   0.25188   0.28553   0.00000  Uiso   1.00
C200   C     0.54721   0.28615   0.38101   0.00000  Uiso   1.00
C201   C     0.54632   0.22112   0.41761   0.00000  Uiso   1.00
C202   C     0.60004   0.30029   0.19305   0.00000  Uiso   1.00
C203   C     0.68000   0.37528   0.21076   0.00000  Uiso   1.00
C204   C     0.73984   0.35102   0.16951   0.00000  Uiso   1.00
C205   C     0.42299   0.25844   0.14263   0.00000  Uiso   1.00
C206   C     0.35409   0.29824   0.11793   0.00000  Uiso   1.00
C207   C     0.26488   0.23875   0.03420   0.00000  Uiso   1.00
H208   H     0.47408   0.05947   0.08193   0.00000  Uiso   1.00
H209   H     0.49238   0.01680   0.22103   0.00000  Uiso   1.00
H210   H     0.62515   0.10592   0.05081   0.00000  Uiso   1.00
H211   H     0.29929   0.02889   0.95799   0.00000  Uiso   1.00
H212   H     0.52132   0.01177   0.40036   0.00000  Uiso   1.00
H213   H     0.80124   0.19968   0.04141   0.00000  Uiso   1.00
H214   H     0.11410   0.03725   0.84568   0.00000  Uiso   1.00
H215   H     0.54036   0.38511   0.27530   0.00000  Uiso   1.00
H216   H     0.56230   0.36031   0.42502   0.00000  Uiso   1.00
H217   H     0.69507   0.44943   0.25480   0.00000  Uiso   1.00
H218   H     0.36921   0.37240   0.16198   0.00000  Uiso   1.00
H219   H     0.57807   0.29058   0.56593   0.00000  Uiso   1.00
H220   H     0.85799   0.47848   0.20698   0.00000  Uiso   1.00
H221   H     0.17086   0.31606   0.01125   0.00000  Uiso   1.00
O222   O     0.56296   0.12900   0.57816   0.00000  Uiso   1.00
O223   O     0.93019   0.37552   0.10721   0.00000  Uiso   1.00
O224   O     0.02869   0.16242   0.85043   0.00000  Uiso   1.00
N225   N     0.53164   0.08079   0.41878   0.00000  Uiso   1.00
N226   N     0.79336   0.25647   0.08319   0.00000  Uiso   1.00
N227   N     0.15096   0.10462   0.90019   0.00000  Uiso   1.00
N228   N     0.56218   0.23081   0.50787   0.00000  Uiso   1.00
N229   N     0.82390   0.40649   0.17228   0.00000  Uiso   1.00
N230   N     0.18150   0.25464   0.98928   0.00000  Uiso   1.00
C231   C     0.64608   0.65541   0.52286   0.00000  Uiso   1.00
C232   C     0.73440   0.65662   0.50282   0.00000  Uiso   1.00
C233   C     0.78644   0.59853   0.51273   0.00000  Uiso   1.00
C234   C     0.86495   0.61062   0.49082   0.00000  Uiso   1.00
C235   C     0.99818   0.60216   0.46433   0.00000  Uiso   1.00
C236   C     0.56137   0.63753   0.43013   0.00000  Uiso   1.00
C237   C     0.46792   0.56339   0.37895   0.00000  Uiso   1.00
C238   C     0.40076   0.55943   0.29586   0.00000  Uiso   1.00
C239   C     0.26533   0.52137   0.15656   0.00000  Uiso   1.00
C240   C     0.67461   0.75758   0.59687   0.00000  Uiso   1.00
C241   C     0.67634   0.78438   0.68588   0.00000  Uiso   1.00
C242   C     0.70450   0.88148   0.74316   0.00000  Uiso   1.00
C243   C     0.74489   0.02982   0.86275   0.00000  Uiso   1.00
C244   C     0.69298   0.78021   0.46632   0.00000  Uiso   1.00
C245   C     0.75987   0.72441   0.47210   0.00000  Uiso   1.00
C246   C     0.83832   0.73660   0.45018   0.00000  Uiso   1.00
C247   C     0.89047   0.67853   0.46006   0.00000  Uiso   1.00
C248   C     0.58684   0.70531   0.39942   0.00000  Uiso   1.00
C249   C     0.51980   0.70146   0.31639   0.00000  Uiso   1.00
C250   C     0.42628   0.62733   0.26509   0.00000  Uiso   1.00
C251   C     0.70008   0.82537   0.56616   0.00000  Uiso   1.00
C252   C     0.72823   0.92245   0.62332   0.00000  Uiso   1.00
C253   C     0.73001   0.94939   0.71239   0.00000  Uiso   1.00
H254   H     0.62625   0.60263   0.54676   0.00000  Uiso   1.00
H255   H     0.76670   0.54607   0.53649   0.00000  Uiso   1.00
H256   H     0.44823   0.51095   0.40274   0.00000  Uiso   1.00
H257   H     0.65662   0.73190   0.70962   0.00000  Uiso   1.00
H258   H     0.93363   0.51323   0.51153   0.00000  Uiso   1.00
H259   H     0.26210   0.43920   0.22951   0.00000  Uiso   1.00
H260   H     0.70154   0.90511   0.87663   0.00000  Uiso   1.00
H261   H     0.71280   0.83298   0.44241   0.00000  Uiso   1.00
H262   H     0.85801   0.78906   0.42641   0.00000  Uiso   1.00
H263   H     0.53954   0.75394   0.29265   0.00000  Uiso   1.00
H264   H     0.74793   0.97488   0.59953   0.00000  Uiso   1.00
H265   H     0.00774   0.71044   0.42218   0.00000  Uiso   1.00
H266   H     0.33621   0.63641   0.14016   0.00000  Uiso   1.00
H267   H     0.77565   0.10233   0.78728   0.00000  Uiso   1.00
O268   O     0.06462   0.57876   0.45818   0.00000  Uiso   1.00
O269   O     0.18360   0.48165   0.08820   0.00000  Uiso   1.00
O270   O     0.76014   0.09291   0.93720   0.00000  Uiso   1.00
N271   N     0.93116   0.56568   0.49271   0.00000  Uiso   1.00
N272   N     0.30332   0.49646   0.22904   0.00000  Uiso   1.00
N273   N     0.71414   0.93205   0.83403   0.00000  Uiso   1.00
N274   N     0.97103   0.67180   0.44464   0.00000  Uiso   1.00
N275   N     0.34320   0.60258   0.18096   0.00000  Uiso   1.00
N276   N     0.75401   0.03817   0.78595   0.00000  Uiso   1.00
