data_job_03390
_audit_creation_date              2018-12-19
_audit_creation_method            'Materials Studio'
_symmetry_space_group_name_H-M    'P1'
_symmetry_Int_Tables_number       1
_symmetry_cell_setting            triclinic
loop_
_symmetry_equiv_pos_as_xyz
  x,y,z
_cell_length_a                    17.9905
_cell_length_b                    16.2382
_cell_length_c                    24.3089
_cell_angle_alpha                 90.0000
_cell_angle_beta                  90.0000
_cell_angle_gamma                 90.0000
loop_
_atom_site_label
_atom_site_type_symbol
_atom_site_fract_x
_atom_site_fract_y
_atom_site_fract_z
_atom_site_U_iso_or_equiv
_atom_site_adp_type
_atom_site_occupancy
C1     C     0.98960   0.32075   0.51911   0.00000  Uiso   1.00
C2     C     0.01427   0.23225   0.52944   0.00000  Uiso   1.00
C3     C     0.08513   0.20120   0.52056   0.00000  Uiso   1.00
C4     C     0.09649   0.11856   0.53254   0.00000  Uiso   1.00
C5     C     0.14352   0.98869   0.54549   0.00000  Uiso   1.00
C6     C     0.92380   0.31546   0.47972   0.00000  Uiso   1.00
C7     C     0.91860   0.35439   0.42904   0.00000  Uiso   1.00
C8     C     0.85380   0.34181   0.39918   0.00000  Uiso   1.00
C9     C     0.76036   0.34118   0.33496   0.00000  Uiso   1.00
C10    C     0.95822   0.35180   0.57356   0.00000  Uiso   1.00
C11    C     0.98194   0.42130   0.60178   0.00000  Uiso   1.00
C12    C     0.94610   0.43931   0.65091   0.00000  Uiso   1.00
C13    C     0.90610   0.49510   0.73240   0.00000  Uiso   1.00
C14    C     0.88378   0.22919   0.55618   0.00000  Uiso   1.00
C15    C     0.95679   0.18252   0.54958   0.00000  Uiso   1.00
C16    C     0.96805   0.09990   0.56158   0.00000  Uiso   1.00
C17    C     0.03891   0.06873   0.55272   0.00000  Uiso   1.00
C18    C     0.86632   0.26573   0.49986   0.00000  Uiso   1.00
C19    C     0.80152   0.25309   0.47006   0.00000  Uiso   1.00
C20    C     0.79622   0.29198   0.41935   0.00000  Uiso   1.00
C21    C     0.90074   0.30207   0.59370   0.00000  Uiso   1.00
C22    C     0.86486   0.31999   0.64280   0.00000  Uiso   1.00
C23    C     0.88852   0.38949   0.67109   0.00000  Uiso   1.00
H24    H     0.03435   0.35947   0.50343   0.00000  Uiso   1.00
H25    H     0.12960   0.23971   0.50497   0.00000  Uiso   1.00
H26    H     0.96309   0.39288   0.41347   0.00000  Uiso   1.00
H27    H     0.02642   0.45977   0.58618   0.00000  Uiso   1.00
H28    H     0.20983   0.08499   0.51554   0.00000  Uiso   1.00
H29    H     0.85873   0.40798   0.32262   0.00000  Uiso   1.00
H30    H     0.99228   0.54903   0.68681   0.00000  Uiso   1.00
H31    H     0.83902   0.19047   0.57186   0.00000  Uiso   1.00
H32    H     0.92355   0.06143   0.57716   0.00000  Uiso   1.00
H33    H     0.75705   0.21460   0.48566   0.00000  Uiso   1.00
H34    H     0.82038   0.28149   0.65837   0.00000  Uiso   1.00
H35    H     0.04260   0.94028   0.57413   0.00000  Uiso   1.00
H36    H     0.69150   0.26329   0.38121   0.00000  Uiso   1.00
H37    H     0.82505   0.40433   0.74541   0.00000  Uiso   1.00
O38    O     0.18534   0.93079   0.54707   0.00000  Uiso   1.00
O39    O     0.72471   0.35456   0.29397   0.00000  Uiso   1.00
O40    O     0.89992   0.53961   0.77178   0.00000  Uiso   1.00
N41    N     0.15888   0.06864   0.52861   0.00000  Uiso   1.00
N42    N     0.83063   0.37062   0.34824   0.00000  Uiso   1.00
N43    N     0.95547   0.50249   0.68872   0.00000  Uiso   1.00
N44    N     0.06889   0.99078   0.56014   0.00000  Uiso   1.00
N45    N     0.74064   0.29275   0.37977   0.00000  Uiso   1.00
N46    N     0.86548   0.42463   0.72025   0.00000  Uiso   1.00
C47    C     0.51040   0.67925   0.51911   0.00000  Uiso   1.00
C48    C     0.48573   0.76775   0.52944   0.00000  Uiso   1.00
C49    C     0.41487   0.79880   0.52056   0.00000  Uiso   1.00
C50    C     0.40351   0.88144   0.53254   0.00000  Uiso   1.00
C51    C     0.35648   0.01131   0.54549   0.00000  Uiso   1.00
C52    C     0.57620   0.68454   0.47972   0.00000  Uiso   1.00
C53    C     0.58140   0.64561   0.42904   0.00000  Uiso   1.00
C54    C     0.64620   0.65819   0.39918   0.00000  Uiso   1.00
C55    C     0.73964   0.65882   0.33496   0.00000  Uiso   1.00
C56    C     0.54178   0.64820   0.57356   0.00000  Uiso   1.00
C57    C     0.51806   0.57870   0.60178   0.00000  Uiso   1.00
C58    C     0.55390   0.56069   0.65091   0.00000  Uiso   1.00
C59    C     0.59390   0.50490   0.73240   0.00000  Uiso   1.00
C60    C     0.61622   0.77081   0.55618   0.00000  Uiso   1.00
C61    C     0.54321   0.81748   0.54958   0.00000  Uiso   1.00
C62    C     0.53195   0.90010   0.56158   0.00000  Uiso   1.00
C63    C     0.46109   0.93127   0.55272   0.00000  Uiso   1.00
C64    C     0.63368   0.73427   0.49986   0.00000  Uiso   1.00
C65    C     0.69848   0.74691   0.47006   0.00000  Uiso   1.00
C66    C     0.70378   0.70802   0.41935   0.00000  Uiso   1.00
C67    C     0.59926   0.69793   0.59370   0.00000  Uiso   1.00
C68    C     0.63514   0.68001   0.64280   0.00000  Uiso   1.00
C69    C     0.61148   0.61051   0.67109   0.00000  Uiso   1.00
H70    H     0.46565   0.64053   0.50343   0.00000  Uiso   1.00
H71    H     0.37040   0.76029   0.50497   0.00000  Uiso   1.00
H72    H     0.53691   0.60712   0.41347   0.00000  Uiso   1.00
H73    H     0.47358   0.54023   0.58618   0.00000  Uiso   1.00
H74    H     0.29017   0.91501   0.51554   0.00000  Uiso   1.00
H75    H     0.64127   0.59202   0.32262   0.00000  Uiso   1.00
H76    H     0.50772   0.45097   0.68681   0.00000  Uiso   1.00
H77    H     0.66098   0.80953   0.57186   0.00000  Uiso   1.00
H78    H     0.57645   0.93857   0.57716   0.00000  Uiso   1.00
H79    H     0.74295   0.78540   0.48566   0.00000  Uiso   1.00
H80    H     0.67962   0.71851   0.65837   0.00000  Uiso   1.00
H81    H     0.45740   0.05972   0.57413   0.00000  Uiso   1.00
H82    H     0.80850   0.73671   0.38121   0.00000  Uiso   1.00
H83    H     0.67495   0.59567   0.74541   0.00000  Uiso   1.00
O84    O     0.31466   0.06921   0.54707   0.00000  Uiso   1.00
O85    O     0.77529   0.64544   0.29397   0.00000  Uiso   1.00
O86    O     0.60008   0.46039   0.77178   0.00000  Uiso   1.00
N87    N     0.34112   0.93136   0.52861   0.00000  Uiso   1.00
N88    N     0.66937   0.62938   0.34824   0.00000  Uiso   1.00
N89    N     0.54453   0.49751   0.68872   0.00000  Uiso   1.00
N90    N     0.43111   0.00922   0.56014   0.00000  Uiso   1.00
N91    N     0.75936   0.70725   0.37977   0.00000  Uiso   1.00
N92    N     0.63452   0.57537   0.72025   0.00000  Uiso   1.00
C93    C     0.01040   0.32075   0.98089   0.00000  Uiso   1.00
C94    C     0.98573   0.23225   0.97056   0.00000  Uiso   1.00
C95    C     0.91487   0.20120   0.97944   0.00000  Uiso   1.00
C96    C     0.90351   0.11856   0.96746   0.00000  Uiso   1.00
C97    C     0.85648   0.98869   0.95451   0.00000  Uiso   1.00
C98    C     0.07620   0.31546   0.02028   0.00000  Uiso   1.00
C99    C     0.08140   0.35439   0.07096   0.00000  Uiso   1.00
C100   C     0.14620   0.34181   0.10082   0.00000  Uiso   1.00
C101   C     0.23964   0.34118   0.16504   0.00000  Uiso   1.00
C102   C     0.04178   0.35180   0.92644   0.00000  Uiso   1.00
C103   C     0.01806   0.42130   0.89822   0.00000  Uiso   1.00
C104   C     0.05390   0.43931   0.84909   0.00000  Uiso   1.00
C105   C     0.09390   0.49510   0.76760   0.00000  Uiso   1.00
C106   C     0.11622   0.22919   0.94382   0.00000  Uiso   1.00
C107   C     0.04321   0.18252   0.95042   0.00000  Uiso   1.00
C108   C     0.03195   0.09990   0.93842   0.00000  Uiso   1.00
C109   C     0.96109   0.06873   0.94728   0.00000  Uiso   1.00
C110   C     0.13368   0.26573   0.00014   0.00000  Uiso   1.00
C111   C     0.19848   0.25309   0.02994   0.00000  Uiso   1.00
C112   C     0.20378   0.29198   0.08065   0.00000  Uiso   1.00
C113   C     0.09926   0.30207   0.90630   0.00000  Uiso   1.00
C114   C     0.13514   0.31999   0.85720   0.00000  Uiso   1.00
C115   C     0.11148   0.38949   0.82891   0.00000  Uiso   1.00
H116   H     0.96565   0.35947   0.99657   0.00000  Uiso   1.00
H117   H     0.87040   0.23971   0.99503   0.00000  Uiso   1.00
H118   H     0.03691   0.39288   0.08653   0.00000  Uiso   1.00
H119   H     0.97358   0.45977   0.91382   0.00000  Uiso   1.00
H120   H     0.79017   0.08499   0.98446   0.00000  Uiso   1.00
H121   H     0.14127   0.40798   0.17738   0.00000  Uiso   1.00
H122   H     0.00772   0.54903   0.81319   0.00000  Uiso   1.00
H123   H     0.16098   0.19047   0.92814   0.00000  Uiso   1.00
H124   H     0.07645   0.06143   0.92284   0.00000  Uiso   1.00
H125   H     0.24295   0.21460   0.01434   0.00000  Uiso   1.00
H126   H     0.17962   0.28149   0.84163   0.00000  Uiso   1.00
H127   H     0.95740   0.94028   0.92587   0.00000  Uiso   1.00
H128   H     0.30850   0.26329   0.11879   0.00000  Uiso   1.00
H129   H     0.17495   0.40433   0.75459   0.00000  Uiso   1.00
O130   O     0.81466   0.93079   0.95293   0.00000  Uiso   1.00
O131   O     0.27529   0.35456   0.20603   0.00000  Uiso   1.00
O132   O     0.10008   0.53961   0.72822   0.00000  Uiso   1.00
N133   N     0.84112   0.06864   0.97139   0.00000  Uiso   1.00
N134   N     0.16937   0.37062   0.15176   0.00000  Uiso   1.00
N135   N     0.04453   0.50249   0.81128   0.00000  Uiso   1.00
N136   N     0.93111   0.99078   0.93986   0.00000  Uiso   1.00
N137   N     0.25936   0.29275   0.12023   0.00000  Uiso   1.00
N138   N     0.13452   0.42463   0.77975   0.00000  Uiso   1.00
C139   C     0.48960   0.67925   0.98089   0.00000  Uiso   1.00
C140   C     0.51427   0.76775   0.97056   0.00000  Uiso   1.00
C141   C     0.58513   0.79880   0.97944   0.00000  Uiso   1.00
C142   C     0.59649   0.88144   0.96746   0.00000  Uiso   1.00
C143   C     0.64352   0.01131   0.95451   0.00000  Uiso   1.00
C144   C     0.42380   0.68454   0.02028   0.00000  Uiso   1.00
C145   C     0.41860   0.64561   0.07096   0.00000  Uiso   1.00
C146   C     0.35380   0.65819   0.10082   0.00000  Uiso   1.00
C147   C     0.26036   0.65882   0.16504   0.00000  Uiso   1.00
C148   C     0.45822   0.64820   0.92644   0.00000  Uiso   1.00
C149   C     0.48194   0.57870   0.89822   0.00000  Uiso   1.00
C150   C     0.44610   0.56069   0.84909   0.00000  Uiso   1.00
C151   C     0.40610   0.50490   0.76760   0.00000  Uiso   1.00
C152   C     0.38378   0.77081   0.94382   0.00000  Uiso   1.00
C153   C     0.45679   0.81748   0.95042   0.00000  Uiso   1.00
C154   C     0.46805   0.90010   0.93842   0.00000  Uiso   1.00
C155   C     0.53891   0.93127   0.94728   0.00000  Uiso   1.00
C156   C     0.36632   0.73427   0.00014   0.00000  Uiso   1.00
C157   C     0.30152   0.74691   0.02994   0.00000  Uiso   1.00
C158   C     0.29622   0.70802   0.08065   0.00000  Uiso   1.00
C159   C     0.40074   0.69793   0.90630   0.00000  Uiso   1.00
C160   C     0.36486   0.68001   0.85720   0.00000  Uiso   1.00
C161   C     0.38852   0.61051   0.82891   0.00000  Uiso   1.00
H162   H     0.53435   0.64053   0.99657   0.00000  Uiso   1.00
H163   H     0.62960   0.76029   0.99503   0.00000  Uiso   1.00
H164   H     0.46309   0.60712   0.08653   0.00000  Uiso   1.00
H165   H     0.52642   0.54023   0.91382   0.00000  Uiso   1.00
H166   H     0.70983   0.91501   0.98446   0.00000  Uiso   1.00
H167   H     0.35873   0.59202   0.17738   0.00000  Uiso   1.00
H168   H     0.49228   0.45097   0.81319   0.00000  Uiso   1.00
H169   H     0.33902   0.80953   0.92814   0.00000  Uiso   1.00
H170   H     0.42355   0.93857   0.92284   0.00000  Uiso   1.00
H171   H     0.25705   0.78540   0.01434   0.00000  Uiso   1.00
H172   H     0.32038   0.71851   0.84163   0.00000  Uiso   1.00
H173   H     0.54260   0.05972   0.92587   0.00000  Uiso   1.00
H174   H     0.19150   0.73671   0.11879   0.00000  Uiso   1.00
H175   H     0.32505   0.59567   0.75459   0.00000  Uiso   1.00
O176   O     0.68534   0.06921   0.95293   0.00000  Uiso   1.00
O177   O     0.22471   0.64544   0.20603   0.00000  Uiso   1.00
O178   O     0.39992   0.46039   0.72822   0.00000  Uiso   1.00
N179   N     0.65888   0.93136   0.97139   0.00000  Uiso   1.00
N180   N     0.33063   0.62938   0.15176   0.00000  Uiso   1.00
N181   N     0.45547   0.49751   0.81128   0.00000  Uiso   1.00
N182   N     0.56889   0.00922   0.93986   0.00000  Uiso   1.00
N183   N     0.24064   0.70725   0.12023   0.00000  Uiso   1.00
N184   N     0.36548   0.57537   0.77975   0.00000  Uiso   1.00
C185   C     0.01040   0.67925   0.48089   0.00000  Uiso   1.00
C186   C     0.98573   0.76775   0.47056   0.00000  Uiso   1.00
C187   C     0.91487   0.79880   0.47944   0.00000  Uiso   1.00
C188   C     0.90351   0.88144   0.46746   0.00000  Uiso   1.00
C189   C     0.85648   0.01131   0.45451   0.00000  Uiso   1.00
C190   C     0.07620   0.68454   0.52028   0.00000  Uiso   1.00
C191   C     0.08140   0.64561   0.57096   0.00000  Uiso   1.00
C192   C     0.14620   0.65819   0.60082   0.00000  Uiso   1.00
C193   C     0.23964   0.65882   0.66504   0.00000  Uiso   1.00
C194   C     0.04178   0.64820   0.42644   0.00000  Uiso   1.00
C195   C     0.01806   0.57870   0.39822   0.00000  Uiso   1.00
C196   C     0.05390   0.56069   0.34909   0.00000  Uiso   1.00
C197   C     0.09390   0.50490   0.26760   0.00000  Uiso   1.00
C198   C     0.11622   0.77081   0.44382   0.00000  Uiso   1.00
C199   C     0.04321   0.81748   0.45042   0.00000  Uiso   1.00
C200   C     0.03195   0.90010   0.43842   0.00000  Uiso   1.00
C201   C     0.96109   0.93127   0.44728   0.00000  Uiso   1.00
C202   C     0.13368   0.73427   0.50014   0.00000  Uiso   1.00
C203   C     0.19848   0.74691   0.52994   0.00000  Uiso   1.00
C204   C     0.20378   0.70802   0.58065   0.00000  Uiso   1.00
C205   C     0.09926   0.69793   0.40630   0.00000  Uiso   1.00
C206   C     0.13514   0.68001   0.35720   0.00000  Uiso   1.00
C207   C     0.11148   0.61051   0.32891   0.00000  Uiso   1.00
H208   H     0.96565   0.64053   0.49657   0.00000  Uiso   1.00
H209   H     0.87040   0.76029   0.49503   0.00000  Uiso   1.00
H210   H     0.03691   0.60712   0.58653   0.00000  Uiso   1.00
H211   H     0.97358   0.54023   0.41382   0.00000  Uiso   1.00
H212   H     0.79017   0.91501   0.48446   0.00000  Uiso   1.00
H213   H     0.14127   0.59202   0.67738   0.00000  Uiso   1.00
H214   H     0.00772   0.45097   0.31319   0.00000  Uiso   1.00
H215   H     0.16098   0.80953   0.42814   0.00000  Uiso   1.00
H216   H     0.07645   0.93857   0.42284   0.00000  Uiso   1.00
H217   H     0.24295   0.78540   0.51434   0.00000  Uiso   1.00
H218   H     0.17962   0.71851   0.34163   0.00000  Uiso   1.00
H219   H     0.95740   0.05972   0.42587   0.00000  Uiso   1.00
H220   H     0.30850   0.73671   0.61879   0.00000  Uiso   1.00
H221   H     0.17495   0.59567   0.25459   0.00000  Uiso   1.00
O222   O     0.81466   0.06921   0.45293   0.00000  Uiso   1.00
O223   O     0.27529   0.64544   0.70603   0.00000  Uiso   1.00
O224   O     0.10008   0.46039   0.22822   0.00000  Uiso   1.00
N225   N     0.84112   0.93136   0.47139   0.00000  Uiso   1.00
N226   N     0.16937   0.62938   0.65176   0.00000  Uiso   1.00
N227   N     0.04453   0.49751   0.31128   0.00000  Uiso   1.00
N228   N     0.93111   0.00922   0.43986   0.00000  Uiso   1.00
N229   N     0.25936   0.70725   0.62023   0.00000  Uiso   1.00
N230   N     0.13452   0.57537   0.27975   0.00000  Uiso   1.00
C231   C     0.48960   0.32075   0.48089   0.00000  Uiso   1.00
C232   C     0.51427   0.23225   0.47056   0.00000  Uiso   1.00
C233   C     0.58513   0.20120   0.47944   0.00000  Uiso   1.00
C234   C     0.59649   0.11856   0.46746   0.00000  Uiso   1.00
C235   C     0.64352   0.98869   0.45451   0.00000  Uiso   1.00
C236   C     0.42380   0.31546   0.52028   0.00000  Uiso   1.00
C237   C     0.41860   0.35439   0.57096   0.00000  Uiso   1.00
C238   C     0.35380   0.34181   0.60082   0.00000  Uiso   1.00
C239   C     0.26036   0.34118   0.66504   0.00000  Uiso   1.00
C240   C     0.45822   0.35180   0.42644   0.00000  Uiso   1.00
C241   C     0.48194   0.42130   0.39822   0.00000  Uiso   1.00
C242   C     0.44610   0.43931   0.34909   0.00000  Uiso   1.00
C243   C     0.40610   0.49510   0.26760   0.00000  Uiso   1.00
C244   C     0.38378   0.22919   0.44382   0.00000  Uiso   1.00
C245   C     0.45679   0.18252   0.45042   0.00000  Uiso   1.00
C246   C     0.46805   0.09990   0.43842   0.00000  Uiso   1.00
C247   C     0.53891   0.06873   0.44728   0.00000  Uiso   1.00
C248   C     0.36632   0.26573   0.50014   0.00000  Uiso   1.00
C249   C     0.30152   0.25309   0.52994   0.00000  Uiso   1.00
C250   C     0.29622   0.29198   0.58065   0.00000  Uiso   1.00
C251   C     0.40074   0.30207   0.40630   0.00000  Uiso   1.00
C252   C     0.36486   0.31999   0.35720   0.00000  Uiso   1.00
C253   C     0.38852   0.38949   0.32891   0.00000  Uiso   1.00
H254   H     0.53435   0.35947   0.49657   0.00000  Uiso   1.00
H255   H     0.62960   0.23971   0.49503   0.00000  Uiso   1.00
H256   H     0.46309   0.39288   0.58653   0.00000  Uiso   1.00
H257   H     0.52642   0.45977   0.41382   0.00000  Uiso   1.00
H258   H     0.70983   0.08499   0.48446   0.00000  Uiso   1.00
H259   H     0.35873   0.40798   0.67738   0.00000  Uiso   1.00
H260   H     0.49228   0.54903   0.31319   0.00000  Uiso   1.00
H261   H     0.33902   0.19047   0.42814   0.00000  Uiso   1.00
H262   H     0.42355   0.06143   0.42284   0.00000  Uiso   1.00
H263   H     0.25705   0.21460   0.51434   0.00000  Uiso   1.00
H264   H     0.32038   0.28149   0.34163   0.00000  Uiso   1.00
H265   H     0.54260   0.94028   0.42587   0.00000  Uiso   1.00
H266   H     0.19150   0.26329   0.61879   0.00000  Uiso   1.00
H267   H     0.32505   0.40433   0.25459   0.00000  Uiso   1.00
O268   O     0.68534   0.93079   0.45293   0.00000  Uiso   1.00
O269   O     0.22471   0.35456   0.70603   0.00000  Uiso   1.00
O270   O     0.39992   0.53961   0.22822   0.00000  Uiso   1.00
N271   N     0.65888   0.06864   0.47139   0.00000  Uiso   1.00
N272   N     0.33063   0.37062   0.65176   0.00000  Uiso   1.00
N273   N     0.45547   0.50249   0.31128   0.00000  Uiso   1.00
N274   N     0.56889   0.99078   0.43986   0.00000  Uiso   1.00
N275   N     0.24064   0.29275   0.62023   0.00000  Uiso   1.00
N276   N     0.36548   0.42463   0.27975   0.00000  Uiso   1.00
C277   C     0.98960   0.67925   0.01911   0.00000  Uiso   1.00
C278   C     0.01427   0.76775   0.02944   0.00000  Uiso   1.00
C279   C     0.08513   0.79880   0.02056   0.00000  Uiso   1.00
C280   C     0.09649   0.88144   0.03254   0.00000  Uiso   1.00
C281   C     0.14352   0.01131   0.04549   0.00000  Uiso   1.00
C282   C     0.92380   0.68454   0.97972   0.00000  Uiso   1.00
C283   C     0.91860   0.64561   0.92904   0.00000  Uiso   1.00
C284   C     0.85380   0.65819   0.89918   0.00000  Uiso   1.00
C285   C     0.76036   0.65882   0.83496   0.00000  Uiso   1.00
C286   C     0.95822   0.64820   0.07356   0.00000  Uiso   1.00
C287   C     0.98194   0.57870   0.10178   0.00000  Uiso   1.00
C288   C     0.94610   0.56069   0.15091   0.00000  Uiso   1.00
C289   C     0.90610   0.50490   0.23240   0.00000  Uiso   1.00
C290   C     0.88378   0.77081   0.05618   0.00000  Uiso   1.00
C291   C     0.95679   0.81748   0.04958   0.00000  Uiso   1.00
C292   C     0.96805   0.90010   0.06158   0.00000  Uiso   1.00
C293   C     0.03891   0.93127   0.05272   0.00000  Uiso   1.00
C294   C     0.86632   0.73427   0.99986   0.00000  Uiso   1.00
C295   C     0.80152   0.74691   0.97006   0.00000  Uiso   1.00
C296   C     0.79622   0.70802   0.91935   0.00000  Uiso   1.00
C297   C     0.90074   0.69793   0.09370   0.00000  Uiso   1.00
C298   C     0.86486   0.68001   0.14280   0.00000  Uiso   1.00
C299   C     0.88852   0.61051   0.17109   0.00000  Uiso   1.00
H300   H     0.03435   0.64053   0.00343   0.00000  Uiso   1.00
H301   H     0.12960   0.76029   0.00497   0.00000  Uiso   1.00
H302   H     0.96309   0.60712   0.91347   0.00000  Uiso   1.00
H303   H     0.02642   0.54023   0.08618   0.00000  Uiso   1.00
H304   H     0.20983   0.91501   0.01554   0.00000  Uiso   1.00
H305   H     0.85873   0.59202   0.82262   0.00000  Uiso   1.00
H306   H     0.99228   0.45097   0.18681   0.00000  Uiso   1.00
H307   H     0.83902   0.80953   0.07186   0.00000  Uiso   1.00
H308   H     0.92355   0.93857   0.07716   0.00000  Uiso   1.00
H309   H     0.75705   0.78540   0.98566   0.00000  Uiso   1.00
H310   H     0.82038   0.71851   0.15837   0.00000  Uiso   1.00
H311   H     0.04260   0.05972   0.07413   0.00000  Uiso   1.00
H312   H     0.69150   0.73671   0.88121   0.00000  Uiso   1.00
H313   H     0.82505   0.59567   0.24541   0.00000  Uiso   1.00
O314   O     0.18534   0.06921   0.04707   0.00000  Uiso   1.00
O315   O     0.72471   0.64544   0.79397   0.00000  Uiso   1.00
O316   O     0.89992   0.46039   0.27178   0.00000  Uiso   1.00
N317   N     0.15888   0.93136   0.02861   0.00000  Uiso   1.00
N318   N     0.83063   0.62938   0.84824   0.00000  Uiso   1.00
N319   N     0.95547   0.49751   0.18872   0.00000  Uiso   1.00
N320   N     0.06889   0.00922   0.06014   0.00000  Uiso   1.00
N321   N     0.74064   0.70725   0.87977   0.00000  Uiso   1.00
N322   N     0.86548   0.57537   0.22025   0.00000  Uiso   1.00
C323   C     0.51040   0.32075   0.01911   0.00000  Uiso   1.00
C324   C     0.48573   0.23225   0.02944   0.00000  Uiso   1.00
C325   C     0.41487   0.20120   0.02056   0.00000  Uiso   1.00
C326   C     0.40351   0.11856   0.03254   0.00000  Uiso   1.00
C327   C     0.35648   0.98869   0.04549   0.00000  Uiso   1.00
C328   C     0.57620   0.31546   0.97972   0.00000  Uiso   1.00
C329   C     0.58140   0.35439   0.92904   0.00000  Uiso   1.00
C330   C     0.64620   0.34181   0.89918   0.00000  Uiso   1.00
C331   C     0.73964   0.34118   0.83496   0.00000  Uiso   1.00
C332   C     0.54178   0.35180   0.07356   0.00000  Uiso   1.00
C333   C     0.51806   0.42130   0.10178   0.00000  Uiso   1.00
C334   C     0.55390   0.43931   0.15091   0.00000  Uiso   1.00
C335   C     0.59390   0.49510   0.23240   0.00000  Uiso   1.00
C336   C     0.61622   0.22919   0.05618   0.00000  Uiso   1.00
C337   C     0.54321   0.18252   0.04958   0.00000  Uiso   1.00
C338   C     0.53195   0.09990   0.06158   0.00000  Uiso   1.00
C339   C     0.46109   0.06873   0.05272   0.00000  Uiso   1.00
C340   C     0.63368   0.26573   0.99986   0.00000  Uiso   1.00
C341   C     0.69848   0.25309   0.97006   0.00000  Uiso   1.00
C342   C     0.70378   0.29198   0.91935   0.00000  Uiso   1.00
C343   C     0.59926   0.30207   0.09370   0.00000  Uiso   1.00
C344   C     0.63514   0.31999   0.14280   0.00000  Uiso   1.00
C345   C     0.61148   0.38949   0.17109   0.00000  Uiso   1.00
H346   H     0.46565   0.35947   0.00343   0.00000  Uiso   1.00
H347   H     0.37040   0.23971   0.00497   0.00000  Uiso   1.00
H348   H     0.53691   0.39288   0.91347   0.00000  Uiso   1.00
H349   H     0.47358   0.45977   0.08618   0.00000  Uiso   1.00
H350   H     0.29017   0.08499   0.01554   0.00000  Uiso   1.00
H351   H     0.64127   0.40798   0.82262   0.00000  Uiso   1.00
H352   H     0.50772   0.54903   0.18681   0.00000  Uiso   1.00
H353   H     0.66098   0.19047   0.07186   0.00000  Uiso   1.00
H354   H     0.57645   0.06143   0.07716   0.00000  Uiso   1.00
H355   H     0.74295   0.21460   0.98566   0.00000  Uiso   1.00
H356   H     0.67962   0.28149   0.15837   0.00000  Uiso   1.00
H357   H     0.45740   0.94028   0.07413   0.00000  Uiso   1.00
H358   H     0.80850   0.26329   0.88121   0.00000  Uiso   1.00
H359   H     0.67495   0.40433   0.24541   0.00000  Uiso   1.00
O360   O     0.31466   0.93079   0.04707   0.00000  Uiso   1.00
O361   O     0.77529   0.35456   0.79397   0.00000  Uiso   1.00
O362   O     0.60008   0.53961   0.27178   0.00000  Uiso   1.00
N363   N     0.34112   0.06864   0.02861   0.00000  Uiso   1.00
N364   N     0.66937   0.37062   0.84824   0.00000  Uiso   1.00
N365   N     0.54453   0.50249   0.18872   0.00000  Uiso   1.00
N366   N     0.43111   0.99078   0.06014   0.00000  Uiso   1.00
N367   N     0.75936   0.29275   0.87977   0.00000  Uiso   1.00
N368   N     0.63452   0.42463   0.22025   0.00000  Uiso   1.00
