data_job_02022
_audit_creation_date              2018-12-19
_audit_creation_method            'Materials Studio'
_symmetry_space_group_name_H-M    'P1'
_symmetry_Int_Tables_number       1
_symmetry_cell_setting            triclinic
loop_
_symmetry_equiv_pos_as_xyz
  x,y,z
_cell_length_a                    11.7955
_cell_length_b                    11.7955
_cell_length_c                    30.0760
_cell_angle_alpha                 90.0000
_cell_angle_beta                  90.0000
_cell_angle_gamma                 120.0000
loop_
_atom_site_label
_atom_site_type_symbol
_atom_site_fract_x
_atom_site_fract_y
_atom_site_fract_z
_atom_site_U_iso_or_equiv
_atom_site_adp_type
_atom_site_occupancy
C1     C     0.94549   0.49560   0.86722   0.00000  Uiso   1.00
C2     C     0.86357   0.39846   0.90342   0.00000  Uiso   1.00
C3     C     0.72862   0.31751   0.90272   0.00000  Uiso   1.00
C4     C     0.67203   0.23561   0.93905   0.00000  Uiso   1.00
C5     C     0.53329   0.08494   0.98984   0.00000  Uiso   1.00
C6     C     0.02123   0.62846   0.89005   0.00000  Uiso   1.00
C7     C     0.01886   0.74090   0.87809   0.00000  Uiso   1.00
C8     C     0.09501   0.85262   0.90315   0.00000  Uiso   1.00
C9     C     0.20112   0.05906   0.93315   0.00000  Uiso   1.00
C10    C     0.04725   0.45886   0.85325   0.00000  Uiso   1.00
C11    C     0.06679   0.42873   0.81035   0.00000  Uiso   1.00
C12    C     0.16488   0.39769   0.80443   0.00000  Uiso   1.00
C13    C     0.31139   0.34080   0.77730   0.00000  Uiso   1.00
C14    C     0.08496   0.49409   0.93298   0.00000  Uiso   1.00
C15    C     0.93932   0.39765   0.93914   0.00000  Uiso   1.00
C16    C     0.88292   0.31584   0.97548   0.00000  Uiso   1.00
C17    C     0.74791   0.23478   0.97483   0.00000  Uiso   1.00
C18    C     0.09698   0.62765   0.92576   0.00000  Uiso   1.00
C19    C     0.17316   0.73923   0.95085   0.00000  Uiso   1.00
C20    C     0.17090   0.85180   0.93893   0.00000  Uiso   1.00
C21    C     0.12300   0.45804   0.88897   0.00000  Uiso   1.00
C22    C     0.22108   0.42705   0.88311   0.00000  Uiso   1.00
C23    C     0.24076   0.39687   0.84021   0.00000  Uiso   1.00
H24    H     0.88652   0.49625   0.83941   0.00000  Uiso   1.00
H25    H     0.67003   0.31819   0.87507   0.00000  Uiso   1.00
H26    H     0.96024   0.74151   0.85044   0.00000  Uiso   1.00
H27    H     0.00816   0.42938   0.78272   0.00000  Uiso   1.00
H28    H     0.46341   0.12044   0.93038   0.00000  Uiso   1.00
H29    H     0.07537   0.01305   0.87843   0.00000  Uiso   1.00
H30    H     0.17641   0.35487   0.73561   0.00000  Uiso   1.00
H31    H     0.14393   0.49346   0.96079   0.00000  Uiso   1.00
H32    H     0.94156   0.31523   0.00312   0.00000  Uiso   1.00
H33    H     0.23177   0.73856   0.97848   0.00000  Uiso   1.00
H34    H     0.27968   0.42643   0.91076   0.00000  Uiso   1.00
H35    H     0.68380   0.11804   0.03430   0.00000  Uiso   1.00
H36    H     0.29575   0.01066   0.98235   0.00000  Uiso   1.00
H37    H     0.39679   0.35247   0.83954   0.00000  Uiso   1.00
O38    O     0.43583   0.00208   0.00800   0.00000  Uiso   1.00
O39    O     0.23871   0.17315   0.93984   0.00000  Uiso   1.00
O40    O     0.37126   0.30963   0.75247   0.00000  Uiso   1.00
N41    N     0.54306   0.14431   0.94902   0.00000  Uiso   1.00
N42    N     0.11518   0.97885   0.90046   0.00000  Uiso   1.00
N43    N     0.20967   0.36354   0.76694   0.00000  Uiso   1.00
N44    N     0.66164   0.14302   0.00494   0.00000  Uiso   1.00
N45    N     0.23377   0.97756   0.95638   0.00000  Uiso   1.00
N46    N     0.32826   0.36225   0.82286   0.00000  Uiso   1.00
C47    C     0.50440   0.44989   0.20055   0.00000  Uiso   1.00
C48    C     0.60154   0.46511   0.23676   0.00000  Uiso   1.00
C49    C     0.68249   0.41111   0.23605   0.00000  Uiso   1.00
C50    C     0.76439   0.43642   0.27238   0.00000  Uiso   1.00
C51    C     0.91506   0.44834   0.32318   0.00000  Uiso   1.00
C52    C     0.37154   0.39277   0.22338   0.00000  Uiso   1.00
C53    C     0.25910   0.27796   0.21142   0.00000  Uiso   1.00
C54    C     0.14738   0.24239   0.23648   0.00000  Uiso   1.00
C55    C     0.94094   0.14206   0.26649   0.00000  Uiso   1.00
C56    C     0.54114   0.58839   0.18658   0.00000  Uiso   1.00
C57    C     0.57127   0.63806   0.14368   0.00000  Uiso   1.00
C58    C     0.60231   0.76719   0.13776   0.00000  Uiso   1.00
C59    C     0.65920   0.97059   0.11063   0.00000  Uiso   1.00
C60    C     0.50591   0.59086   0.26631   0.00000  Uiso   1.00
C61    C     0.60235   0.54167   0.27248   0.00000  Uiso   1.00
C62    C     0.68416   0.56708   0.30881   0.00000  Uiso   1.00
C63    C     0.76522   0.51313   0.30816   0.00000  Uiso   1.00
C64    C     0.37235   0.46933   0.25910   0.00000  Uiso   1.00
C65    C     0.26077   0.43393   0.28418   0.00000  Uiso   1.00
C66    C     0.14820   0.31910   0.27226   0.00000  Uiso   1.00
C67    C     0.54196   0.66497   0.22230   0.00000  Uiso   1.00
C68    C     0.57295   0.79403   0.21644   0.00000  Uiso   1.00
C69    C     0.60313   0.84389   0.17354   0.00000  Uiso   1.00
H70    H     0.50375   0.39027   0.17274   0.00000  Uiso   1.00
H71    H     0.68181   0.35185   0.20841   0.00000  Uiso   1.00
H72    H     0.25849   0.21873   0.18377   0.00000  Uiso   1.00
H73    H     0.57062   0.57878   0.11605   0.00000  Uiso   1.00
H74    H     0.87956   0.34297   0.26371   0.00000  Uiso   1.00
H75    H     0.98695   0.06232   0.21176   0.00000  Uiso   1.00
H76    H     0.64513   0.82154   0.06895   0.00000  Uiso   1.00
H77    H     0.50654   0.65048   0.29412   0.00000  Uiso   1.00
H78    H     0.68477   0.62634   0.33645   0.00000  Uiso   1.00
H79    H     0.26144   0.49321   0.31182   0.00000  Uiso   1.00
H80    H     0.57357   0.85326   0.24409   0.00000  Uiso   1.00
H81    H     0.88196   0.56575   0.36763   0.00000  Uiso   1.00
H82    H     0.98934   0.28509   0.31568   0.00000  Uiso   1.00
H83    H     0.64753   0.04432   0.17287   0.00000  Uiso   1.00
O84    O     0.99792   0.43375   0.34133   0.00000  Uiso   1.00
O85    O     0.82685   0.06555   0.27317   0.00000  Uiso   1.00
O86    O     0.69037   0.06163   0.08580   0.00000  Uiso   1.00
N87    N     0.85569   0.39874   0.28235   0.00000  Uiso   1.00
N88    N     0.02115   0.13633   0.23379   0.00000  Uiso   1.00
N89    N     0.63646   0.84613   0.10027   0.00000  Uiso   1.00
N90    N     0.85698   0.51862   0.33828   0.00000  Uiso   1.00
N91    N     0.02244   0.25621   0.28971   0.00000  Uiso   1.00
N92    N     0.63775   0.96601   0.15619   0.00000  Uiso   1.00
C93    C     0.55011   0.05451   0.53388   0.00000  Uiso   1.00
C94    C     0.53489   0.13643   0.57009   0.00000  Uiso   1.00
C95    C     0.58889   0.27138   0.56939   0.00000  Uiso   1.00
C96    C     0.56358   0.32797   0.60571   0.00000  Uiso   1.00
C97    C     0.55166   0.46671   0.65651   0.00000  Uiso   1.00
C98    C     0.60723   0.97877   0.55671   0.00000  Uiso   1.00
C99    C     0.72204   0.98114   0.54475   0.00000  Uiso   1.00
C100   C     0.75761   0.90499   0.56981   0.00000  Uiso   1.00
C101   C     0.85794   0.79888   0.59982   0.00000  Uiso   1.00
C102   C     0.41161   0.95275   0.51991   0.00000  Uiso   1.00
C103   C     0.36194   0.93321   0.47702   0.00000  Uiso   1.00
C104   C     0.23281   0.83512   0.47109   0.00000  Uiso   1.00
C105   C     0.02941   0.68861   0.44397   0.00000  Uiso   1.00
C106   C     0.40914   0.91504   0.59964   0.00000  Uiso   1.00
C107   C     0.45833   0.06068   0.60581   0.00000  Uiso   1.00
C108   C     0.43292   0.11708   0.64215   0.00000  Uiso   1.00
C109   C     0.48687   0.25209   0.64150   0.00000  Uiso   1.00
C110   C     0.53067   0.90302   0.59243   0.00000  Uiso   1.00
C111   C     0.56607   0.82684   0.61751   0.00000  Uiso   1.00
C112   C     0.68090   0.82910   0.60560   0.00000  Uiso   1.00
C113   C     0.33503   0.87700   0.55563   0.00000  Uiso   1.00
C114   C     0.20597   0.77892   0.54978   0.00000  Uiso   1.00
C115   C     0.15611   0.75924   0.50688   0.00000  Uiso   1.00
H116   H     0.60973   0.11348   0.50607   0.00000  Uiso   1.00
H117   H     0.64815   0.32997   0.54174   0.00000  Uiso   1.00
H118   H     0.78127   0.03976   0.51711   0.00000  Uiso   1.00
H119   H     0.42122   0.99184   0.44938   0.00000  Uiso   1.00
H120   H     0.65703   0.53659   0.59704   0.00000  Uiso   1.00
H121   H     0.93768   0.92463   0.54509   0.00000  Uiso   1.00
H122   H     0.17846   0.82359   0.40228   0.00000  Uiso   1.00
H123   H     0.34952   0.85607   0.62746   0.00000  Uiso   1.00
H124   H     0.37366   0.05844   0.66978   0.00000  Uiso   1.00
H125   H     0.50679   0.76823   0.64515   0.00000  Uiso   1.00
H126   H     0.14674   0.72032   0.57742   0.00000  Uiso   1.00
H127   H     0.43425   0.31620   0.70097   0.00000  Uiso   1.00
H128   H     0.71491   0.70425   0.64902   0.00000  Uiso   1.00
H129   H     0.95568   0.60321   0.50620   0.00000  Uiso   1.00
O130   O     0.56625   0.56417   0.67467   0.00000  Uiso   1.00
O131   O     0.93445   0.76129   0.60651   0.00000  Uiso   1.00
O132   O     0.93837   0.62874   0.41914   0.00000  Uiso   1.00
N133   N     0.60126   0.45694   0.61569   0.00000  Uiso   1.00
N134   N     0.86367   0.88482   0.56712   0.00000  Uiso   1.00
N135   N     0.15387   0.79033   0.43360   0.00000  Uiso   1.00
N136   N     0.48138   0.33836   0.67161   0.00000  Uiso   1.00
N137   N     0.74379   0.76623   0.62305   0.00000  Uiso   1.00
N138   N     0.03399   0.67174   0.48952   0.00000  Uiso   1.00
C139   C     0.50440   0.05451   0.79945   0.00000  Uiso   1.00
C140   C     0.60154   0.13643   0.76324   0.00000  Uiso   1.00
C141   C     0.68249   0.27138   0.76395   0.00000  Uiso   1.00
C142   C     0.76439   0.32797   0.72762   0.00000  Uiso   1.00
C143   C     0.91506   0.46671   0.67682   0.00000  Uiso   1.00
C144   C     0.37154   0.97877   0.77662   0.00000  Uiso   1.00
C145   C     0.25910   0.98114   0.78858   0.00000  Uiso   1.00
C146   C     0.14738   0.90499   0.76352   0.00000  Uiso   1.00
C147   C     0.94094   0.79888   0.73351   0.00000  Uiso   1.00
C148   C     0.54114   0.95275   0.81342   0.00000  Uiso   1.00
C149   C     0.57127   0.93321   0.85632   0.00000  Uiso   1.00
C150   C     0.60231   0.83512   0.86224   0.00000  Uiso   1.00
C151   C     0.65920   0.68861   0.88937   0.00000  Uiso   1.00
C152   C     0.50591   0.91504   0.73369   0.00000  Uiso   1.00
C153   C     0.60235   0.06068   0.72752   0.00000  Uiso   1.00
C154   C     0.68416   0.11708   0.69119   0.00000  Uiso   1.00
C155   C     0.76522   0.25209   0.69184   0.00000  Uiso   1.00
C156   C     0.37235   0.90302   0.74090   0.00000  Uiso   1.00
C157   C     0.26077   0.82684   0.71582   0.00000  Uiso   1.00
C158   C     0.14820   0.82910   0.72774   0.00000  Uiso   1.00
C159   C     0.54196   0.87700   0.77770   0.00000  Uiso   1.00
C160   C     0.57295   0.77892   0.78356   0.00000  Uiso   1.00
C161   C     0.60313   0.75924   0.82646   0.00000  Uiso   1.00
H162   H     0.50375   0.11348   0.82726   0.00000  Uiso   1.00
H163   H     0.68181   0.32997   0.79159   0.00000  Uiso   1.00
H164   H     0.25849   0.03976   0.81623   0.00000  Uiso   1.00
H165   H     0.57062   0.99184   0.88395   0.00000  Uiso   1.00
H166   H     0.87956   0.53659   0.73629   0.00000  Uiso   1.00
H167   H     0.98695   0.92463   0.78824   0.00000  Uiso   1.00
H168   H     0.64513   0.82359   0.93105   0.00000  Uiso   1.00
H169   H     0.50654   0.85607   0.70588   0.00000  Uiso   1.00
H170   H     0.68477   0.05844   0.66355   0.00000  Uiso   1.00
H171   H     0.26144   0.76823   0.68818   0.00000  Uiso   1.00
H172   H     0.57357   0.72032   0.75591   0.00000  Uiso   1.00
H173   H     0.88196   0.31620   0.63237   0.00000  Uiso   1.00
H174   H     0.98934   0.70425   0.68432   0.00000  Uiso   1.00
H175   H     0.64753   0.60321   0.82713   0.00000  Uiso   1.00
O176   O     0.99792   0.56417   0.65867   0.00000  Uiso   1.00
O177   O     0.82685   0.76129   0.72683   0.00000  Uiso   1.00
O178   O     0.69037   0.62874   0.91420   0.00000  Uiso   1.00
N179   N     0.85569   0.45694   0.71765   0.00000  Uiso   1.00
N180   N     0.02115   0.88482   0.76621   0.00000  Uiso   1.00
N181   N     0.63646   0.79033   0.89973   0.00000  Uiso   1.00
N182   N     0.85698   0.33836   0.66172   0.00000  Uiso   1.00
N183   N     0.02244   0.76623   0.71029   0.00000  Uiso   1.00
N184   N     0.63775   0.67174   0.84381   0.00000  Uiso   1.00
C185   C     0.55011   0.49560   0.46612   0.00000  Uiso   1.00
C186   C     0.53489   0.39846   0.42991   0.00000  Uiso   1.00
C187   C     0.58889   0.31751   0.43061   0.00000  Uiso   1.00
C188   C     0.56358   0.23561   0.39429   0.00000  Uiso   1.00
C189   C     0.55166   0.08494   0.34349   0.00000  Uiso   1.00
C190   C     0.60723   0.62846   0.44329   0.00000  Uiso   1.00
C191   C     0.72204   0.74090   0.45525   0.00000  Uiso   1.00
C192   C     0.75761   0.85262   0.43019   0.00000  Uiso   1.00
C193   C     0.85794   0.05906   0.40018   0.00000  Uiso   1.00
C194   C     0.41161   0.45886   0.48009   0.00000  Uiso   1.00
C195   C     0.36194   0.42873   0.52298   0.00000  Uiso   1.00
C196   C     0.23281   0.39769   0.52891   0.00000  Uiso   1.00
C197   C     0.02941   0.34080   0.55603   0.00000  Uiso   1.00
C198   C     0.40914   0.49409   0.40036   0.00000  Uiso   1.00
C199   C     0.45833   0.39765   0.39419   0.00000  Uiso   1.00
C200   C     0.43292   0.31584   0.35785   0.00000  Uiso   1.00
C201   C     0.48687   0.23478   0.35850   0.00000  Uiso   1.00
C202   C     0.53067   0.62765   0.40757   0.00000  Uiso   1.00
C203   C     0.56607   0.73923   0.38249   0.00000  Uiso   1.00
C204   C     0.68090   0.85180   0.39440   0.00000  Uiso   1.00
C205   C     0.33503   0.45804   0.44437   0.00000  Uiso   1.00
C206   C     0.20597   0.42705   0.45022   0.00000  Uiso   1.00
C207   C     0.15611   0.39687   0.49312   0.00000  Uiso   1.00
H208   H     0.60973   0.49625   0.49393   0.00000  Uiso   1.00
H209   H     0.64815   0.31819   0.45826   0.00000  Uiso   1.00
H210   H     0.78127   0.74151   0.48289   0.00000  Uiso   1.00
H211   H     0.42122   0.42938   0.55062   0.00000  Uiso   1.00
H212   H     0.65703   0.12044   0.40296   0.00000  Uiso   1.00
H213   H     0.93768   0.01305   0.45491   0.00000  Uiso   1.00
H214   H     0.17846   0.35487   0.59772   0.00000  Uiso   1.00
H215   H     0.34952   0.49346   0.37254   0.00000  Uiso   1.00
H216   H     0.37366   0.31523   0.33022   0.00000  Uiso   1.00
H217   H     0.50679   0.73856   0.35485   0.00000  Uiso   1.00
H218   H     0.14674   0.42643   0.42258   0.00000  Uiso   1.00
H219   H     0.43425   0.11804   0.29903   0.00000  Uiso   1.00
H220   H     0.71491   0.01066   0.35098   0.00000  Uiso   1.00
H221   H     0.95568   0.35247   0.49380   0.00000  Uiso   1.00
O222   O     0.56625   0.00208   0.32533   0.00000  Uiso   1.00
O223   O     0.93445   0.17315   0.39349   0.00000  Uiso   1.00
O224   O     0.93837   0.30963   0.58086   0.00000  Uiso   1.00
N225   N     0.60126   0.14431   0.38431   0.00000  Uiso   1.00
N226   N     0.86367   0.97885   0.43288   0.00000  Uiso   1.00
N227   N     0.15387   0.36354   0.56640   0.00000  Uiso   1.00
N228   N     0.48138   0.14302   0.32839   0.00000  Uiso   1.00
N229   N     0.74379   0.97756   0.37695   0.00000  Uiso   1.00
N230   N     0.03399   0.36225   0.51048   0.00000  Uiso   1.00
C231   C     0.94549   0.44989   0.13278   0.00000  Uiso   1.00
C232   C     0.86357   0.46511   0.09658   0.00000  Uiso   1.00
C233   C     0.72862   0.41111   0.09728   0.00000  Uiso   1.00
C234   C     0.67203   0.43642   0.06095   0.00000  Uiso   1.00
C235   C     0.53329   0.44834   0.01016   0.00000  Uiso   1.00
C236   C     0.02123   0.39277   0.10995   0.00000  Uiso   1.00
C237   C     0.01886   0.27796   0.12191   0.00000  Uiso   1.00
C238   C     0.09501   0.24239   0.09685   0.00000  Uiso   1.00
C239   C     0.20112   0.14206   0.06685   0.00000  Uiso   1.00
C240   C     0.04725   0.58839   0.14675   0.00000  Uiso   1.00
C241   C     0.06679   0.63806   0.18965   0.00000  Uiso   1.00
C242   C     0.16488   0.76719   0.19557   0.00000  Uiso   1.00
C243   C     0.31139   0.97059   0.22270   0.00000  Uiso   1.00
C244   C     0.08496   0.59086   0.06702   0.00000  Uiso   1.00
C245   C     0.93932   0.54167   0.06086   0.00000  Uiso   1.00
C246   C     0.88292   0.56708   0.02452   0.00000  Uiso   1.00
C247   C     0.74791   0.51313   0.02517   0.00000  Uiso   1.00
C248   C     0.09698   0.46933   0.07424   0.00000  Uiso   1.00
C249   C     0.17316   0.43393   0.04915   0.00000  Uiso   1.00
C250   C     0.17090   0.31910   0.06107   0.00000  Uiso   1.00
C251   C     0.12300   0.66497   0.11103   0.00000  Uiso   1.00
C252   C     0.22108   0.79403   0.11689   0.00000  Uiso   1.00
C253   C     0.24076   0.84389   0.15979   0.00000  Uiso   1.00
H254   H     0.88652   0.39027   0.16059   0.00000  Uiso   1.00
H255   H     0.67003   0.35185   0.12493   0.00000  Uiso   1.00
H256   H     0.96024   0.21873   0.14956   0.00000  Uiso   1.00
H257   H     0.00816   0.57878   0.21728   0.00000  Uiso   1.00
H258   H     0.46341   0.34297   0.06962   0.00000  Uiso   1.00
H259   H     0.07537   0.06232   0.12157   0.00000  Uiso   1.00
H260   H     0.17641   0.82154   0.26439   0.00000  Uiso   1.00
H261   H     0.14393   0.65048   0.03921   0.00000  Uiso   1.00
H262   H     0.94156   0.62634   0.99688   0.00000  Uiso   1.00
H263   H     0.23177   0.49321   0.02152   0.00000  Uiso   1.00
H264   H     0.27968   0.85326   0.08924   0.00000  Uiso   1.00
H265   H     0.68380   0.56575   0.96570   0.00000  Uiso   1.00
H266   H     0.29575   0.28509   0.01765   0.00000  Uiso   1.00
H267   H     0.39679   0.04432   0.16046   0.00000  Uiso   1.00
O268   O     0.43583   0.43375   0.99200   0.00000  Uiso   1.00
O269   O     0.23871   0.06555   0.06016   0.00000  Uiso   1.00
O270   O     0.37126   0.06163   0.24753   0.00000  Uiso   1.00
N271   N     0.54306   0.39874   0.05098   0.00000  Uiso   1.00
N272   N     0.11518   0.13633   0.09954   0.00000  Uiso   1.00
N273   N     0.20967   0.84613   0.23306   0.00000  Uiso   1.00
N274   N     0.66164   0.51862   0.99506   0.00000  Uiso   1.00
N275   N     0.23377   0.25621   0.04362   0.00000  Uiso   1.00
N276   N     0.32826   0.96601   0.17714   0.00000  Uiso   1.00
