data_job_00542
_audit_creation_date              2018-12-19
_audit_creation_method            'Materials Studio'
_symmetry_space_group_name_H-M    'P1'
_symmetry_Int_Tables_number       1
_symmetry_cell_setting            triclinic
loop_
_symmetry_equiv_pos_as_xyz
  x,y,z
_cell_length_a                    18.8404
_cell_length_b                    9.3093
_cell_length_c                    16.0344
_cell_angle_alpha                 90.0000
_cell_angle_beta                  88.5464
_cell_angle_gamma                 90.0000
loop_
_atom_site_label
_atom_site_type_symbol
_atom_site_fract_x
_atom_site_fract_y
_atom_site_fract_z
_atom_site_U_iso_or_equiv
_atom_site_adp_type
_atom_site_occupancy
C1     C     0.65550   0.20599   0.82493   0.00000  Uiso   1.00
C2     C     0.60770   0.07520   0.83756   0.00000  Uiso   1.00
C3     C     0.54189   0.07451   0.87845   0.00000  Uiso   1.00
C4     C     0.50645   0.94391   0.88342   0.00000  Uiso   1.00
C5     C     0.42777   0.75987   0.90835   0.00000  Uiso   1.00
C6     C     0.72650   0.16649   0.86237   0.00000  Uiso   1.00
C7     C     0.76058   0.24258   0.92410   0.00000  Uiso   1.00
C8     C     0.82516   0.18883   0.94995   0.00000  Uiso   1.00
C9     C     0.93094   0.14659   0.01334   0.00000  Uiso   1.00
C10    C     0.66938   0.21818   0.73109   0.00000  Uiso   1.00
C11    C     0.65545   0.33773   0.68245   0.00000  Uiso   1.00
C12    C     0.67195   0.32751   0.59777   0.00000  Uiso   1.00
C13    C     0.68905   0.36551   0.45734   0.00000  Uiso   1.00
C14    C     0.70959   0.97528   0.76104   0.00000  Uiso   1.00
C15    C     0.63708   0.94989   0.80286   0.00000  Uiso   1.00
C16    C     0.60173   0.81925   0.80777   0.00000  Uiso   1.00
C17    C     0.53588   0.81837   0.84866   0.00000  Uiso   1.00
C18    C     0.75588   0.04119   0.82767   0.00000  Uiso   1.00
C19    C     0.82042   0.98732   0.85342   0.00000  Uiso   1.00
C20    C     0.85459   0.06329   0.91518   0.00000  Uiso   1.00
C21    C     0.69876   0.09287   0.69639   0.00000  Uiso   1.00
C22    C     0.71529   0.08247   0.61177   0.00000  Uiso   1.00
C23    C     0.70139   0.20197   0.56301   0.00000  Uiso   1.00
H24    H     0.63264   0.30356   0.85195   0.00000  Uiso   1.00
H25    H     0.51918   0.17151   0.90531   0.00000  Uiso   1.00
H26    H     0.73784   0.33955   0.95094   0.00000  Uiso   1.00
H27    H     0.63272   0.43468   0.70933   0.00000  Uiso   1.00
H28    H     0.40635   0.96983   0.94918   0.00000  Uiso   1.00
H29    H     0.86742   0.32420   0.04539   0.00000  Uiso   1.00
H30    H     0.64576   0.52480   0.53590   0.00000  Uiso   1.00
H31    H     0.73246   0.87772   0.73402   0.00000  Uiso   1.00
H32    H     0.62448   0.72230   0.78091   0.00000  Uiso   1.00
H33    H     0.84314   0.89035   0.82655   0.00000  Uiso   1.00
H34    H     0.73802   0.98548   0.58493   0.00000  Uiso   1.00
H35    H     0.49182   0.60524   0.84822   0.00000  Uiso   1.00
H36    H     0.95289   0.95961   0.94443   0.00000  Uiso   1.00
H37    H     0.73123   0.16021   0.43494   0.00000  Uiso   1.00
O38    O     0.37626   0.69297   0.93170   0.00000  Uiso   1.00
O39    O     0.98117   0.15790   0.05790   0.00000  Uiso   1.00
O40    O     0.69036   0.42108   0.38947   0.00000  Uiso   1.00
N41    N     0.44128   0.90536   0.91897   0.00000  Uiso   1.00
N42    N     0.87235   0.23666   0.00893   0.00000  Uiso   1.00
N43    N     0.66513   0.42422   0.53261   0.00000  Uiso   1.00
N44    N     0.48727   0.70917   0.86464   0.00000  Uiso   1.00
N45    N     0.91834   0.04047   0.95460   0.00000  Uiso   1.00
N46    N     0.71112   0.22803   0.47828   0.00000  Uiso   1.00
C47    C     0.34450   0.20599   0.67507   0.00000  Uiso   1.00
C48    C     0.39230   0.07520   0.66244   0.00000  Uiso   1.00
C49    C     0.45811   0.07451   0.62155   0.00000  Uiso   1.00
C50    C     0.49355   0.94391   0.61658   0.00000  Uiso   1.00
C51    C     0.57223   0.75987   0.59165   0.00000  Uiso   1.00
C52    C     0.27350   0.16649   0.63763   0.00000  Uiso   1.00
C53    C     0.23942   0.24258   0.57590   0.00000  Uiso   1.00
C54    C     0.17484   0.18883   0.55005   0.00000  Uiso   1.00
C55    C     0.06906   0.14659   0.48666   0.00000  Uiso   1.00
C56    C     0.33062   0.21818   0.76891   0.00000  Uiso   1.00
C57    C     0.34455   0.33773   0.81755   0.00000  Uiso   1.00
C58    C     0.32805   0.32751   0.90223   0.00000  Uiso   1.00
C59    C     0.31095   0.36551   0.04266   0.00000  Uiso   1.00
C60    C     0.29041   0.97528   0.73896   0.00000  Uiso   1.00
C61    C     0.36292   0.94989   0.69714   0.00000  Uiso   1.00
C62    C     0.39827   0.81925   0.69223   0.00000  Uiso   1.00
C63    C     0.46412   0.81837   0.65134   0.00000  Uiso   1.00
C64    C     0.24412   0.04119   0.67233   0.00000  Uiso   1.00
C65    C     0.17958   0.98732   0.64658   0.00000  Uiso   1.00
C66    C     0.14541   0.06329   0.58482   0.00000  Uiso   1.00
C67    C     0.30124   0.09287   0.80361   0.00000  Uiso   1.00
C68    C     0.28471   0.08247   0.88823   0.00000  Uiso   1.00
C69    C     0.29861   0.20197   0.93699   0.00000  Uiso   1.00
H70    H     0.36736   0.30356   0.64805   0.00000  Uiso   1.00
H71    H     0.48082   0.17151   0.59469   0.00000  Uiso   1.00
H72    H     0.26216   0.33955   0.54906   0.00000  Uiso   1.00
H73    H     0.36728   0.43468   0.79067   0.00000  Uiso   1.00
H74    H     0.59365   0.96983   0.55082   0.00000  Uiso   1.00
H75    H     0.13258   0.32420   0.45461   0.00000  Uiso   1.00
H76    H     0.35424   0.52480   0.96410   0.00000  Uiso   1.00
H77    H     0.26754   0.87772   0.76598   0.00000  Uiso   1.00
H78    H     0.37552   0.72230   0.71909   0.00000  Uiso   1.00
H79    H     0.15686   0.89035   0.67345   0.00000  Uiso   1.00
H80    H     0.26198   0.98548   0.91507   0.00000  Uiso   1.00
H81    H     0.50818   0.60524   0.65178   0.00000  Uiso   1.00
H82    H     0.04711   0.95961   0.55557   0.00000  Uiso   1.00
H83    H     0.26877   0.16021   0.06506   0.00000  Uiso   1.00
O84    O     0.62374   0.69297   0.56830   0.00000  Uiso   1.00
O85    O     0.01883   0.15790   0.44210   0.00000  Uiso   1.00
O86    O     0.30964   0.42108   0.11053   0.00000  Uiso   1.00
N87    N     0.55872   0.90536   0.58103   0.00000  Uiso   1.00
N88    N     0.12765   0.23666   0.49107   0.00000  Uiso   1.00
N89    N     0.33487   0.42422   0.96739   0.00000  Uiso   1.00
N90    N     0.51273   0.70917   0.63536   0.00000  Uiso   1.00
N91    N     0.08166   0.04047   0.54540   0.00000  Uiso   1.00
N92    N     0.28888   0.22803   0.02172   0.00000  Uiso   1.00
C93    C     0.34450   0.79401   0.17507   0.00000  Uiso   1.00
C94    C     0.39230   0.92480   0.16244   0.00000  Uiso   1.00
C95    C     0.45811   0.92549   0.12155   0.00000  Uiso   1.00
C96    C     0.49355   0.05609   0.11658   0.00000  Uiso   1.00
C97    C     0.57223   0.24013   0.09165   0.00000  Uiso   1.00
C98    C     0.27350   0.83351   0.13763   0.00000  Uiso   1.00
C99    C     0.23942   0.75742   0.07590   0.00000  Uiso   1.00
C100   C     0.17484   0.81117   0.05005   0.00000  Uiso   1.00
C101   C     0.06906   0.85341   0.98666   0.00000  Uiso   1.00
C102   C     0.33062   0.78182   0.26891   0.00000  Uiso   1.00
C103   C     0.34455   0.66227   0.31755   0.00000  Uiso   1.00
C104   C     0.32805   0.67249   0.40223   0.00000  Uiso   1.00
C105   C     0.31095   0.63449   0.54266   0.00000  Uiso   1.00
C106   C     0.29041   0.02472   0.23896   0.00000  Uiso   1.00
C107   C     0.36292   0.05011   0.19714   0.00000  Uiso   1.00
C108   C     0.39827   0.18075   0.19223   0.00000  Uiso   1.00
C109   C     0.46412   0.18163   0.15134   0.00000  Uiso   1.00
C110   C     0.24412   0.95881   0.17233   0.00000  Uiso   1.00
C111   C     0.17958   0.01268   0.14658   0.00000  Uiso   1.00
C112   C     0.14541   0.93671   0.08482   0.00000  Uiso   1.00
C113   C     0.30124   0.90713   0.30361   0.00000  Uiso   1.00
C114   C     0.28471   0.91753   0.38823   0.00000  Uiso   1.00
C115   C     0.29861   0.79803   0.43699   0.00000  Uiso   1.00
H116   H     0.36736   0.69644   0.14805   0.00000  Uiso   1.00
H117   H     0.48082   0.82849   0.09469   0.00000  Uiso   1.00
H118   H     0.26216   0.66045   0.04906   0.00000  Uiso   1.00
H119   H     0.36728   0.56532   0.29067   0.00000  Uiso   1.00
H120   H     0.59365   0.03017   0.05082   0.00000  Uiso   1.00
H121   H     0.13258   0.67580   0.95461   0.00000  Uiso   1.00
H122   H     0.35424   0.47520   0.46410   0.00000  Uiso   1.00
H123   H     0.26754   0.12228   0.26598   0.00000  Uiso   1.00
H124   H     0.37552   0.27770   0.21909   0.00000  Uiso   1.00
H125   H     0.15686   0.10965   0.17345   0.00000  Uiso   1.00
H126   H     0.26198   0.01452   0.41507   0.00000  Uiso   1.00
H127   H     0.50818   0.39476   0.15178   0.00000  Uiso   1.00
H128   H     0.04711   0.04039   0.05557   0.00000  Uiso   1.00
H129   H     0.26877   0.83979   0.56506   0.00000  Uiso   1.00
O130   O     0.62374   0.30703   0.06830   0.00000  Uiso   1.00
O131   O     0.01883   0.84210   0.94210   0.00000  Uiso   1.00
O132   O     0.30964   0.57892   0.61053   0.00000  Uiso   1.00
N133   N     0.55872   0.09464   0.08103   0.00000  Uiso   1.00
N134   N     0.12765   0.76334   0.99107   0.00000  Uiso   1.00
N135   N     0.33487   0.57578   0.46739   0.00000  Uiso   1.00
N136   N     0.51273   0.29083   0.13536   0.00000  Uiso   1.00
N137   N     0.08166   0.95953   0.04540   0.00000  Uiso   1.00
N138   N     0.28888   0.77197   0.52172   0.00000  Uiso   1.00
C139   C     0.65550   0.79401   0.32493   0.00000  Uiso   1.00
C140   C     0.60770   0.92480   0.33756   0.00000  Uiso   1.00
C141   C     0.54189   0.92549   0.37845   0.00000  Uiso   1.00
C142   C     0.50645   0.05609   0.38342   0.00000  Uiso   1.00
C143   C     0.42777   0.24013   0.40835   0.00000  Uiso   1.00
C144   C     0.72650   0.83351   0.36237   0.00000  Uiso   1.00
C145   C     0.76058   0.75742   0.42410   0.00000  Uiso   1.00
C146   C     0.82516   0.81117   0.44995   0.00000  Uiso   1.00
C147   C     0.93094   0.85341   0.51334   0.00000  Uiso   1.00
C148   C     0.66938   0.78182   0.23109   0.00000  Uiso   1.00
C149   C     0.65545   0.66227   0.18245   0.00000  Uiso   1.00
C150   C     0.67195   0.67249   0.09777   0.00000  Uiso   1.00
C151   C     0.68905   0.63449   0.95734   0.00000  Uiso   1.00
C152   C     0.70959   0.02472   0.26104   0.00000  Uiso   1.00
C153   C     0.63708   0.05011   0.30286   0.00000  Uiso   1.00
C154   C     0.60173   0.18075   0.30777   0.00000  Uiso   1.00
C155   C     0.53588   0.18163   0.34866   0.00000  Uiso   1.00
C156   C     0.75588   0.95881   0.32767   0.00000  Uiso   1.00
C157   C     0.82042   0.01268   0.35342   0.00000  Uiso   1.00
C158   C     0.85459   0.93671   0.41518   0.00000  Uiso   1.00
C159   C     0.69876   0.90713   0.19639   0.00000  Uiso   1.00
C160   C     0.71529   0.91753   0.11177   0.00000  Uiso   1.00
C161   C     0.70139   0.79803   0.06301   0.00000  Uiso   1.00
H162   H     0.63264   0.69644   0.35195   0.00000  Uiso   1.00
H163   H     0.51918   0.82849   0.40531   0.00000  Uiso   1.00
H164   H     0.73784   0.66045   0.45094   0.00000  Uiso   1.00
H165   H     0.63272   0.56532   0.20933   0.00000  Uiso   1.00
H166   H     0.40635   0.03017   0.44918   0.00000  Uiso   1.00
H167   H     0.86742   0.67580   0.54539   0.00000  Uiso   1.00
H168   H     0.64576   0.47520   0.03590   0.00000  Uiso   1.00
H169   H     0.73246   0.12228   0.23402   0.00000  Uiso   1.00
H170   H     0.62448   0.27770   0.28091   0.00000  Uiso   1.00
H171   H     0.84314   0.10965   0.32655   0.00000  Uiso   1.00
H172   H     0.73802   0.01452   0.08493   0.00000  Uiso   1.00
H173   H     0.49182   0.39476   0.34822   0.00000  Uiso   1.00
H174   H     0.95289   0.04039   0.44443   0.00000  Uiso   1.00
H175   H     0.73123   0.83979   0.93494   0.00000  Uiso   1.00
O176   O     0.37626   0.30703   0.43170   0.00000  Uiso   1.00
O177   O     0.98117   0.84210   0.55790   0.00000  Uiso   1.00
O178   O     0.69036   0.57892   0.88947   0.00000  Uiso   1.00
N179   N     0.44128   0.09464   0.41897   0.00000  Uiso   1.00
N180   N     0.87235   0.76334   0.50893   0.00000  Uiso   1.00
N181   N     0.66513   0.57578   0.03261   0.00000  Uiso   1.00
N182   N     0.48727   0.29083   0.36464   0.00000  Uiso   1.00
N183   N     0.91834   0.95953   0.45460   0.00000  Uiso   1.00
N184   N     0.71112   0.77197   0.97828   0.00000  Uiso   1.00
