data_job_05009
_audit_creation_date              2018-12-19
_audit_creation_method            'Materials Studio'
_symmetry_space_group_name_H-M    'P1'
_symmetry_Int_Tables_number       1
_symmetry_cell_setting            triclinic
loop_
_symmetry_equiv_pos_as_xyz
  x,y,z
_cell_length_a                    12.7889
_cell_length_b                    30.3580
_cell_length_c                    11.0744
_cell_angle_alpha                 90.0000
_cell_angle_beta                  91.4401
_cell_angle_gamma                 90.0000
loop_
_atom_site_label
_atom_site_type_symbol
_atom_site_fract_x
_atom_site_fract_y
_atom_site_fract_z
_atom_site_U_iso_or_equiv
_atom_site_adp_type
_atom_site_occupancy
C1     C     0.19746   0.07819   0.68473   0.00000  Uiso   1.00
C2     C     0.09071   0.09512   0.72185   0.00000  Uiso   1.00
C3     C     0.02958   0.07716   0.81119   0.00000  Uiso   1.00
C4     C     0.93433   0.09745   0.83154   0.00000  Uiso   1.00
C5     C     0.77354   0.11811   0.89928   0.00000  Uiso   1.00
C6     C     0.18788   0.06896   0.54955   0.00000  Uiso   1.00
C7     C     0.20848   0.02901   0.49402   0.00000  Uiso   1.00
C8     C     0.19504   0.02728   0.36931   0.00000  Uiso   1.00
C9     C     0.18519   0.00734   0.16953   0.00000  Uiso   1.00
C10    C     0.27236   0.11704   0.69866   0.00000  Uiso   1.00
C11    C     0.36400   0.11752   0.76848   0.00000  Uiso   1.00
C12    C     0.42170   0.15627   0.76930   0.00000  Uiso   1.00
C13    C     0.54301   0.21098   0.80105   0.00000  Uiso   1.00
C14    C     0.13700   0.14613   0.56199   0.00000  Uiso   1.00
C15    C     0.05787   0.13202   0.65518   0.00000  Uiso   1.00
C16    C     0.96269   0.15234   0.67540   0.00000  Uiso   1.00
C17    C     0.90143   0.13442   0.76475   0.00000  Uiso   1.00
C18    C     0.15504   0.10586   0.48288   0.00000  Uiso   1.00
C19    C     0.14158   0.10419   0.35822   0.00000  Uiso   1.00
C20    C     0.16214   0.06425   0.30252   0.00000  Uiso   1.00
C21    C     0.23952   0.15395   0.63199   0.00000  Uiso   1.00
C22    C     0.29709   0.19270   0.63269   0.00000  Uiso   1.00
C23    C     0.38880   0.19324   0.70250   0.00000  Uiso   1.00
H24    H     0.22303   0.04945   0.73663   0.00000  Uiso   1.00
H25    H     0.05502   0.04860   0.86276   0.00000  Uiso   1.00
H26    H     0.23390   0.00046   0.54563   0.00000  Uiso   1.00
H27    H     0.38938   0.08896   0.82006   0.00000  Uiso   1.00
H28    H     0.85425   0.06392   0.97318   0.00000  Uiso   1.00
H29    H     0.23145   0.96242   0.30449   0.00000  Uiso   1.00
H30    H     0.55934   0.14903   0.88317   0.00000  Uiso   1.00
H31    H     0.11143   0.17487   0.51008   0.00000  Uiso   1.00
H32    H     0.93729   0.18090   0.62379   0.00000  Uiso   1.00
H33    H     0.11617   0.13276   0.30666   0.00000  Uiso   1.00
H34    H     0.27166   0.22125   0.58108   0.00000  Uiso   1.00
H35    H     0.75869   0.17130   0.77921   0.00000  Uiso   1.00
H36    H     0.13591   0.06980   0.11052   0.00000  Uiso   1.00
H37    H     0.46378   0.25641   0.68921   0.00000  Uiso   1.00
O38    O     0.69392   0.11931   0.95505   0.00000  Uiso   1.00
O39    O     0.18882   0.98614   0.07776   0.00000  Uiso   1.00
O40    O     0.61898   0.23097   0.83699   0.00000  Uiso   1.00
N41    N     0.85567   0.08837   0.91194   0.00000  Uiso   1.00
N42    N     0.20832   0.99347   0.28676   0.00000  Uiso   1.00
N43    N     0.51487   0.16793   0.82775   0.00000  Uiso   1.00
N44    N     0.80425   0.14615   0.80757   0.00000  Uiso   1.00
N45    N     0.15690   0.05125   0.18239   0.00000  Uiso   1.00
N46    N     0.46346   0.22571   0.72338   0.00000  Uiso   1.00
C47    C     0.95063   0.91463   0.66503   0.00000  Uiso   1.00
C48    C     0.05827   0.89566   0.69666   0.00000  Uiso   1.00
C49    C     0.12420   0.90967   0.79041   0.00000  Uiso   1.00
C50    C     0.21944   0.88809   0.80443   0.00000  Uiso   1.00
C51    C     0.38232   0.86387   0.86523   0.00000  Uiso   1.00
C52    C     0.95455   0.92892   0.53321   0.00000  Uiso   1.00
C53    C     0.93325   0.97091   0.48953   0.00000  Uiso   1.00
C54    C     0.94115   0.97732   0.36596   0.00000  Uiso   1.00
C55    C     0.94291   0.00474   0.17299   0.00000  Uiso   1.00
C56    C     0.87464   0.87596   0.66803   0.00000  Uiso   1.00
C57    C     0.78614   0.87342   0.73770   0.00000  Uiso   1.00
C58    C     0.72676   0.83525   0.72762   0.00000  Uiso   1.00
C59    C     0.60445   0.78044   0.74398   0.00000  Uiso   1.00
C60    C     0.00253   0.85137   0.52323   0.00000  Uiso   1.00
C61    C     0.08646   0.86129   0.61964   0.00000  Uiso   1.00
C62    C     0.18162   0.83968   0.63353   0.00000  Uiso   1.00
C63    C     0.24768   0.85366   0.72728   0.00000  Uiso   1.00
C64    C     0.98273   0.89456   0.45619   0.00000  Uiso   1.00
C65    C     0.99066   0.90091   0.33265   0.00000  Uiso   1.00
C66    C     0.96939   0.94290   0.28880   0.00000  Uiso   1.00
C67    C     0.90283   0.84160   0.59102   0.00000  Uiso   1.00
C68    C     0.84356   0.80342   0.58082   0.00000  Uiso   1.00
C69    C     0.75499   0.80083   0.65046   0.00000  Uiso   1.00
H70    H     0.92868   0.94139   0.72498   0.00000  Uiso   1.00
H71    H     0.10237   0.93627   0.84998   0.00000  Uiso   1.00
H72    H     0.91143   0.99749   0.54916   0.00000  Uiso   1.00
H73    H     0.76435   0.90002   0.79729   0.00000  Uiso   1.00
H74    H     0.30737   0.91546   0.95458   0.00000  Uiso   1.00
H75    H     0.90473   0.04454   0.32026   0.00000  Uiso   1.00
H76    H     0.59459   0.83901   0.84349   0.00000  Uiso   1.00
H77    H     0.02447   0.82461   0.46326   0.00000  Uiso   1.00
H78    H     0.20341   0.81309   0.57391   0.00000  Uiso   1.00
H79    H     0.01247   0.87431   0.27308   0.00000  Uiso   1.00
H80    H     0.86540   0.77684   0.52121   0.00000  Uiso   1.00
H81    H     0.38939   0.81548   0.73051   0.00000  Uiso   1.00
H82    H     0.98674   0.94456   0.09619   0.00000  Uiso   1.00
H83    H     0.67660   0.73903   0.61941   0.00000  Uiso   1.00
O84    O     0.46438   0.86000   0.92003   0.00000  Uiso   1.00
O85    O     0.93611   0.02936   0.08783   0.00000  Uiso   1.00
O86    O     0.52922   0.75970   0.77429   0.00000  Uiso   1.00
N87    N     0.30211   0.89350   0.88667   0.00000  Uiso   1.00
N88    N     0.92568   0.01419   0.29363   0.00000  Uiso   1.00
N89    N     0.63571   0.82204   0.78278   0.00000  Uiso   1.00
N90    N     0.34624   0.83970   0.76610   0.00000  Uiso   1.00
N91    N     0.96981   0.96039   0.17306   0.00000  Uiso   1.00
N92    N     0.67984   0.76824   0.66221   0.00000  Uiso   1.00
C93    C     0.43926   0.92262   0.26523   0.00000  Uiso   1.00
C94    C     0.54502   0.90458   0.22818   0.00000  Uiso   1.00
C95    C     0.60636   0.92141   0.13744   0.00000  Uiso   1.00
C96    C     0.70058   0.90024   0.11744   0.00000  Uiso   1.00
C97    C     0.86001   0.87783   0.04956   0.00000  Uiso   1.00
C98    C     0.45005   0.93272   0.39985   0.00000  Uiso   1.00
C99    C     0.43152   0.97321   0.45345   0.00000  Uiso   1.00
C100   C     0.44578   0.97572   0.57796   0.00000  Uiso   1.00
C101   C     0.45768   0.99699   0.77661   0.00000  Uiso   1.00
C102   C     0.36263   0.88427   0.25390   0.00000  Uiso   1.00
C103   C     0.27058   0.88402   0.18480   0.00000  Uiso   1.00
C104   C     0.21122   0.84574   0.18645   0.00000  Uiso   1.00
C105   C     0.08740   0.79178   0.15848   0.00000  Uiso   1.00
C106   C     0.49750   0.85508   0.39106   0.00000  Uiso   1.00
C107   C     0.57665   0.86790   0.29653   0.00000  Uiso   1.00
C108   C     0.67080   0.84669   0.27666   0.00000  Uiso   1.00
C109   C     0.73227   0.86349   0.18590   0.00000  Uiso   1.00
C110   C     0.48168   0.89604   0.46820   0.00000  Uiso   1.00
C111   C     0.49596   0.89849   0.59266   0.00000  Uiso   1.00
C112   C     0.47747   0.93897   0.64643   0.00000  Uiso   1.00
C113   C     0.39426   0.84759   0.32224   0.00000  Uiso   1.00
C114   C     0.33503   0.80930   0.32401   0.00000  Uiso   1.00
C115   C     0.24291   0.80899   0.25492   0.00000  Uiso   1.00
H116   H     0.41463   0.95118   0.21203   0.00000  Uiso   1.00
H117   H     0.58186   0.94980   0.08458   0.00000  Uiso   1.00
H118   H     0.40703   0.00159   0.40053   0.00000  Uiso   1.00
H119   H     0.24613   0.91241   0.13192   0.00000  Uiso   1.00
H120   H     0.78123   0.93211   0.97344   0.00000  Uiso   1.00
H121   H     0.41257   0.04130   0.63966   0.00000  Uiso   1.00
H122   H     0.07326   0.85326   0.07324   0.00000  Uiso   1.00
H123   H     0.52213   0.82653   0.44428   0.00000  Uiso   1.00
H124   H     0.69526   0.81831   0.32957   0.00000  Uiso   1.00
H125   H     0.52043   0.87010   0.64553   0.00000  Uiso   1.00
H126   H     0.35953   0.78092   0.37691   0.00000  Uiso   1.00
H127   H     0.87328   0.82539   0.17229   0.00000  Uiso   1.00
H128   H     0.50460   0.93458   0.83851   0.00000  Uiso   1.00
H129   H     0.16531   0.74654   0.27209   0.00000  Uiso   1.00
O130   O     0.93922   0.87560   0.99324   0.00000  Uiso   1.00
O131   O     0.45552   0.01885   0.86729   0.00000  Uiso   1.00
O132   O     0.01037   0.77215   0.12416   0.00000  Uiso   1.00
N133   N     0.77913   0.90812   0.03597   0.00000  Uiso   1.00
N134   N     0.43446   0.01020   0.65884   0.00000  Uiso   1.00
N135   N     0.11723   0.83441   0.12931   0.00000  Uiso   1.00
N136   N     0.82865   0.85069   0.14297   0.00000  Uiso   1.00
N137   N     0.48399   0.95278   0.76584   0.00000  Uiso   1.00
N138   N     0.16675   0.77698   0.23631   0.00000  Uiso   1.00
C139   C     0.69395   0.08238   0.27352   0.00000  Uiso   1.00
C140   C     0.58558   0.10023   0.24016   0.00000  Uiso   1.00
C141   C     0.52051   0.08481   0.14732   0.00000  Uiso   1.00
C142   C     0.42438   0.10554   0.13139   0.00000  Uiso   1.00
C143   C     0.26063   0.12794   0.06832   0.00000  Uiso   1.00
C144   C     0.69031   0.06936   0.40635   0.00000  Uiso   1.00
C145   C     0.71331   0.02799   0.45322   0.00000  Uiso   1.00
C146   C     0.70536   0.02273   0.57720   0.00000  Uiso   1.00
C147   C     0.70428   0.99721   0.77214   0.00000  Uiso   1.00
C148   C     0.76826   0.12157   0.26784   0.00000  Uiso   1.00
C149   C     0.85683   0.12408   0.19827   0.00000  Uiso   1.00
C150   C     0.91452   0.16277   0.20565   0.00000  Uiso   1.00
C151   C     0.03448   0.21830   0.18554   0.00000  Uiso   1.00
C152   C     0.63894   0.14662   0.41035   0.00000  Uiso   1.00
C153   C     0.55570   0.13513   0.31449   0.00000  Uiso   1.00
C154   C     0.45965   0.15589   0.29869   0.00000  Uiso   1.00
C155   C     0.39445   0.14050   0.20584   0.00000  Uiso   1.00
C156   C     0.66043   0.10425   0.48066   0.00000  Uiso   1.00
C157   C     0.65245   0.09906   0.60460   0.00000  Uiso   1.00
C158   C     0.67543   0.05769   0.65165   0.00000  Uiso   1.00
C159   C     0.73838   0.15646   0.34215   0.00000  Uiso   1.00
C160   C     0.79596   0.19515   0.34965   0.00000  Uiso   1.00
C161   C     0.88459   0.19773   0.28011   0.00000  Uiso   1.00
H162   H     0.71721   0.05521   0.21567   0.00000  Uiso   1.00
H163   H     0.54366   0.05781   0.08983   0.00000  Uiso   1.00
H164   H     0.73644   0.00099   0.39569   0.00000  Uiso   1.00
H165   H     0.87993   0.09707   0.14078   0.00000  Uiso   1.00
H166   H     0.33804   0.07606   0.98311   0.00000  Uiso   1.00
H167   H     0.74458   0.95627   0.62804   0.00000  Uiso   1.00
H168   H     0.04715   0.15886   0.09051   0.00000  Uiso   1.00
H169   H     0.61568   0.17379   0.46821   0.00000  Uiso   1.00
H170   H     0.43654   0.18289   0.35622   0.00000  Uiso   1.00
H171   H     0.62933   0.12607   0.66208   0.00000  Uiso   1.00
H172   H     0.77281   0.22215   0.40717   0.00000  Uiso   1.00
H173   H     0.25111   0.17757   0.19933   0.00000  Uiso   1.00
H174   H     0.65765   0.05778   0.84426   0.00000  Uiso   1.00
H175   H     0.96021   0.26038   0.30672   0.00000  Uiso   1.00
O176   O     0.17855   0.13065   0.01302   0.00000  Uiso   1.00
O177   O     0.71193   0.97349   0.85914   0.00000  Uiso   1.00
O178   O     0.10889   0.23930   0.15390   0.00000  Uiso   1.00
N179   N     0.34218   0.09871   0.04935   0.00000  Uiso   1.00
N180   N     0.72225   0.98671   0.65232   0.00000  Uiso   1.00
N181   N     0.00514   0.17611   0.14979   0.00000  Uiso   1.00
N182   N     0.29540   0.15333   0.16569   0.00000  Uiso   1.00
N183   N     0.67547   0.04133   0.76866   0.00000  Uiso   1.00
N184   N     0.95836   0.23074   0.26614   0.00000  Uiso   1.00
C185   C     0.80254   0.57819   0.31527   0.00000  Uiso   1.00
C186   C     0.90929   0.59512   0.27815   0.00000  Uiso   1.00
C187   C     0.97042   0.57716   0.18881   0.00000  Uiso   1.00
C188   C     0.06567   0.59745   0.16846   0.00000  Uiso   1.00
C189   C     0.22646   0.61811   0.10072   0.00000  Uiso   1.00
C190   C     0.81212   0.56896   0.45045   0.00000  Uiso   1.00
C191   C     0.79152   0.52901   0.50598   0.00000  Uiso   1.00
C192   C     0.80496   0.52728   0.63069   0.00000  Uiso   1.00
C193   C     0.81481   0.50734   0.83047   0.00000  Uiso   1.00
C194   C     0.72764   0.61704   0.30134   0.00000  Uiso   1.00
C195   C     0.63600   0.61752   0.23152   0.00000  Uiso   1.00
C196   C     0.57830   0.65627   0.23070   0.00000  Uiso   1.00
C197   C     0.45699   0.71098   0.19895   0.00000  Uiso   1.00
C198   C     0.86300   0.64613   0.43801   0.00000  Uiso   1.00
C199   C     0.94213   0.63202   0.34482   0.00000  Uiso   1.00
C200   C     0.03731   0.65234   0.32460   0.00000  Uiso   1.00
C201   C     0.09857   0.63442   0.23525   0.00000  Uiso   1.00
C202   C     0.84496   0.60586   0.51712   0.00000  Uiso   1.00
C203   C     0.85842   0.60419   0.64178   0.00000  Uiso   1.00
C204   C     0.83786   0.56425   0.69748   0.00000  Uiso   1.00
C205   C     0.76048   0.65395   0.36801   0.00000  Uiso   1.00
C206   C     0.70291   0.69270   0.36731   0.00000  Uiso   1.00
C207   C     0.61120   0.69324   0.29750   0.00000  Uiso   1.00
H208   H     0.77697   0.54945   0.26337   0.00000  Uiso   1.00
H209   H     0.94498   0.54860   0.13724   0.00000  Uiso   1.00
H210   H     0.76610   0.50046   0.45437   0.00000  Uiso   1.00
H211   H     0.61062   0.58896   0.17994   0.00000  Uiso   1.00
H212   H     0.14575   0.56392   0.02682   0.00000  Uiso   1.00
H213   H     0.76855   0.46242   0.69551   0.00000  Uiso   1.00
H214   H     0.44066   0.64903   0.11683   0.00000  Uiso   1.00
H215   H     0.88857   0.67487   0.48992   0.00000  Uiso   1.00
H216   H     0.06271   0.68090   0.37621   0.00000  Uiso   1.00
H217   H     0.88383   0.63276   0.69334   0.00000  Uiso   1.00
H218   H     0.72834   0.72125   0.41892   0.00000  Uiso   1.00
H219   H     0.24131   0.67130   0.22079   0.00000  Uiso   1.00
H220   H     0.86409   0.56980   0.88948   0.00000  Uiso   1.00
H221   H     0.53622   0.75641   0.31079   0.00000  Uiso   1.00
O222   O     0.30608   0.61931   0.04495   0.00000  Uiso   1.00
O223   O     0.81118   0.48614   0.92224   0.00000  Uiso   1.00
O224   O     0.38102   0.73097   0.16301   0.00000  Uiso   1.00
N225   N     0.14433   0.58837   0.08806   0.00000  Uiso   1.00
N226   N     0.79168   0.49347   0.71324   0.00000  Uiso   1.00
N227   N     0.48513   0.66793   0.17225   0.00000  Uiso   1.00
N228   N     0.19575   0.64615   0.19243   0.00000  Uiso   1.00
N229   N     0.84310   0.55125   0.81761   0.00000  Uiso   1.00
N230   N     0.53654   0.72571   0.27662   0.00000  Uiso   1.00
C231   C     0.04937   0.41463   0.33497   0.00000  Uiso   1.00
C232   C     0.94173   0.39566   0.30334   0.00000  Uiso   1.00
C233   C     0.87580   0.40967   0.20959   0.00000  Uiso   1.00
C234   C     0.78056   0.38809   0.19557   0.00000  Uiso   1.00
C235   C     0.61768   0.36387   0.13477   0.00000  Uiso   1.00
C236   C     0.04545   0.42892   0.46679   0.00000  Uiso   1.00
C237   C     0.06675   0.47091   0.51047   0.00000  Uiso   1.00
C238   C     0.05885   0.47732   0.63404   0.00000  Uiso   1.00
C239   C     0.05709   0.50474   0.82701   0.00000  Uiso   1.00
C240   C     0.12536   0.37596   0.33197   0.00000  Uiso   1.00
C241   C     0.21386   0.37342   0.26230   0.00000  Uiso   1.00
C242   C     0.27324   0.33525   0.27238   0.00000  Uiso   1.00
C243   C     0.39555   0.28044   0.25602   0.00000  Uiso   1.00
C244   C     0.99747   0.35137   0.47677   0.00000  Uiso   1.00
C245   C     0.91354   0.36129   0.38036   0.00000  Uiso   1.00
C246   C     0.81838   0.33968   0.36647   0.00000  Uiso   1.00
C247   C     0.75232   0.35366   0.27272   0.00000  Uiso   1.00
C248   C     0.01727   0.39456   0.54381   0.00000  Uiso   1.00
C249   C     0.00934   0.40091   0.66735   0.00000  Uiso   1.00
C250   C     0.03061   0.44290   0.71120   0.00000  Uiso   1.00
C251   C     0.09717   0.34160   0.40898   0.00000  Uiso   1.00
C252   C     0.15644   0.30342   0.41918   0.00000  Uiso   1.00
C253   C     0.24501   0.30083   0.34954   0.00000  Uiso   1.00
H254   H     0.07132   0.44139   0.27502   0.00000  Uiso   1.00
H255   H     0.89763   0.43627   0.15002   0.00000  Uiso   1.00
H256   H     0.08857   0.49749   0.45084   0.00000  Uiso   1.00
H257   H     0.23565   0.40002   0.20271   0.00000  Uiso   1.00
H258   H     0.69263   0.41546   0.04542   0.00000  Uiso   1.00
H259   H     0.09527   0.54454   0.67974   0.00000  Uiso   1.00
H260   H     0.40541   0.33901   0.15651   0.00000  Uiso   1.00
H261   H     0.97553   0.32461   0.53674   0.00000  Uiso   1.00
H262   H     0.79659   0.31309   0.42609   0.00000  Uiso   1.00
H263   H     0.98753   0.37431   0.72692   0.00000  Uiso   1.00
H264   H     0.13460   0.27684   0.47879   0.00000  Uiso   1.00
H265   H     0.61061   0.31548   0.26949   0.00000  Uiso   1.00
H266   H     0.01326   0.44456   0.90381   0.00000  Uiso   1.00
H267   H     0.32340   0.23903   0.38059   0.00000  Uiso   1.00
O268   O     0.53562   0.36000   0.07997   0.00000  Uiso   1.00
O269   O     0.06389   0.52936   0.91217   0.00000  Uiso   1.00
O270   O     0.47078   0.25970   0.22571   0.00000  Uiso   1.00
N271   N     0.69789   0.39350   0.11333   0.00000  Uiso   1.00
N272   N     0.07432   0.51419   0.70637   0.00000  Uiso   1.00
N273   N     0.36429   0.32204   0.21722   0.00000  Uiso   1.00
N274   N     0.65376   0.33970   0.23390   0.00000  Uiso   1.00
N275   N     0.03019   0.46039   0.82694   0.00000  Uiso   1.00
N276   N     0.32016   0.26824   0.33779   0.00000  Uiso   1.00
C277   C     0.56074   0.42262   0.73477   0.00000  Uiso   1.00
C278   C     0.45498   0.40458   0.77182   0.00000  Uiso   1.00
C279   C     0.39364   0.42141   0.86256   0.00000  Uiso   1.00
C280   C     0.29942   0.40024   0.88256   0.00000  Uiso   1.00
C281   C     0.13999   0.37783   0.95044   0.00000  Uiso   1.00
C282   C     0.54995   0.43272   0.60015   0.00000  Uiso   1.00
C283   C     0.56848   0.47321   0.54655   0.00000  Uiso   1.00
C284   C     0.55422   0.47572   0.42204   0.00000  Uiso   1.00
C285   C     0.54232   0.49699   0.22339   0.00000  Uiso   1.00
C286   C     0.63737   0.38427   0.74610   0.00000  Uiso   1.00
C287   C     0.72942   0.38402   0.81520   0.00000  Uiso   1.00
C288   C     0.78878   0.34574   0.81355   0.00000  Uiso   1.00
C289   C     0.91260   0.29178   0.84152   0.00000  Uiso   1.00
C290   C     0.50250   0.35508   0.60894   0.00000  Uiso   1.00
C291   C     0.42335   0.36790   0.70347   0.00000  Uiso   1.00
C292   C     0.32920   0.34669   0.72334   0.00000  Uiso   1.00
C293   C     0.26773   0.36349   0.81410   0.00000  Uiso   1.00
C294   C     0.51832   0.39604   0.53180   0.00000  Uiso   1.00
C295   C     0.50404   0.39849   0.40734   0.00000  Uiso   1.00
C296   C     0.52253   0.43897   0.35357   0.00000  Uiso   1.00
C297   C     0.60574   0.34759   0.67776   0.00000  Uiso   1.00
C298   C     0.66497   0.30930   0.67599   0.00000  Uiso   1.00
C299   C     0.75709   0.30899   0.74508   0.00000  Uiso   1.00
H300   H     0.58537   0.45118   0.78797   0.00000  Uiso   1.00
H301   H     0.41814   0.44980   0.91542   0.00000  Uiso   1.00
H302   H     0.59297   0.50159   0.59947   0.00000  Uiso   1.00
H303   H     0.75387   0.41241   0.86808   0.00000  Uiso   1.00
H304   H     0.21877   0.43211   0.02656   0.00000  Uiso   1.00
H305   H     0.58743   0.54130   0.36034   0.00000  Uiso   1.00
H306   H     0.92674   0.35326   0.92676   0.00000  Uiso   1.00
H307   H     0.47787   0.32653   0.55572   0.00000  Uiso   1.00
H308   H     0.30474   0.31831   0.67043   0.00000  Uiso   1.00
H309   H     0.47957   0.37010   0.35447   0.00000  Uiso   1.00
H310   H     0.64047   0.28092   0.62309   0.00000  Uiso   1.00
H311   H     0.12672   0.32539   0.82771   0.00000  Uiso   1.00
H312   H     0.49540   0.43458   0.16149   0.00000  Uiso   1.00
H313   H     0.83469   0.24654   0.72791   0.00000  Uiso   1.00
O314   O     0.06078   0.37560   0.00676   0.00000  Uiso   1.00
O315   O     0.54448   0.51885   0.13271   0.00000  Uiso   1.00
O316   O     0.98963   0.27215   0.87584   0.00000  Uiso   1.00
N317   N     0.22087   0.40812   0.96403   0.00000  Uiso   1.00
N318   N     0.56554   0.51020   0.34116   0.00000  Uiso   1.00
N319   N     0.88277   0.33441   0.87069   0.00000  Uiso   1.00
N320   N     0.17135   0.35069   0.85703   0.00000  Uiso   1.00
N321   N     0.51601   0.45278   0.23416   0.00000  Uiso   1.00
N322   N     0.83325   0.27698   0.76369   0.00000  Uiso   1.00
C323   C     0.30605   0.58238   0.72648   0.00000  Uiso   1.00
C324   C     0.41442   0.60023   0.75984   0.00000  Uiso   1.00
C325   C     0.47949   0.58481   0.85268   0.00000  Uiso   1.00
C326   C     0.57562   0.60554   0.86861   0.00000  Uiso   1.00
C327   C     0.73937   0.62794   0.93168   0.00000  Uiso   1.00
C328   C     0.30969   0.56936   0.59365   0.00000  Uiso   1.00
C329   C     0.28669   0.52799   0.54678   0.00000  Uiso   1.00
C330   C     0.29464   0.52273   0.42280   0.00000  Uiso   1.00
C331   C     0.29572   0.49721   0.22786   0.00000  Uiso   1.00
C332   C     0.23174   0.62157   0.73216   0.00000  Uiso   1.00
C333   C     0.14317   0.62408   0.80173   0.00000  Uiso   1.00
C334   C     0.08548   0.66277   0.79435   0.00000  Uiso   1.00
C335   C     0.96552   0.71830   0.81446   0.00000  Uiso   1.00
C336   C     0.36106   0.64662   0.58965   0.00000  Uiso   1.00
C337   C     0.44430   0.63513   0.68551   0.00000  Uiso   1.00
C338   C     0.54035   0.65589   0.70131   0.00000  Uiso   1.00
C339   C     0.60555   0.64050   0.79416   0.00000  Uiso   1.00
C340   C     0.33957   0.60425   0.51934   0.00000  Uiso   1.00
C341   C     0.34755   0.59906   0.39540   0.00000  Uiso   1.00
C342   C     0.32457   0.55769   0.34835   0.00000  Uiso   1.00
C343   C     0.26162   0.65646   0.65785   0.00000  Uiso   1.00
C344   C     0.20404   0.69515   0.65035   0.00000  Uiso   1.00
C345   C     0.11541   0.69773   0.71989   0.00000  Uiso   1.00
H346   H     0.28279   0.55521   0.78433   0.00000  Uiso   1.00
H347   H     0.45634   0.55781   0.91017   0.00000  Uiso   1.00
H348   H     0.26356   0.50099   0.60431   0.00000  Uiso   1.00
H349   H     0.12007   0.59707   0.85922   0.00000  Uiso   1.00
H350   H     0.66196   0.57606   0.01689   0.00000  Uiso   1.00
H351   H     0.25542   0.45627   0.37196   0.00000  Uiso   1.00
H352   H     0.95285   0.65886   0.90949   0.00000  Uiso   1.00
H353   H     0.38432   0.67379   0.53179   0.00000  Uiso   1.00
H354   H     0.56346   0.68289   0.64378   0.00000  Uiso   1.00
H355   H     0.37067   0.62607   0.33792   0.00000  Uiso   1.00
H356   H     0.22719   0.72215   0.59283   0.00000  Uiso   1.00
H357   H     0.74889   0.67757   0.80067   0.00000  Uiso   1.00
H358   H     0.34235   0.55778   0.15574   0.00000  Uiso   1.00
H359   H     0.03979   0.76038   0.69328   0.00000  Uiso   1.00
O360   O     0.82145   0.63065   0.98698   0.00000  Uiso   1.00
O361   O     0.28807   0.47349   0.14086   0.00000  Uiso   1.00
O362   O     0.89111   0.73930   0.84610   0.00000  Uiso   1.00
N363   N     0.65782   0.59871   0.95065   0.00000  Uiso   1.00
N364   N     0.27775   0.48671   0.34768   0.00000  Uiso   1.00
N365   N     0.99486   0.67611   0.85021   0.00000  Uiso   1.00
N366   N     0.70460   0.65333   0.83431   0.00000  Uiso   1.00
N367   N     0.32453   0.54133   0.23134   0.00000  Uiso   1.00
N368   N     0.04164   0.73074   0.73386   0.00000  Uiso   1.00
