data_job_05432
_audit_creation_date              2018-12-19
_audit_creation_method            'Materials Studio'
_symmetry_space_group_name_H-M    'P1'
_symmetry_Int_Tables_number       1
_symmetry_cell_setting            triclinic
loop_
_symmetry_equiv_pos_as_xyz
  x,y,z
_cell_length_a                    20.1023
_cell_length_b                    17.0093
_cell_length_c                    8.1243
_cell_angle_alpha                 90.0000
_cell_angle_beta                  90.0000
_cell_angle_gamma                 90.0000
loop_
_atom_site_label
_atom_site_type_symbol
_atom_site_fract_x
_atom_site_fract_y
_atom_site_fract_z
_atom_site_U_iso_or_equiv
_atom_site_adp_type
_atom_site_occupancy
C1     C     0.93599   0.79363   0.68835   0.00000  Uiso   1.00
C2     C     0.89926   0.71527   0.68075   0.00000  Uiso   1.00
C3     C     0.87423   0.68027   0.53942   0.00000  Uiso   1.00
C4     C     0.84220   0.60851   0.55832   0.00000  Uiso   1.00
C5     C     0.78617   0.49224   0.52298   0.00000  Uiso   1.00
C6     C     0.89743   0.84451   0.80993   0.00000  Uiso   1.00
C7     C     0.87086   0.91818   0.77723   0.00000  Uiso   1.00
C8     C     0.83730   0.95522   0.90488   0.00000  Uiso   1.00
C9     C     0.77846   0.03963   0.07014   0.00000  Uiso   1.00
C10    C     0.00280   0.77644   0.76960   0.00000  Uiso   1.00
C11    C     0.06484   0.79289   0.70301   0.00000  Uiso   1.00
C12    C     0.11999   0.77264   0.79673   0.00000  Uiso   1.00
C13    C     0.22477   0.75135   0.89936   0.00000  Uiso   1.00
C14    C     0.92364   0.72843   0.97322   0.00000  Uiso   1.00
C15    C     0.89255   0.67985   0.83548   0.00000  Uiso   1.00
C16    C     0.86056   0.60813   0.85459   0.00000  Uiso   1.00
C17    C     0.83548   0.57303   0.71332   0.00000  Uiso   1.00
C18    C     0.89072   0.80910   0.96465   0.00000  Uiso   1.00
C19    C     0.85719   0.84604   0.09239   0.00000  Uiso   1.00
C20    C     0.83058   0.91974   0.05989   0.00000  Uiso   1.00
C21    C     0.99610   0.74102   0.92433   0.00000  Uiso   1.00
C22    C     0.05117   0.72075   0.01817   0.00000  Uiso   1.00
C23    C     0.11327   0.73716   0.95173   0.00000  Uiso   1.00
H24    H     0.94121   0.82120   0.56790   0.00000  Uiso   1.00
H25    H     0.87942   0.70770   0.41971   0.00000  Uiso   1.00
H26    H     0.87606   0.94557   0.65748   0.00000  Uiso   1.00
H27    H     0.07001   0.82030   0.58327   0.00000  Uiso   1.00
H28    H     0.80794   0.56625   0.32365   0.00000  Uiso   1.00
H29    H     0.80087   0.06783   0.82503   0.00000  Uiso   1.00
H30    H     0.20985   0.80367   0.66854   0.00000  Uiso   1.00
H31    H     0.91841   0.70086   0.09368   0.00000  Uiso   1.00
H32    H     0.85538   0.58074   0.97434   0.00000  Uiso   1.00
H33    H     0.85202   0.81862   0.21211   0.00000  Uiso   1.00
H34    H     0.04596   0.69334   0.13790   0.00000  Uiso   1.00
H35    H     0.78842   0.46321   0.77381   0.00000  Uiso   1.00
H36    H     0.78136   0.96480   0.27519   0.00000  Uiso   1.00
H37    H     0.19033   0.70063   0.11870   0.00000  Uiso   1.00
O38    O     0.75711   0.43790   0.46075   0.00000  Uiso   1.00
O39    O     0.74785   0.09596   0.11854   0.00000  Uiso   1.00
O40    O     0.28441   0.74938   0.91323   0.00000  Uiso   1.00
N41    N     0.81201   0.55848   0.44597   0.00000  Uiso   1.00
N42    N     0.80539   0.02742   0.91472   0.00000  Uiso   1.00
N43    N     0.18775   0.78047   0.76844   0.00000  Uiso   1.00
N44    N     0.80151   0.50303   0.68820   0.00000  Uiso   1.00
N45    N     0.79489   0.97198   0.15695   0.00000  Uiso   1.00
N46    N     0.17725   0.72502   0.01066   0.00000  Uiso   1.00
C47    C     0.06401   0.20637   0.18835   0.00000  Uiso   1.00
C48    C     0.10074   0.28473   0.18075   0.00000  Uiso   1.00
C49    C     0.12577   0.31973   0.03942   0.00000  Uiso   1.00
C50    C     0.15780   0.39149   0.05832   0.00000  Uiso   1.00
C51    C     0.21383   0.50776   0.02298   0.00000  Uiso   1.00
C52    C     0.10257   0.15549   0.30993   0.00000  Uiso   1.00
C53    C     0.12914   0.08182   0.27723   0.00000  Uiso   1.00
C54    C     0.16270   0.04478   0.40488   0.00000  Uiso   1.00
C55    C     0.22154   0.96037   0.57014   0.00000  Uiso   1.00
C56    C     0.99720   0.22356   0.26960   0.00000  Uiso   1.00
C57    C     0.93516   0.20711   0.20301   0.00000  Uiso   1.00
C58    C     0.88001   0.22736   0.29673   0.00000  Uiso   1.00
C59    C     0.77523   0.24865   0.39936   0.00000  Uiso   1.00
C60    C     0.07636   0.27157   0.47322   0.00000  Uiso   1.00
C61    C     0.10745   0.32015   0.33548   0.00000  Uiso   1.00
C62    C     0.13944   0.39187   0.35459   0.00000  Uiso   1.00
C63    C     0.16452   0.42697   0.21332   0.00000  Uiso   1.00
C64    C     0.10928   0.19090   0.46465   0.00000  Uiso   1.00
C65    C     0.14281   0.15396   0.59239   0.00000  Uiso   1.00
C66    C     0.16942   0.08026   0.55989   0.00000  Uiso   1.00
C67    C     0.00390   0.25898   0.42433   0.00000  Uiso   1.00
C68    C     0.94883   0.27925   0.51817   0.00000  Uiso   1.00
C69    C     0.88673   0.26284   0.45173   0.00000  Uiso   1.00
H70    H     0.05879   0.17880   0.06790   0.00000  Uiso   1.00
H71    H     0.12058   0.29230   0.91971   0.00000  Uiso   1.00
H72    H     0.12394   0.05443   0.15748   0.00000  Uiso   1.00
H73    H     0.92999   0.17970   0.08327   0.00000  Uiso   1.00
H74    H     0.19206   0.43375   0.82365   0.00000  Uiso   1.00
H75    H     0.19913   0.93217   0.32503   0.00000  Uiso   1.00
H76    H     0.79015   0.19633   0.16854   0.00000  Uiso   1.00
H77    H     0.08159   0.29914   0.59368   0.00000  Uiso   1.00
H78    H     0.14462   0.41926   0.47434   0.00000  Uiso   1.00
H79    H     0.14798   0.18138   0.71211   0.00000  Uiso   1.00
H80    H     0.95404   0.30666   0.63790   0.00000  Uiso   1.00
H81    H     0.21158   0.53679   0.27381   0.00000  Uiso   1.00
H82    H     0.21864   0.03520   0.77519   0.00000  Uiso   1.00
H83    H     0.80967   0.29937   0.61870   0.00000  Uiso   1.00
O84    O     0.24289   0.56210   0.96075   0.00000  Uiso   1.00
O85    O     0.25215   0.90404   0.61854   0.00000  Uiso   1.00
O86    O     0.71559   0.25062   0.41323   0.00000  Uiso   1.00
N87    N     0.18799   0.44152   0.94597   0.00000  Uiso   1.00
N88    N     0.19461   0.97258   0.41472   0.00000  Uiso   1.00
N89    N     0.81225   0.21953   0.26844   0.00000  Uiso   1.00
N90    N     0.19849   0.49697   0.18820   0.00000  Uiso   1.00
N91    N     0.20511   0.02802   0.65695   0.00000  Uiso   1.00
N92    N     0.82275   0.27498   0.51066   0.00000  Uiso   1.00
C93    C     0.43599   0.20637   0.68835   0.00000  Uiso   1.00
C94    C     0.39926   0.28473   0.68075   0.00000  Uiso   1.00
C95    C     0.37423   0.31973   0.53942   0.00000  Uiso   1.00
C96    C     0.34220   0.39149   0.55832   0.00000  Uiso   1.00
C97    C     0.28617   0.50776   0.52298   0.00000  Uiso   1.00
C98    C     0.39743   0.15549   0.80993   0.00000  Uiso   1.00
C99    C     0.37086   0.08182   0.77723   0.00000  Uiso   1.00
C100   C     0.33730   0.04478   0.90488   0.00000  Uiso   1.00
C101   C     0.27846   0.96037   0.07014   0.00000  Uiso   1.00
C102   C     0.50280   0.22356   0.76960   0.00000  Uiso   1.00
C103   C     0.56484   0.20711   0.70301   0.00000  Uiso   1.00
C104   C     0.61999   0.22736   0.79673   0.00000  Uiso   1.00
C105   C     0.72477   0.24865   0.89936   0.00000  Uiso   1.00
C106   C     0.42364   0.27157   0.97322   0.00000  Uiso   1.00
C107   C     0.39255   0.32015   0.83548   0.00000  Uiso   1.00
C108   C     0.36056   0.39187   0.85459   0.00000  Uiso   1.00
C109   C     0.33548   0.42697   0.71332   0.00000  Uiso   1.00
C110   C     0.39072   0.19090   0.96465   0.00000  Uiso   1.00
C111   C     0.35719   0.15396   0.09239   0.00000  Uiso   1.00
C112   C     0.33058   0.08026   0.05989   0.00000  Uiso   1.00
C113   C     0.49610   0.25898   0.92433   0.00000  Uiso   1.00
C114   C     0.55117   0.27925   0.01817   0.00000  Uiso   1.00
C115   C     0.61327   0.26284   0.95173   0.00000  Uiso   1.00
H116   H     0.44121   0.17880   0.56790   0.00000  Uiso   1.00
H117   H     0.37942   0.29230   0.41971   0.00000  Uiso   1.00
H118   H     0.37606   0.05443   0.65748   0.00000  Uiso   1.00
H119   H     0.57001   0.17970   0.58327   0.00000  Uiso   1.00
H120   H     0.30794   0.43375   0.32365   0.00000  Uiso   1.00
H121   H     0.30087   0.93217   0.82503   0.00000  Uiso   1.00
H122   H     0.70985   0.19633   0.66854   0.00000  Uiso   1.00
H123   H     0.41841   0.29914   0.09368   0.00000  Uiso   1.00
H124   H     0.35538   0.41926   0.97434   0.00000  Uiso   1.00
H125   H     0.35202   0.18138   0.21211   0.00000  Uiso   1.00
H126   H     0.54596   0.30666   0.13790   0.00000  Uiso   1.00
H127   H     0.28842   0.53679   0.77381   0.00000  Uiso   1.00
H128   H     0.28136   0.03520   0.27519   0.00000  Uiso   1.00
H129   H     0.69033   0.29937   0.11870   0.00000  Uiso   1.00
O130   O     0.25711   0.56210   0.46075   0.00000  Uiso   1.00
O131   O     0.24785   0.90404   0.11854   0.00000  Uiso   1.00
O132   O     0.78441   0.25062   0.91323   0.00000  Uiso   1.00
N133   N     0.31201   0.44152   0.44597   0.00000  Uiso   1.00
N134   N     0.30539   0.97258   0.91472   0.00000  Uiso   1.00
N135   N     0.68775   0.21953   0.76844   0.00000  Uiso   1.00
N136   N     0.30151   0.49697   0.68820   0.00000  Uiso   1.00
N137   N     0.29489   0.02802   0.15695   0.00000  Uiso   1.00
N138   N     0.67725   0.27498   0.01066   0.00000  Uiso   1.00
C139   C     0.56401   0.79363   0.18835   0.00000  Uiso   1.00
C140   C     0.60074   0.71527   0.18075   0.00000  Uiso   1.00
C141   C     0.62577   0.68027   0.03942   0.00000  Uiso   1.00
C142   C     0.65780   0.60851   0.05832   0.00000  Uiso   1.00
C143   C     0.71383   0.49224   0.02298   0.00000  Uiso   1.00
C144   C     0.60257   0.84451   0.30993   0.00000  Uiso   1.00
C145   C     0.62914   0.91818   0.27723   0.00000  Uiso   1.00
C146   C     0.66270   0.95522   0.40488   0.00000  Uiso   1.00
C147   C     0.72154   0.03963   0.57014   0.00000  Uiso   1.00
C148   C     0.49720   0.77644   0.26960   0.00000  Uiso   1.00
C149   C     0.43516   0.79289   0.20301   0.00000  Uiso   1.00
C150   C     0.38001   0.77264   0.29673   0.00000  Uiso   1.00
C151   C     0.27523   0.75135   0.39936   0.00000  Uiso   1.00
C152   C     0.57636   0.72843   0.47322   0.00000  Uiso   1.00
C153   C     0.60745   0.67985   0.33548   0.00000  Uiso   1.00
C154   C     0.63944   0.60813   0.35459   0.00000  Uiso   1.00
C155   C     0.66452   0.57303   0.21332   0.00000  Uiso   1.00
C156   C     0.60928   0.80910   0.46465   0.00000  Uiso   1.00
C157   C     0.64281   0.84604   0.59239   0.00000  Uiso   1.00
C158   C     0.66942   0.91974   0.55989   0.00000  Uiso   1.00
C159   C     0.50390   0.74102   0.42433   0.00000  Uiso   1.00
C160   C     0.44883   0.72075   0.51817   0.00000  Uiso   1.00
C161   C     0.38673   0.73716   0.45173   0.00000  Uiso   1.00
H162   H     0.55879   0.82120   0.06790   0.00000  Uiso   1.00
H163   H     0.62058   0.70770   0.91971   0.00000  Uiso   1.00
H164   H     0.62394   0.94557   0.15748   0.00000  Uiso   1.00
H165   H     0.42999   0.82030   0.08327   0.00000  Uiso   1.00
H166   H     0.69206   0.56625   0.82365   0.00000  Uiso   1.00
H167   H     0.69913   0.06783   0.32503   0.00000  Uiso   1.00
H168   H     0.29015   0.80367   0.16854   0.00000  Uiso   1.00
H169   H     0.58159   0.70086   0.59368   0.00000  Uiso   1.00
H170   H     0.64462   0.58074   0.47434   0.00000  Uiso   1.00
H171   H     0.64798   0.81862   0.71211   0.00000  Uiso   1.00
H172   H     0.45404   0.69334   0.63790   0.00000  Uiso   1.00
H173   H     0.71158   0.46321   0.27381   0.00000  Uiso   1.00
H174   H     0.71864   0.96480   0.77519   0.00000  Uiso   1.00
H175   H     0.30967   0.70063   0.61870   0.00000  Uiso   1.00
O176   O     0.74289   0.43790   0.96075   0.00000  Uiso   1.00
O177   O     0.75215   0.09596   0.61854   0.00000  Uiso   1.00
O178   O     0.21559   0.74938   0.41323   0.00000  Uiso   1.00
N179   N     0.68799   0.55848   0.94597   0.00000  Uiso   1.00
N180   N     0.69461   0.02742   0.41472   0.00000  Uiso   1.00
N181   N     0.31225   0.78047   0.26844   0.00000  Uiso   1.00
N182   N     0.69849   0.50303   0.18820   0.00000  Uiso   1.00
N183   N     0.70511   0.97198   0.65695   0.00000  Uiso   1.00
N184   N     0.32275   0.72502   0.51066   0.00000  Uiso   1.00
