data_job_04836
_audit_creation_date              2018-12-19
_audit_creation_method            'Materials Studio'
_symmetry_space_group_name_H-M    'P1'
_symmetry_Int_Tables_number       1
_symmetry_cell_setting            triclinic
loop_
_symmetry_equiv_pos_as_xyz
  x,y,z
_cell_length_a                    28.0785
_cell_length_b                    7.1882
_cell_length_c                    26.8371
_cell_angle_alpha                 90.0000
_cell_angle_beta                  154.2895
_cell_angle_gamma                 90.0000
loop_
_atom_site_label
_atom_site_type_symbol
_atom_site_fract_x
_atom_site_fract_y
_atom_site_fract_z
_atom_site_U_iso_or_equiv
_atom_site_adp_type
_atom_site_occupancy
C1     C     0.24000   0.61014   0.10791   0.00000  Uiso   1.00
C2     C     0.26003   0.55428   0.07274   0.00000  Uiso   1.00
C3     C     0.24761   0.66903   0.01983   0.00000  Uiso   1.00
C4     C     0.26994   0.59168   0.99457   0.00000  Uiso   1.00
C5     C     0.29589   0.53313   0.93584   0.00000  Uiso   1.00
C6     C     0.15562   0.47283   0.04861   0.00000  Uiso   1.00
C7     C     0.05543   0.51911   0.97543   0.00000  Uiso   1.00
C8     C     0.98988   0.37318   0.92987   0.00000  Uiso   1.00
C9     C     0.85377   0.18818   0.83375   0.00000  Uiso   1.00
C10    C     0.34664   0.56931   0.23612   0.00000  Uiso   1.00
C11    C     0.40705   0.69671   0.32060   0.00000  Uiso   1.00
C12    C     0.50231   0.63201   0.43291   0.00000  Uiso   1.00
C13    C     0.66279   0.59683   0.62791   0.00000  Uiso   1.00
C14    C     0.30175   0.26870   0.15715   0.00000  Uiso   1.00
C15    C     0.29357   0.36882   0.09948   0.00000  Uiso   1.00
C16    C     0.31593   0.29127   0.07431   0.00000  Uiso   1.00
C17    C     0.30354   0.40589   0.02137   0.00000  Uiso   1.00
C18    C     0.18916   0.28737   0.07535   0.00000  Uiso   1.00
C19    C     0.12375   0.14134   0.02990   0.00000  Uiso   1.00
C20    C     0.02347   0.18739   0.95666   0.00000  Uiso   1.00
C21    C     0.38019   0.38386   0.26287   0.00000  Uiso   1.00
C22    C     0.47537   0.31894   0.37507   0.00000  Uiso   1.00
C23    C     0.53591   0.44621   0.45970   0.00000  Uiso   1.00
H24    H     0.21388   0.75452   0.08709   0.00000  Uiso   1.00
H25    H     0.22164   0.81254   0.99914   0.00000  Uiso   1.00
H26    H     0.02950   0.66264   0.95476   0.00000  Uiso   1.00
H27    H     0.38107   0.84021   0.29987   0.00000  Uiso   1.00
H28    H     0.24500   0.79507   0.91338   0.00000  Uiso   1.00
H29    H     0.83987   0.47899   0.81983   0.00000  Uiso   1.00
H30    H     0.58122   0.85344   0.54757   0.00000  Uiso   1.00
H31    H     0.32786   0.12430   0.17797   0.00000  Uiso   1.00
H32    H     0.34188   0.14775   0.09501   0.00000  Uiso   1.00
H33    H     0.14973   0.99784   0.05062   0.00000  Uiso   1.00
H34    H     0.50130   0.17542   0.39573   0.00000  Uiso   1.00
H35    H     0.34258   0.25549   0.99119   0.00000  Uiso   1.00
H36    H     0.93745   0.93942   0.89764   0.00000  Uiso   1.00
H37    H     0.67880   0.31387   0.62538   0.00000  Uiso   1.00
O38    O     0.30092   0.55205   0.89604   0.00000  Uiso   1.00
O39    O     0.76942   0.13738   0.77332   0.00000  Uiso   1.00
O40    O     0.74205   0.62865   0.72809   0.00000  Uiso   1.00
N41    N     0.26606   0.66487   0.94310   0.00000  Uiso   1.00
N42    N     0.88728   0.36936   0.85562   0.00000  Uiso   1.00
N43    N     0.58037   0.71943   0.53599   0.00000  Uiso   1.00
N44    N     0.31857   0.37453   0.98497   0.00000  Uiso   1.00
N45    N     0.93979   0.07902   0.89749   0.00000  Uiso   1.00
N46    N     0.63288   0.42909   0.57786   0.00000  Uiso   1.00
C47    C     0.76000   0.11014   0.39209   0.00000  Uiso   1.00
C48    C     0.73997   0.05428   0.42726   0.00000  Uiso   1.00
C49    C     0.75239   0.16903   0.48017   0.00000  Uiso   1.00
C50    C     0.73006   0.09168   0.50543   0.00000  Uiso   1.00
C51    C     0.70411   0.03313   0.56416   0.00000  Uiso   1.00
C52    C     0.84438   0.97283   0.45139   0.00000  Uiso   1.00
C53    C     0.94457   0.01911   0.52457   0.00000  Uiso   1.00
C54    C     0.01012   0.87318   0.57013   0.00000  Uiso   1.00
C55    C     0.14623   0.68818   0.66625   0.00000  Uiso   1.00
C56    C     0.65336   0.06931   0.26388   0.00000  Uiso   1.00
C57    C     0.59295   0.19671   0.17940   0.00000  Uiso   1.00
C58    C     0.49769   0.13201   0.06709   0.00000  Uiso   1.00
C59    C     0.33721   0.09683   0.87209   0.00000  Uiso   1.00
C60    C     0.69825   0.76870   0.34285   0.00000  Uiso   1.00
C61    C     0.70643   0.86882   0.40052   0.00000  Uiso   1.00
C62    C     0.68407   0.79127   0.42569   0.00000  Uiso   1.00
C63    C     0.69646   0.90589   0.47863   0.00000  Uiso   1.00
C64    C     0.81084   0.78737   0.42465   0.00000  Uiso   1.00
C65    C     0.87625   0.64134   0.47010   0.00000  Uiso   1.00
C66    C     0.97653   0.68739   0.54334   0.00000  Uiso   1.00
C67    C     0.61981   0.88386   0.23713   0.00000  Uiso   1.00
C68    C     0.52463   0.81894   0.12493   0.00000  Uiso   1.00
C69    C     0.46409   0.94621   0.04030   0.00000  Uiso   1.00
H70    H     0.78612   0.25452   0.41291   0.00000  Uiso   1.00
H71    H     0.77836   0.31254   0.50086   0.00000  Uiso   1.00
H72    H     0.97050   0.16264   0.54524   0.00000  Uiso   1.00
H73    H     0.61893   0.34021   0.20013   0.00000  Uiso   1.00
H74    H     0.75500   0.29507   0.58662   0.00000  Uiso   1.00
H75    H     0.16013   0.97899   0.68017   0.00000  Uiso   1.00
H76    H     0.41878   0.35344   0.95243   0.00000  Uiso   1.00
H77    H     0.67214   0.62430   0.32203   0.00000  Uiso   1.00
H78    H     0.65812   0.64775   0.40499   0.00000  Uiso   1.00
H79    H     0.85027   0.49784   0.44938   0.00000  Uiso   1.00
H80    H     0.49870   0.67542   0.10427   0.00000  Uiso   1.00
H81    H     0.65742   0.75549   0.50881   0.00000  Uiso   1.00
H82    H     0.06255   0.43942   0.60236   0.00000  Uiso   1.00
H83    H     0.32120   0.81387   0.87462   0.00000  Uiso   1.00
O84    O     0.69908   0.05205   0.60396   0.00000  Uiso   1.00
O85    O     0.23058   0.63738   0.72668   0.00000  Uiso   1.00
O86    O     0.25795   0.12865   0.77191   0.00000  Uiso   1.00
N87    N     0.73394   0.16487   0.55690   0.00000  Uiso   1.00
N88    N     0.11272   0.86936   0.64438   0.00000  Uiso   1.00
N89    N     0.41963   0.21943   0.96401   0.00000  Uiso   1.00
N90    N     0.68143   0.87453   0.51503   0.00000  Uiso   1.00
N91    N     0.06021   0.57902   0.60251   0.00000  Uiso   1.00
N92    N     0.36712   0.92909   0.92214   0.00000  Uiso   1.00
C93    C     0.76000   0.38986   0.89209   0.00000  Uiso   1.00
C94    C     0.73997   0.44572   0.92726   0.00000  Uiso   1.00
C95    C     0.75239   0.33097   0.98017   0.00000  Uiso   1.00
C96    C     0.73006   0.40832   0.00543   0.00000  Uiso   1.00
C97    C     0.70411   0.46687   0.06416   0.00000  Uiso   1.00
C98    C     0.84438   0.52717   0.95139   0.00000  Uiso   1.00
C99    C     0.94457   0.48089   0.02457   0.00000  Uiso   1.00
C100   C     0.01012   0.62682   0.07013   0.00000  Uiso   1.00
C101   C     0.14623   0.81182   0.16625   0.00000  Uiso   1.00
C102   C     0.65336   0.43069   0.76388   0.00000  Uiso   1.00
C103   C     0.59295   0.30329   0.67940   0.00000  Uiso   1.00
C104   C     0.49769   0.36799   0.56709   0.00000  Uiso   1.00
C105   C     0.33721   0.40317   0.37209   0.00000  Uiso   1.00
C106   C     0.69825   0.73130   0.84285   0.00000  Uiso   1.00
C107   C     0.70643   0.63118   0.90052   0.00000  Uiso   1.00
C108   C     0.68407   0.70873   0.92569   0.00000  Uiso   1.00
C109   C     0.69646   0.59411   0.97863   0.00000  Uiso   1.00
C110   C     0.81084   0.71263   0.92465   0.00000  Uiso   1.00
C111   C     0.87625   0.85866   0.97010   0.00000  Uiso   1.00
C112   C     0.97653   0.81261   0.04334   0.00000  Uiso   1.00
C113   C     0.61981   0.61614   0.73713   0.00000  Uiso   1.00
C114   C     0.52463   0.68106   0.62493   0.00000  Uiso   1.00
C115   C     0.46409   0.55379   0.54030   0.00000  Uiso   1.00
H116   H     0.78612   0.24548   0.91291   0.00000  Uiso   1.00
H117   H     0.77836   0.18746   0.00086   0.00000  Uiso   1.00
H118   H     0.97050   0.33736   0.04524   0.00000  Uiso   1.00
H119   H     0.61893   0.15979   0.70013   0.00000  Uiso   1.00
H120   H     0.75500   0.20493   0.08662   0.00000  Uiso   1.00
H121   H     0.16013   0.52101   0.18017   0.00000  Uiso   1.00
H122   H     0.41878   0.14656   0.45243   0.00000  Uiso   1.00
H123   H     0.67214   0.87570   0.82203   0.00000  Uiso   1.00
H124   H     0.65812   0.85225   0.90499   0.00000  Uiso   1.00
H125   H     0.85027   0.00216   0.94938   0.00000  Uiso   1.00
H126   H     0.49870   0.82458   0.60427   0.00000  Uiso   1.00
H127   H     0.65742   0.74451   0.00881   0.00000  Uiso   1.00
H128   H     0.06255   0.06058   0.10236   0.00000  Uiso   1.00
H129   H     0.32120   0.68613   0.37462   0.00000  Uiso   1.00
O130   O     0.69908   0.44795   0.10396   0.00000  Uiso   1.00
O131   O     0.23058   0.86262   0.22668   0.00000  Uiso   1.00
O132   O     0.25795   0.37135   0.27191   0.00000  Uiso   1.00
N133   N     0.73394   0.33513   0.05690   0.00000  Uiso   1.00
N134   N     0.11272   0.63064   0.14438   0.00000  Uiso   1.00
N135   N     0.41963   0.28057   0.46401   0.00000  Uiso   1.00
N136   N     0.68143   0.62547   0.01503   0.00000  Uiso   1.00
N137   N     0.06021   0.92098   0.10251   0.00000  Uiso   1.00
N138   N     0.36712   0.57091   0.42214   0.00000  Uiso   1.00
C139   C     0.24000   0.88986   0.60791   0.00000  Uiso   1.00
C140   C     0.26003   0.94572   0.57274   0.00000  Uiso   1.00
C141   C     0.24761   0.83097   0.51983   0.00000  Uiso   1.00
C142   C     0.26994   0.90832   0.49457   0.00000  Uiso   1.00
C143   C     0.29589   0.96687   0.43584   0.00000  Uiso   1.00
C144   C     0.15562   0.02717   0.54861   0.00000  Uiso   1.00
C145   C     0.05543   0.98089   0.47543   0.00000  Uiso   1.00
C146   C     0.98988   0.12682   0.42987   0.00000  Uiso   1.00
C147   C     0.85377   0.31182   0.33375   0.00000  Uiso   1.00
C148   C     0.34664   0.93069   0.73612   0.00000  Uiso   1.00
C149   C     0.40705   0.80329   0.82060   0.00000  Uiso   1.00
C150   C     0.50231   0.86799   0.93291   0.00000  Uiso   1.00
C151   C     0.66279   0.90317   0.12791   0.00000  Uiso   1.00
C152   C     0.30175   0.23130   0.65715   0.00000  Uiso   1.00
C153   C     0.29357   0.13118   0.59948   0.00000  Uiso   1.00
C154   C     0.31593   0.20873   0.57431   0.00000  Uiso   1.00
C155   C     0.30354   0.09411   0.52137   0.00000  Uiso   1.00
C156   C     0.18916   0.21263   0.57535   0.00000  Uiso   1.00
C157   C     0.12375   0.35866   0.52990   0.00000  Uiso   1.00
C158   C     0.02347   0.31261   0.45666   0.00000  Uiso   1.00
C159   C     0.38019   0.11614   0.76287   0.00000  Uiso   1.00
C160   C     0.47537   0.18106   0.87507   0.00000  Uiso   1.00
C161   C     0.53591   0.05379   0.95970   0.00000  Uiso   1.00
H162   H     0.21388   0.74548   0.58709   0.00000  Uiso   1.00
H163   H     0.22164   0.68746   0.49914   0.00000  Uiso   1.00
H164   H     0.02950   0.83736   0.45476   0.00000  Uiso   1.00
H165   H     0.38107   0.65979   0.79987   0.00000  Uiso   1.00
H166   H     0.24500   0.70493   0.41338   0.00000  Uiso   1.00
H167   H     0.83987   0.02101   0.31983   0.00000  Uiso   1.00
H168   H     0.58122   0.64656   0.04757   0.00000  Uiso   1.00
H169   H     0.32786   0.37570   0.67797   0.00000  Uiso   1.00
H170   H     0.34188   0.35225   0.59501   0.00000  Uiso   1.00
H171   H     0.14973   0.50216   0.55062   0.00000  Uiso   1.00
H172   H     0.50130   0.32458   0.89573   0.00000  Uiso   1.00
H173   H     0.34258   0.24451   0.49119   0.00000  Uiso   1.00
H174   H     0.93745   0.56058   0.39764   0.00000  Uiso   1.00
H175   H     0.67880   0.18613   0.12538   0.00000  Uiso   1.00
O176   O     0.30092   0.94795   0.39604   0.00000  Uiso   1.00
O177   O     0.76942   0.36262   0.27332   0.00000  Uiso   1.00
O178   O     0.74205   0.87135   0.22809   0.00000  Uiso   1.00
N179   N     0.26606   0.83513   0.44310   0.00000  Uiso   1.00
N180   N     0.88728   0.13064   0.35562   0.00000  Uiso   1.00
N181   N     0.58037   0.78057   0.03599   0.00000  Uiso   1.00
N182   N     0.31857   0.12547   0.48497   0.00000  Uiso   1.00
N183   N     0.93979   0.42098   0.39749   0.00000  Uiso   1.00
N184   N     0.63288   0.07091   0.07786   0.00000  Uiso   1.00
