data_job_00349
_audit_creation_date              2018-12-19
_audit_creation_method            'Materials Studio'
_symmetry_space_group_name_H-M    'P1'
_symmetry_Int_Tables_number       1
_symmetry_cell_setting            triclinic
loop_
_symmetry_equiv_pos_as_xyz
  x,y,z
_cell_length_a                    45.6454
_cell_length_b                    45.0681
_cell_length_c                    7.1806
_cell_angle_alpha                 90.0000
_cell_angle_beta                  80.9504
_cell_angle_gamma                 90.0000
loop_
_atom_site_label
_atom_site_type_symbol
_atom_site_fract_x
_atom_site_fract_y
_atom_site_fract_z
_atom_site_U_iso_or_equiv
_atom_site_adp_type
_atom_site_occupancy
C1     C     0.35527   0.14477   0.32449   0.00000  Uiso   1.00
C2     C     0.33320   0.16684   0.26449   0.00000  Uiso   1.00
C3     C     0.31465   0.18540   0.38411   0.00000  Uiso   1.00
C4     C     0.29607   0.20397   0.30171   0.00000  Uiso   1.00
C5     C     0.26180   0.23822   0.23822   0.00000  Uiso   1.00
C6     C     0.34719   0.11462   0.25065   0.00000  Uiso   1.00
C7     C     0.34040   0.08928   0.35864   0.00000  Uiso   1.00
C8     C     0.33360   0.06389   0.26458   0.00000  Uiso   1.00
C9     C     0.32106   0.01707   0.17958   0.00000  Uiso   1.00
C10    C     0.38541   0.15284   0.21229   0.00000  Uiso   1.00
C11    C     0.41076   0.15962   0.28801   0.00000  Uiso   1.00
C12    C     0.43614   0.16641   0.16165   0.00000  Uiso   1.00
C13    C     0.48294   0.17893   0.01709   0.00000  Uiso   1.00
C14    C     0.35526   0.14474   0.96543   0.00000  Uiso   1.00
C15    C     0.33320   0.16682   0.06946   0.00000  Uiso   1.00
C16    C     0.31464   0.18536   0.98685   0.00000  Uiso   1.00
C17    C     0.29607   0.20395   0.10634   0.00000  Uiso   1.00
C18    C     0.34718   0.11460   0.05563   0.00000  Uiso   1.00
C19    C     0.34039   0.08925   0.96138   0.00000  Uiso   1.00
C20    C     0.33359   0.06387   0.06920   0.00000  Uiso   1.00
C21    C     0.38541   0.15282   0.01726   0.00000  Uiso   1.00
C22    C     0.41075   0.15959   0.89075   0.00000  Uiso   1.00
C23    C     0.43613   0.16639   0.96627   0.00000  Uiso   1.00
H24    H     0.35527   0.14478   0.47633   0.00000  Uiso   1.00
H25    H     0.31466   0.18540   0.53504   0.00000  Uiso   1.00
H26    H     0.34041   0.08930   0.50956   0.00000  Uiso   1.00
H27    H     0.41075   0.15963   0.43894   0.00000  Uiso   1.00
H28    H     0.26962   0.23042   0.51412   0.00000  Uiso   1.00
H29    H     0.32392   0.02777   0.46040   0.00000  Uiso   1.00
H30    H     0.47226   0.17610   0.31149   0.00000  Uiso   1.00
H31    H     0.35526   0.14473   0.81359   0.00000  Uiso   1.00
H32    H     0.31464   0.18535   0.83593   0.00000  Uiso   1.00
H33    H     0.34039   0.08924   0.81046   0.00000  Uiso   1.00
H34    H     0.41074   0.15958   0.73984   0.00000  Uiso   1.00
H35    H     0.26961   0.23037   0.94670   0.00000  Uiso   1.00
H36    H     0.32391   0.02773   0.89298   0.00000  Uiso   1.00
H37    H     0.47225   0.17605   0.74407   0.00000  Uiso   1.00
O38    O     0.24289   0.25711   0.25707   0.00000  Uiso   1.00
O39    O     0.31414   0.99125   0.18659   0.00000  Uiso   1.00
O40    O     0.50875   0.18584   0.99122   0.00000  Uiso   1.00
N41    N     0.27520   0.22484   0.37751   0.00000  Uiso   1.00
N42    N     0.32596   0.03538   0.32729   0.00000  Uiso   1.00
N43    N     0.46465   0.17404   0.18807   0.00000  Uiso   1.00
N44    N     0.27519   0.22481   0.07219   0.00000  Uiso   1.00
N45    N     0.32595   0.03535   0.02196   0.00000  Uiso   1.00
N46    N     0.46464   0.17402   0.88274   0.00000  Uiso   1.00
C47    C     0.85527   0.64477   0.32449   0.00000  Uiso   1.00
C48    C     0.83320   0.66684   0.26449   0.00000  Uiso   1.00
C49    C     0.81465   0.68540   0.38411   0.00000  Uiso   1.00
C50    C     0.79607   0.70397   0.30171   0.00000  Uiso   1.00
C51    C     0.76180   0.73822   0.23822   0.00000  Uiso   1.00
C52    C     0.84719   0.61462   0.25065   0.00000  Uiso   1.00
C53    C     0.84040   0.58928   0.35864   0.00000  Uiso   1.00
C54    C     0.83360   0.56389   0.26458   0.00000  Uiso   1.00
C55    C     0.82106   0.51707   0.17958   0.00000  Uiso   1.00
C56    C     0.88541   0.65284   0.21229   0.00000  Uiso   1.00
C57    C     0.91076   0.65962   0.28801   0.00000  Uiso   1.00
C58    C     0.93614   0.66641   0.16165   0.00000  Uiso   1.00
C59    C     0.98294   0.67893   0.01709   0.00000  Uiso   1.00
C60    C     0.85526   0.64474   0.96543   0.00000  Uiso   1.00
C61    C     0.83320   0.66682   0.06946   0.00000  Uiso   1.00
C62    C     0.81464   0.68536   0.98685   0.00000  Uiso   1.00
C63    C     0.79607   0.70395   0.10634   0.00000  Uiso   1.00
C64    C     0.84718   0.61460   0.05563   0.00000  Uiso   1.00
C65    C     0.84039   0.58925   0.96138   0.00000  Uiso   1.00
C66    C     0.83359   0.56387   0.06920   0.00000  Uiso   1.00
C67    C     0.88541   0.65282   0.01726   0.00000  Uiso   1.00
C68    C     0.91075   0.65959   0.89075   0.00000  Uiso   1.00
C69    C     0.93613   0.66639   0.96627   0.00000  Uiso   1.00
H70    H     0.85527   0.64478   0.47633   0.00000  Uiso   1.00
H71    H     0.81466   0.68540   0.53504   0.00000  Uiso   1.00
H72    H     0.84041   0.58930   0.50956   0.00000  Uiso   1.00
H73    H     0.91075   0.65963   0.43894   0.00000  Uiso   1.00
H74    H     0.76962   0.73042   0.51412   0.00000  Uiso   1.00
H75    H     0.82392   0.52777   0.46040   0.00000  Uiso   1.00
H76    H     0.97226   0.67610   0.31149   0.00000  Uiso   1.00
H77    H     0.85526   0.64473   0.81359   0.00000  Uiso   1.00
H78    H     0.81464   0.68535   0.83593   0.00000  Uiso   1.00
H79    H     0.84039   0.58924   0.81046   0.00000  Uiso   1.00
H80    H     0.91074   0.65958   0.73984   0.00000  Uiso   1.00
H81    H     0.76961   0.73037   0.94670   0.00000  Uiso   1.00
H82    H     0.82391   0.52773   0.89298   0.00000  Uiso   1.00
H83    H     0.97225   0.67605   0.74407   0.00000  Uiso   1.00
O84    O     0.74289   0.75711   0.25707   0.00000  Uiso   1.00
O85    O     0.81414   0.49125   0.18659   0.00000  Uiso   1.00
O86    O     0.00875   0.68584   0.99122   0.00000  Uiso   1.00
N87    N     0.77520   0.72484   0.37751   0.00000  Uiso   1.00
N88    N     0.82596   0.53538   0.32729   0.00000  Uiso   1.00
N89    N     0.96465   0.67404   0.18807   0.00000  Uiso   1.00
N90    N     0.77519   0.72481   0.07219   0.00000  Uiso   1.00
N91    N     0.82595   0.53535   0.02196   0.00000  Uiso   1.00
N92    N     0.96464   0.67402   0.88274   0.00000  Uiso   1.00
C93    C     0.64473   0.14477   0.17551   0.00000  Uiso   1.00
C94    C     0.66680   0.16684   0.23551   0.00000  Uiso   1.00
C95    C     0.68535   0.18540   0.11589   0.00000  Uiso   1.00
C96    C     0.70393   0.20397   0.19829   0.00000  Uiso   1.00
C97    C     0.73820   0.23822   0.26178   0.00000  Uiso   1.00
C98    C     0.65281   0.11462   0.24935   0.00000  Uiso   1.00
C99    C     0.65960   0.08928   0.14136   0.00000  Uiso   1.00
C100   C     0.66640   0.06389   0.23542   0.00000  Uiso   1.00
C101   C     0.67894   0.01707   0.32042   0.00000  Uiso   1.00
C102   C     0.61459   0.15284   0.28771   0.00000  Uiso   1.00
C103   C     0.58924   0.15962   0.21199   0.00000  Uiso   1.00
C104   C     0.56386   0.16641   0.33835   0.00000  Uiso   1.00
C105   C     0.51706   0.17893   0.48291   0.00000  Uiso   1.00
C106   C     0.64474   0.14474   0.53457   0.00000  Uiso   1.00
C107   C     0.66680   0.16682   0.43054   0.00000  Uiso   1.00
C108   C     0.68536   0.18536   0.51315   0.00000  Uiso   1.00
C109   C     0.70393   0.20395   0.39366   0.00000  Uiso   1.00
C110   C     0.65282   0.11460   0.44437   0.00000  Uiso   1.00
C111   C     0.65961   0.08925   0.53862   0.00000  Uiso   1.00
C112   C     0.66641   0.06387   0.43080   0.00000  Uiso   1.00
C113   C     0.61459   0.15282   0.48274   0.00000  Uiso   1.00
C114   C     0.58925   0.15959   0.60925   0.00000  Uiso   1.00
C115   C     0.56387   0.16639   0.53373   0.00000  Uiso   1.00
H116   H     0.64473   0.14478   0.02367   0.00000  Uiso   1.00
H117   H     0.68534   0.18540   0.96496   0.00000  Uiso   1.00
H118   H     0.65959   0.08930   0.99044   0.00000  Uiso   1.00
H119   H     0.58925   0.15963   0.06106   0.00000  Uiso   1.00
H120   H     0.73038   0.23042   0.98588   0.00000  Uiso   1.00
H121   H     0.67608   0.02777   0.03960   0.00000  Uiso   1.00
H122   H     0.52774   0.17610   0.18851   0.00000  Uiso   1.00
H123   H     0.64474   0.14473   0.68641   0.00000  Uiso   1.00
H124   H     0.68536   0.18535   0.66407   0.00000  Uiso   1.00
H125   H     0.65961   0.08924   0.68954   0.00000  Uiso   1.00
H126   H     0.58926   0.15958   0.76016   0.00000  Uiso   1.00
H127   H     0.73039   0.23037   0.55330   0.00000  Uiso   1.00
H128   H     0.67609   0.02773   0.60702   0.00000  Uiso   1.00
H129   H     0.52775   0.17605   0.75593   0.00000  Uiso   1.00
O130   O     0.75711   0.25711   0.24293   0.00000  Uiso   1.00
O131   O     0.68586   0.99125   0.31341   0.00000  Uiso   1.00
O132   O     0.49125   0.18584   0.50878   0.00000  Uiso   1.00
N133   N     0.72480   0.22484   0.12249   0.00000  Uiso   1.00
N134   N     0.67404   0.03538   0.17271   0.00000  Uiso   1.00
N135   N     0.53535   0.17404   0.31193   0.00000  Uiso   1.00
N136   N     0.72481   0.22481   0.42781   0.00000  Uiso   1.00
N137   N     0.67405   0.03535   0.47804   0.00000  Uiso   1.00
N138   N     0.53536   0.17402   0.61726   0.00000  Uiso   1.00
C139   C     0.14473   0.64477   0.17551   0.00000  Uiso   1.00
C140   C     0.16680   0.66684   0.23551   0.00000  Uiso   1.00
C141   C     0.18535   0.68540   0.11589   0.00000  Uiso   1.00
C142   C     0.20393   0.70397   0.19829   0.00000  Uiso   1.00
C143   C     0.23820   0.73822   0.26178   0.00000  Uiso   1.00
C144   C     0.15281   0.61462   0.24935   0.00000  Uiso   1.00
C145   C     0.15960   0.58928   0.14136   0.00000  Uiso   1.00
C146   C     0.16640   0.56389   0.23542   0.00000  Uiso   1.00
C147   C     0.17894   0.51707   0.32042   0.00000  Uiso   1.00
C148   C     0.11459   0.65284   0.28771   0.00000  Uiso   1.00
C149   C     0.08924   0.65962   0.21199   0.00000  Uiso   1.00
C150   C     0.06386   0.66641   0.33835   0.00000  Uiso   1.00
C151   C     0.01706   0.67893   0.48291   0.00000  Uiso   1.00
C152   C     0.14474   0.64474   0.53457   0.00000  Uiso   1.00
C153   C     0.16680   0.66682   0.43054   0.00000  Uiso   1.00
C154   C     0.18536   0.68536   0.51315   0.00000  Uiso   1.00
C155   C     0.20393   0.70395   0.39366   0.00000  Uiso   1.00
C156   C     0.15282   0.61460   0.44437   0.00000  Uiso   1.00
C157   C     0.15961   0.58925   0.53862   0.00000  Uiso   1.00
C158   C     0.16641   0.56387   0.43080   0.00000  Uiso   1.00
C159   C     0.11459   0.65282   0.48274   0.00000  Uiso   1.00
C160   C     0.08925   0.65959   0.60925   0.00000  Uiso   1.00
C161   C     0.06387   0.66639   0.53373   0.00000  Uiso   1.00
H162   H     0.14473   0.64478   0.02367   0.00000  Uiso   1.00
H163   H     0.18534   0.68540   0.96496   0.00000  Uiso   1.00
H164   H     0.15959   0.58930   0.99044   0.00000  Uiso   1.00
H165   H     0.08925   0.65963   0.06106   0.00000  Uiso   1.00
H166   H     0.23038   0.73042   0.98588   0.00000  Uiso   1.00
H167   H     0.17608   0.52777   0.03960   0.00000  Uiso   1.00
H168   H     0.02774   0.67610   0.18851   0.00000  Uiso   1.00
H169   H     0.14474   0.64473   0.68641   0.00000  Uiso   1.00
H170   H     0.18536   0.68535   0.66407   0.00000  Uiso   1.00
H171   H     0.15961   0.58924   0.68954   0.00000  Uiso   1.00
H172   H     0.08926   0.65958   0.76016   0.00000  Uiso   1.00
H173   H     0.23039   0.73037   0.55330   0.00000  Uiso   1.00
H174   H     0.17609   0.52773   0.60702   0.00000  Uiso   1.00
H175   H     0.02775   0.67605   0.75593   0.00000  Uiso   1.00
O176   O     0.25711   0.75711   0.24293   0.00000  Uiso   1.00
O177   O     0.18586   0.49125   0.31341   0.00000  Uiso   1.00
O178   O     0.99125   0.68584   0.50878   0.00000  Uiso   1.00
N179   N     0.22480   0.72484   0.12249   0.00000  Uiso   1.00
N180   N     0.17404   0.53538   0.17271   0.00000  Uiso   1.00
N181   N     0.03535   0.67404   0.31193   0.00000  Uiso   1.00
N182   N     0.22481   0.72481   0.42781   0.00000  Uiso   1.00
N183   N     0.17405   0.53535   0.47804   0.00000  Uiso   1.00
N184   N     0.03536   0.67402   0.61726   0.00000  Uiso   1.00
C185   C     0.64473   0.85523   0.67551   0.00000  Uiso   1.00
C186   C     0.66680   0.83316   0.73551   0.00000  Uiso   1.00
C187   C     0.68535   0.81460   0.61589   0.00000  Uiso   1.00
C188   C     0.70393   0.79603   0.69829   0.00000  Uiso   1.00
C189   C     0.73820   0.76178   0.76178   0.00000  Uiso   1.00
C190   C     0.65281   0.88538   0.74935   0.00000  Uiso   1.00
C191   C     0.65960   0.91072   0.64136   0.00000  Uiso   1.00
C192   C     0.66640   0.93611   0.73542   0.00000  Uiso   1.00
C193   C     0.67894   0.98293   0.82042   0.00000  Uiso   1.00
C194   C     0.61459   0.84716   0.78771   0.00000  Uiso   1.00
C195   C     0.58924   0.84038   0.71199   0.00000  Uiso   1.00
C196   C     0.56386   0.83359   0.83835   0.00000  Uiso   1.00
C197   C     0.51706   0.82107   0.98291   0.00000  Uiso   1.00
C198   C     0.64474   0.85526   0.03457   0.00000  Uiso   1.00
C199   C     0.66680   0.83318   0.93054   0.00000  Uiso   1.00
C200   C     0.68536   0.81464   0.01315   0.00000  Uiso   1.00
C201   C     0.70393   0.79605   0.89366   0.00000  Uiso   1.00
C202   C     0.65282   0.88540   0.94437   0.00000  Uiso   1.00
C203   C     0.65961   0.91075   0.03862   0.00000  Uiso   1.00
C204   C     0.66641   0.93613   0.93080   0.00000  Uiso   1.00
C205   C     0.61459   0.84718   0.98274   0.00000  Uiso   1.00
C206   C     0.58925   0.84041   0.10925   0.00000  Uiso   1.00
C207   C     0.56387   0.83361   0.03373   0.00000  Uiso   1.00
H208   H     0.64473   0.85522   0.52367   0.00000  Uiso   1.00
H209   H     0.68534   0.81460   0.46496   0.00000  Uiso   1.00
H210   H     0.65959   0.91070   0.49044   0.00000  Uiso   1.00
H211   H     0.58925   0.84037   0.56106   0.00000  Uiso   1.00
H212   H     0.73038   0.76958   0.48588   0.00000  Uiso   1.00
H213   H     0.67608   0.97223   0.53960   0.00000  Uiso   1.00
H214   H     0.52774   0.82390   0.68851   0.00000  Uiso   1.00
H215   H     0.64474   0.85527   0.18641   0.00000  Uiso   1.00
H216   H     0.68536   0.81465   0.16407   0.00000  Uiso   1.00
H217   H     0.65961   0.91076   0.18954   0.00000  Uiso   1.00
H218   H     0.58926   0.84042   0.26016   0.00000  Uiso   1.00
H219   H     0.73039   0.76963   0.05330   0.00000  Uiso   1.00
H220   H     0.67609   0.97227   0.10702   0.00000  Uiso   1.00
H221   H     0.52775   0.82395   0.25593   0.00000  Uiso   1.00
O222   O     0.75711   0.74289   0.74293   0.00000  Uiso   1.00
O223   O     0.68586   0.00875   0.81341   0.00000  Uiso   1.00
O224   O     0.49125   0.81416   0.00878   0.00000  Uiso   1.00
N225   N     0.72480   0.77516   0.62249   0.00000  Uiso   1.00
N226   N     0.67404   0.96462   0.67271   0.00000  Uiso   1.00
N227   N     0.53535   0.82596   0.81193   0.00000  Uiso   1.00
N228   N     0.72481   0.77519   0.92781   0.00000  Uiso   1.00
N229   N     0.67405   0.96465   0.97804   0.00000  Uiso   1.00
N230   N     0.53536   0.82598   0.11726   0.00000  Uiso   1.00
C231   C     0.14473   0.35523   0.67551   0.00000  Uiso   1.00
C232   C     0.16680   0.33316   0.73551   0.00000  Uiso   1.00
C233   C     0.18535   0.31460   0.61589   0.00000  Uiso   1.00
C234   C     0.20393   0.29603   0.69829   0.00000  Uiso   1.00
C235   C     0.23820   0.26178   0.76178   0.00000  Uiso   1.00
C236   C     0.15281   0.38538   0.74935   0.00000  Uiso   1.00
C237   C     0.15960   0.41072   0.64136   0.00000  Uiso   1.00
C238   C     0.16640   0.43611   0.73542   0.00000  Uiso   1.00
C239   C     0.17894   0.48293   0.82042   0.00000  Uiso   1.00
C240   C     0.11459   0.34716   0.78771   0.00000  Uiso   1.00
C241   C     0.08924   0.34038   0.71199   0.00000  Uiso   1.00
C242   C     0.06386   0.33359   0.83835   0.00000  Uiso   1.00
C243   C     0.01706   0.32107   0.98291   0.00000  Uiso   1.00
C244   C     0.14474   0.35526   0.03457   0.00000  Uiso   1.00
C245   C     0.16680   0.33318   0.93054   0.00000  Uiso   1.00
C246   C     0.18536   0.31464   0.01315   0.00000  Uiso   1.00
C247   C     0.20393   0.29605   0.89366   0.00000  Uiso   1.00
C248   C     0.15282   0.38540   0.94437   0.00000  Uiso   1.00
C249   C     0.15961   0.41075   0.03862   0.00000  Uiso   1.00
C250   C     0.16641   0.43613   0.93080   0.00000  Uiso   1.00
C251   C     0.11459   0.34718   0.98274   0.00000  Uiso   1.00
C252   C     0.08925   0.34041   0.10925   0.00000  Uiso   1.00
C253   C     0.06387   0.33361   0.03373   0.00000  Uiso   1.00
H254   H     0.14473   0.35522   0.52367   0.00000  Uiso   1.00
H255   H     0.18534   0.31460   0.46496   0.00000  Uiso   1.00
H256   H     0.15959   0.41070   0.49044   0.00000  Uiso   1.00
H257   H     0.08925   0.34037   0.56106   0.00000  Uiso   1.00
H258   H     0.23038   0.26958   0.48588   0.00000  Uiso   1.00
H259   H     0.17608   0.47223   0.53960   0.00000  Uiso   1.00
H260   H     0.02774   0.32390   0.68851   0.00000  Uiso   1.00
H261   H     0.14474   0.35527   0.18641   0.00000  Uiso   1.00
H262   H     0.18536   0.31465   0.16407   0.00000  Uiso   1.00
H263   H     0.15961   0.41076   0.18954   0.00000  Uiso   1.00
H264   H     0.08926   0.34042   0.26016   0.00000  Uiso   1.00
H265   H     0.23039   0.26963   0.05330   0.00000  Uiso   1.00
H266   H     0.17609   0.47227   0.10702   0.00000  Uiso   1.00
H267   H     0.02775   0.32395   0.25593   0.00000  Uiso   1.00
O268   O     0.25711   0.24289   0.74293   0.00000  Uiso   1.00
O269   O     0.18586   0.50875   0.81341   0.00000  Uiso   1.00
O270   O     0.99125   0.31416   0.00878   0.00000  Uiso   1.00
N271   N     0.22480   0.27516   0.62249   0.00000  Uiso   1.00
N272   N     0.17404   0.46462   0.67271   0.00000  Uiso   1.00
N273   N     0.03535   0.32596   0.81193   0.00000  Uiso   1.00
N274   N     0.22481   0.27519   0.92781   0.00000  Uiso   1.00
N275   N     0.17405   0.46465   0.97804   0.00000  Uiso   1.00
N276   N     0.03536   0.32598   0.11726   0.00000  Uiso   1.00
C277   C     0.35527   0.85523   0.82449   0.00000  Uiso   1.00
C278   C     0.33320   0.83316   0.76449   0.00000  Uiso   1.00
C279   C     0.31465   0.81460   0.88411   0.00000  Uiso   1.00
C280   C     0.29607   0.79603   0.80171   0.00000  Uiso   1.00
C281   C     0.26180   0.76178   0.73822   0.00000  Uiso   1.00
C282   C     0.34719   0.88538   0.75065   0.00000  Uiso   1.00
C283   C     0.34040   0.91072   0.85864   0.00000  Uiso   1.00
C284   C     0.33360   0.93611   0.76458   0.00000  Uiso   1.00
C285   C     0.32106   0.98293   0.67958   0.00000  Uiso   1.00
C286   C     0.38541   0.84716   0.71229   0.00000  Uiso   1.00
C287   C     0.41076   0.84038   0.78801   0.00000  Uiso   1.00
C288   C     0.43614   0.83359   0.66165   0.00000  Uiso   1.00
C289   C     0.48294   0.82107   0.51709   0.00000  Uiso   1.00
C290   C     0.35526   0.85526   0.46543   0.00000  Uiso   1.00
C291   C     0.33320   0.83318   0.56946   0.00000  Uiso   1.00
C292   C     0.31464   0.81464   0.48685   0.00000  Uiso   1.00
C293   C     0.29607   0.79605   0.60634   0.00000  Uiso   1.00
C294   C     0.34718   0.88540   0.55563   0.00000  Uiso   1.00
C295   C     0.34039   0.91075   0.46138   0.00000  Uiso   1.00
C296   C     0.33359   0.93613   0.56920   0.00000  Uiso   1.00
C297   C     0.38541   0.84718   0.51726   0.00000  Uiso   1.00
C298   C     0.41075   0.84041   0.39075   0.00000  Uiso   1.00
C299   C     0.43613   0.83361   0.46627   0.00000  Uiso   1.00
H300   H     0.35527   0.85522   0.97633   0.00000  Uiso   1.00
H301   H     0.31466   0.81460   0.03504   0.00000  Uiso   1.00
H302   H     0.34041   0.91070   0.00956   0.00000  Uiso   1.00
H303   H     0.41075   0.84037   0.93894   0.00000  Uiso   1.00
H304   H     0.26962   0.76958   0.01412   0.00000  Uiso   1.00
H305   H     0.32392   0.97223   0.96040   0.00000  Uiso   1.00
H306   H     0.47226   0.82390   0.81149   0.00000  Uiso   1.00
H307   H     0.35526   0.85527   0.31359   0.00000  Uiso   1.00
H308   H     0.31464   0.81465   0.33593   0.00000  Uiso   1.00
H309   H     0.34039   0.91076   0.31046   0.00000  Uiso   1.00
H310   H     0.41074   0.84042   0.23984   0.00000  Uiso   1.00
H311   H     0.26961   0.76963   0.44670   0.00000  Uiso   1.00
H312   H     0.32391   0.97227   0.39298   0.00000  Uiso   1.00
H313   H     0.47225   0.82395   0.24407   0.00000  Uiso   1.00
O314   O     0.24289   0.74289   0.75707   0.00000  Uiso   1.00
O315   O     0.31414   0.00875   0.68659   0.00000  Uiso   1.00
O316   O     0.50875   0.81416   0.49122   0.00000  Uiso   1.00
N317   N     0.27520   0.77516   0.87751   0.00000  Uiso   1.00
N318   N     0.32596   0.96462   0.82729   0.00000  Uiso   1.00
N319   N     0.46465   0.82596   0.68807   0.00000  Uiso   1.00
N320   N     0.27519   0.77519   0.57219   0.00000  Uiso   1.00
N321   N     0.32595   0.96465   0.52196   0.00000  Uiso   1.00
N322   N     0.46464   0.82598   0.38274   0.00000  Uiso   1.00
C323   C     0.85527   0.35523   0.82449   0.00000  Uiso   1.00
C324   C     0.83320   0.33316   0.76449   0.00000  Uiso   1.00
C325   C     0.81465   0.31460   0.88411   0.00000  Uiso   1.00
C326   C     0.79607   0.29603   0.80171   0.00000  Uiso   1.00
C327   C     0.76180   0.26178   0.73822   0.00000  Uiso   1.00
C328   C     0.84719   0.38538   0.75065   0.00000  Uiso   1.00
C329   C     0.84040   0.41072   0.85864   0.00000  Uiso   1.00
C330   C     0.83360   0.43611   0.76458   0.00000  Uiso   1.00
C331   C     0.82106   0.48293   0.67958   0.00000  Uiso   1.00
C332   C     0.88541   0.34716   0.71229   0.00000  Uiso   1.00
C333   C     0.91076   0.34038   0.78801   0.00000  Uiso   1.00
C334   C     0.93614   0.33359   0.66165   0.00000  Uiso   1.00
C335   C     0.98294   0.32107   0.51709   0.00000  Uiso   1.00
C336   C     0.85526   0.35526   0.46543   0.00000  Uiso   1.00
C337   C     0.83320   0.33318   0.56946   0.00000  Uiso   1.00
C338   C     0.81464   0.31464   0.48685   0.00000  Uiso   1.00
C339   C     0.79607   0.29605   0.60634   0.00000  Uiso   1.00
C340   C     0.84718   0.38540   0.55563   0.00000  Uiso   1.00
C341   C     0.84039   0.41075   0.46138   0.00000  Uiso   1.00
C342   C     0.83359   0.43613   0.56920   0.00000  Uiso   1.00
C343   C     0.88541   0.34718   0.51726   0.00000  Uiso   1.00
C344   C     0.91075   0.34041   0.39075   0.00000  Uiso   1.00
C345   C     0.93613   0.33361   0.46627   0.00000  Uiso   1.00
H346   H     0.85527   0.35522   0.97633   0.00000  Uiso   1.00
H347   H     0.81466   0.31460   0.03504   0.00000  Uiso   1.00
H348   H     0.84041   0.41070   0.00956   0.00000  Uiso   1.00
H349   H     0.91075   0.34037   0.93894   0.00000  Uiso   1.00
H350   H     0.76962   0.26958   0.01412   0.00000  Uiso   1.00
H351   H     0.82392   0.47223   0.96040   0.00000  Uiso   1.00
H352   H     0.97226   0.32390   0.81149   0.00000  Uiso   1.00
H353   H     0.85526   0.35527   0.31359   0.00000  Uiso   1.00
H354   H     0.81464   0.31465   0.33593   0.00000  Uiso   1.00
H355   H     0.84039   0.41076   0.31046   0.00000  Uiso   1.00
H356   H     0.91074   0.34042   0.23984   0.00000  Uiso   1.00
H357   H     0.76961   0.26963   0.44670   0.00000  Uiso   1.00
H358   H     0.82391   0.47227   0.39298   0.00000  Uiso   1.00
H359   H     0.97225   0.32395   0.24407   0.00000  Uiso   1.00
O360   O     0.74289   0.24289   0.75707   0.00000  Uiso   1.00
O361   O     0.81414   0.50875   0.68659   0.00000  Uiso   1.00
O362   O     0.00875   0.31416   0.49122   0.00000  Uiso   1.00
N363   N     0.77520   0.27516   0.87751   0.00000  Uiso   1.00
N364   N     0.82596   0.46462   0.82729   0.00000  Uiso   1.00
N365   N     0.96465   0.32596   0.68807   0.00000  Uiso   1.00
N366   N     0.77519   0.27519   0.57219   0.00000  Uiso   1.00
N367   N     0.82595   0.46465   0.52196   0.00000  Uiso   1.00
N368   N     0.96464   0.32598   0.38274   0.00000  Uiso   1.00
