data_job_05565
_audit_creation_date              2018-12-19
_audit_creation_method            'Materials Studio'
_symmetry_space_group_name_H-M    'P1'
_symmetry_Int_Tables_number       1
_symmetry_cell_setting            triclinic
loop_
_symmetry_equiv_pos_as_xyz
  x,y,z
_cell_length_a                    23.4651
_cell_length_b                    23.4651
_cell_length_c                    14.7049
_cell_angle_alpha                 90.0000
_cell_angle_beta                  90.0000
_cell_angle_gamma                 90.0000
loop_
_atom_site_label
_atom_site_type_symbol
_atom_site_fract_x
_atom_site_fract_y
_atom_site_fract_z
_atom_site_U_iso_or_equiv
_atom_site_adp_type
_atom_site_occupancy
C1     C     0.54606   0.87913   0.85343   0.00000  Uiso   1.00
C2     C     0.54421   0.85451   0.94936   0.00000  Uiso   1.00
C3     C     0.54202   0.88586   0.02931   0.00000  Uiso   1.00
C4     C     0.54059   0.85538   0.11020   0.00000  Uiso   1.00
C5     C     0.53764   0.82623   0.25904   0.00000  Uiso   1.00
C6     C     0.59932   0.85445   0.80895   0.00000  Uiso   1.00
C7     C     0.64347   0.88574   0.77084   0.00000  Uiso   1.00
C8     C     0.68844   0.85521   0.73353   0.00000  Uiso   1.00
C9     C     0.77103   0.82597   0.66432   0.00000  Uiso   1.00
C10    C     0.49558   0.85314   0.80299   0.00000  Uiso   1.00
C11    C     0.45250   0.88332   0.75984   0.00000  Uiso   1.00
C12    C     0.41012   0.85168   0.71749   0.00000  Uiso   1.00
C13    C     0.33163   0.82040   0.63903   0.00000  Uiso   1.00
C14    C     0.54742   0.76927   0.85490   0.00000  Uiso   1.00
C15    C     0.54495   0.79484   0.95016   0.00000  Uiso   1.00
C16    C     0.54352   0.76430   0.03095   0.00000  Uiso   1.00
C17    C     0.54133   0.79560   0.11101   0.00000  Uiso   1.00
C18    C     0.60007   0.79478   0.80975   0.00000  Uiso   1.00
C19    C     0.64497   0.76419   0.77248   0.00000  Uiso   1.00
C20    C     0.68918   0.79543   0.73433   0.00000  Uiso   1.00
C21    C     0.49632   0.79346   0.80379   0.00000  Uiso   1.00
C22    C     0.45400   0.76177   0.76149   0.00000  Uiso   1.00
C23    C     0.41086   0.79190   0.71829   0.00000  Uiso   1.00
H24    H     0.54548   0.92559   0.85280   0.00000  Uiso   1.00
H25    H     0.54145   0.93204   0.02866   0.00000  Uiso   1.00
H26    H     0.64288   0.93192   0.77022   0.00000  Uiso   1.00
H27    H     0.45194   0.92950   0.75924   0.00000  Uiso   1.00
H28    H     0.53733   0.91287   0.22399   0.00000  Uiso   1.00
H29    H     0.75119   0.91263   0.67904   0.00000  Uiso   1.00
H30    H     0.34855   0.90752   0.65586   0.00000  Uiso   1.00
H31    H     0.54799   0.72280   0.85553   0.00000  Uiso   1.00
H32    H     0.54410   0.71812   0.03155   0.00000  Uiso   1.00
H33    H     0.64553   0.71801   0.77311   0.00000  Uiso   1.00
H34    H     0.45459   0.71559   0.76212   0.00000  Uiso   1.00
H35    H     0.53948   0.73925   0.22634   0.00000  Uiso   1.00
H36    H     0.75334   0.73901   0.68138   0.00000  Uiso   1.00
H37    H     0.35070   0.73390   0.65821   0.00000  Uiso   1.00
O38    O     0.53581   0.82664   0.34091   0.00000  Uiso   1.00
O39    O     0.81639   0.82632   0.62593   0.00000  Uiso   1.00
O40    O     0.28813   0.81962   0.59553   0.00000  Uiso   1.00
N41    N     0.53836   0.87265   0.20039   0.00000  Uiso   1.00
N42    N     0.73831   0.87243   0.69090   0.00000  Uiso   1.00
N43    N     0.36188   0.86765   0.66921   0.00000  Uiso   1.00
N44    N     0.53951   0.77923   0.20165   0.00000  Uiso   1.00
N45    N     0.73947   0.77900   0.69216   0.00000  Uiso   1.00
N46    N     0.36304   0.77423   0.67047   0.00000  Uiso   1.00
C47    C     0.45394   0.12087   0.35343   0.00000  Uiso   1.00
C48    C     0.45579   0.14549   0.44936   0.00000  Uiso   1.00
C49    C     0.45798   0.11414   0.52931   0.00000  Uiso   1.00
C50    C     0.45941   0.14462   0.61020   0.00000  Uiso   1.00
C51    C     0.46236   0.17377   0.75904   0.00000  Uiso   1.00
C52    C     0.40068   0.14555   0.30895   0.00000  Uiso   1.00
C53    C     0.35653   0.11426   0.27084   0.00000  Uiso   1.00
C54    C     0.31156   0.14479   0.23353   0.00000  Uiso   1.00
C55    C     0.22897   0.17403   0.16432   0.00000  Uiso   1.00
C56    C     0.50442   0.14686   0.30299   0.00000  Uiso   1.00
C57    C     0.54750   0.11668   0.25984   0.00000  Uiso   1.00
C58    C     0.58988   0.14832   0.21749   0.00000  Uiso   1.00
C59    C     0.66837   0.17960   0.13903   0.00000  Uiso   1.00
C60    C     0.45258   0.23073   0.35490   0.00000  Uiso   1.00
C61    C     0.45505   0.20516   0.45016   0.00000  Uiso   1.00
C62    C     0.45648   0.23570   0.53095   0.00000  Uiso   1.00
C63    C     0.45867   0.20440   0.61101   0.00000  Uiso   1.00
C64    C     0.39993   0.20522   0.30975   0.00000  Uiso   1.00
C65    C     0.35503   0.23581   0.27248   0.00000  Uiso   1.00
C66    C     0.31082   0.20457   0.23433   0.00000  Uiso   1.00
C67    C     0.50368   0.20654   0.30379   0.00000  Uiso   1.00
C68    C     0.54600   0.23823   0.26149   0.00000  Uiso   1.00
C69    C     0.58914   0.20810   0.21829   0.00000  Uiso   1.00
H70    H     0.45452   0.07441   0.35280   0.00000  Uiso   1.00
H71    H     0.45855   0.06796   0.52866   0.00000  Uiso   1.00
H72    H     0.35712   0.06808   0.27022   0.00000  Uiso   1.00
H73    H     0.54806   0.07050   0.25924   0.00000  Uiso   1.00
H74    H     0.46267   0.08713   0.72399   0.00000  Uiso   1.00
H75    H     0.24881   0.08737   0.17904   0.00000  Uiso   1.00
H76    H     0.65145   0.09248   0.15586   0.00000  Uiso   1.00
H77    H     0.45201   0.27720   0.35553   0.00000  Uiso   1.00
H78    H     0.45590   0.28188   0.53155   0.00000  Uiso   1.00
H79    H     0.35447   0.28199   0.27311   0.00000  Uiso   1.00
H80    H     0.54541   0.28441   0.26212   0.00000  Uiso   1.00
H81    H     0.46052   0.26075   0.72634   0.00000  Uiso   1.00
H82    H     0.24666   0.26099   0.18138   0.00000  Uiso   1.00
H83    H     0.64930   0.26610   0.15821   0.00000  Uiso   1.00
O84    O     0.46419   0.17336   0.84091   0.00000  Uiso   1.00
O85    O     0.18361   0.17368   0.12593   0.00000  Uiso   1.00
O86    O     0.71187   0.18038   0.09553   0.00000  Uiso   1.00
N87    N     0.46164   0.12735   0.70039   0.00000  Uiso   1.00
N88    N     0.26169   0.12757   0.19090   0.00000  Uiso   1.00
N89    N     0.63812   0.13235   0.16921   0.00000  Uiso   1.00
N90    N     0.46049   0.22077   0.70165   0.00000  Uiso   1.00
N91    N     0.26053   0.22100   0.19216   0.00000  Uiso   1.00
N92    N     0.63696   0.22577   0.17047   0.00000  Uiso   1.00
C93    C     0.62087   0.04606   0.60343   0.00000  Uiso   1.00
C94    C     0.64549   0.04421   0.69936   0.00000  Uiso   1.00
C95    C     0.61414   0.04202   0.77931   0.00000  Uiso   1.00
C96    C     0.64462   0.04059   0.86020   0.00000  Uiso   1.00
C97    C     0.67377   0.03764   0.00904   0.00000  Uiso   1.00
C98    C     0.64555   0.09932   0.55895   0.00000  Uiso   1.00
C99    C     0.61426   0.14347   0.52084   0.00000  Uiso   1.00
C100   C     0.64479   0.18844   0.48353   0.00000  Uiso   1.00
C101   C     0.67403   0.27103   0.41432   0.00000  Uiso   1.00
C102   C     0.64686   0.99558   0.55299   0.00000  Uiso   1.00
C103   C     0.61668   0.95250   0.50984   0.00000  Uiso   1.00
C104   C     0.64832   0.91012   0.46749   0.00000  Uiso   1.00
C105   C     0.67960   0.83163   0.38903   0.00000  Uiso   1.00
C106   C     0.73073   0.04742   0.60490   0.00000  Uiso   1.00
C107   C     0.70516   0.04495   0.70016   0.00000  Uiso   1.00
C108   C     0.73570   0.04352   0.78095   0.00000  Uiso   1.00
C109   C     0.70440   0.04133   0.86101   0.00000  Uiso   1.00
C110   C     0.70522   0.10007   0.55975   0.00000  Uiso   1.00
C111   C     0.73581   0.14497   0.52248   0.00000  Uiso   1.00
C112   C     0.70457   0.18918   0.48433   0.00000  Uiso   1.00
C113   C     0.70654   0.99632   0.55379   0.00000  Uiso   1.00
C114   C     0.73823   0.95400   0.51149   0.00000  Uiso   1.00
C115   C     0.70810   0.91086   0.46829   0.00000  Uiso   1.00
H116   H     0.57441   0.04548   0.60280   0.00000  Uiso   1.00
H117   H     0.56796   0.04145   0.77866   0.00000  Uiso   1.00
H118   H     0.56808   0.14288   0.52022   0.00000  Uiso   1.00
H119   H     0.57050   0.95194   0.50924   0.00000  Uiso   1.00
H120   H     0.58713   0.03733   0.97399   0.00000  Uiso   1.00
H121   H     0.58737   0.25119   0.42904   0.00000  Uiso   1.00
H122   H     0.59248   0.84855   0.40586   0.00000  Uiso   1.00
H123   H     0.77720   0.04799   0.60553   0.00000  Uiso   1.00
H124   H     0.78188   0.04410   0.78155   0.00000  Uiso   1.00
H125   H     0.78199   0.14553   0.52311   0.00000  Uiso   1.00
H126   H     0.78441   0.95459   0.51212   0.00000  Uiso   1.00
H127   H     0.76075   0.03948   0.97634   0.00000  Uiso   1.00
H128   H     0.76099   0.25334   0.43138   0.00000  Uiso   1.00
H129   H     0.76610   0.85070   0.40821   0.00000  Uiso   1.00
O130   O     0.67336   0.03581   0.09091   0.00000  Uiso   1.00
O131   O     0.67368   0.31639   0.37593   0.00000  Uiso   1.00
O132   O     0.68038   0.78813   0.34553   0.00000  Uiso   1.00
N133   N     0.62735   0.03836   0.95039   0.00000  Uiso   1.00
N134   N     0.62757   0.23831   0.44090   0.00000  Uiso   1.00
N135   N     0.63235   0.86188   0.41921   0.00000  Uiso   1.00
N136   N     0.72077   0.03951   0.95165   0.00000  Uiso   1.00
N137   N     0.72100   0.23947   0.44216   0.00000  Uiso   1.00
N138   N     0.72577   0.86304   0.42047   0.00000  Uiso   1.00
C139   C     0.37913   0.95394   0.10343   0.00000  Uiso   1.00
C140   C     0.35451   0.95579   0.19936   0.00000  Uiso   1.00
C141   C     0.38586   0.95798   0.27931   0.00000  Uiso   1.00
C142   C     0.35538   0.95941   0.36020   0.00000  Uiso   1.00
C143   C     0.32623   0.96236   0.50904   0.00000  Uiso   1.00
C144   C     0.35445   0.90068   0.05895   0.00000  Uiso   1.00
C145   C     0.38574   0.85653   0.02084   0.00000  Uiso   1.00
C146   C     0.35521   0.81156   0.98353   0.00000  Uiso   1.00
C147   C     0.32597   0.72897   0.91432   0.00000  Uiso   1.00
C148   C     0.35314   0.00442   0.05299   0.00000  Uiso   1.00
C149   C     0.38332   0.04750   0.00984   0.00000  Uiso   1.00
C150   C     0.35168   0.08988   0.96749   0.00000  Uiso   1.00
C151   C     0.32040   0.16837   0.88903   0.00000  Uiso   1.00
C152   C     0.26927   0.95258   0.10490   0.00000  Uiso   1.00
C153   C     0.29484   0.95505   0.20016   0.00000  Uiso   1.00
C154   C     0.26430   0.95648   0.28095   0.00000  Uiso   1.00
C155   C     0.29560   0.95867   0.36101   0.00000  Uiso   1.00
C156   C     0.29478   0.89993   0.05975   0.00000  Uiso   1.00
C157   C     0.26419   0.85503   0.02248   0.00000  Uiso   1.00
C158   C     0.29543   0.81082   0.98433   0.00000  Uiso   1.00
C159   C     0.29346   0.00368   0.05379   0.00000  Uiso   1.00
C160   C     0.26177   0.04600   0.01149   0.00000  Uiso   1.00
C161   C     0.29190   0.08914   0.96829   0.00000  Uiso   1.00
H162   H     0.42559   0.95452   0.10280   0.00000  Uiso   1.00
H163   H     0.43204   0.95855   0.27866   0.00000  Uiso   1.00
H164   H     0.43192   0.85712   0.02022   0.00000  Uiso   1.00
H165   H     0.42950   0.04806   0.00924   0.00000  Uiso   1.00
H166   H     0.41287   0.96267   0.47399   0.00000  Uiso   1.00
H167   H     0.41263   0.74881   0.92904   0.00000  Uiso   1.00
H168   H     0.40752   0.15145   0.90586   0.00000  Uiso   1.00
H169   H     0.22280   0.95201   0.10553   0.00000  Uiso   1.00
H170   H     0.21812   0.95590   0.28155   0.00000  Uiso   1.00
H171   H     0.21801   0.85447   0.02311   0.00000  Uiso   1.00
H172   H     0.21559   0.04541   0.01212   0.00000  Uiso   1.00
H173   H     0.23925   0.96052   0.47634   0.00000  Uiso   1.00
H174   H     0.23901   0.74666   0.93138   0.00000  Uiso   1.00
H175   H     0.23390   0.14930   0.90821   0.00000  Uiso   1.00
O176   O     0.32664   0.96419   0.59091   0.00000  Uiso   1.00
O177   O     0.32632   0.68361   0.87593   0.00000  Uiso   1.00
O178   O     0.31962   0.21187   0.84553   0.00000  Uiso   1.00
N179   N     0.37265   0.96164   0.45039   0.00000  Uiso   1.00
N180   N     0.37243   0.76169   0.94090   0.00000  Uiso   1.00
N181   N     0.36765   0.13812   0.91921   0.00000  Uiso   1.00
N182   N     0.27923   0.96049   0.45165   0.00000  Uiso   1.00
N183   N     0.27900   0.76053   0.94216   0.00000  Uiso   1.00
N184   N     0.27423   0.13696   0.92047   0.00000  Uiso   1.00
C185   C     0.95394   0.37913   0.89657   0.00000  Uiso   1.00
C186   C     0.95579   0.35451   0.80064   0.00000  Uiso   1.00
C187   C     0.95798   0.38586   0.72069   0.00000  Uiso   1.00
C188   C     0.95941   0.35538   0.63980   0.00000  Uiso   1.00
C189   C     0.96236   0.32623   0.49096   0.00000  Uiso   1.00
C190   C     0.90068   0.35445   0.94105   0.00000  Uiso   1.00
C191   C     0.85653   0.38574   0.97916   0.00000  Uiso   1.00
C192   C     0.81156   0.35521   0.01647   0.00000  Uiso   1.00
C193   C     0.72897   0.32597   0.08568   0.00000  Uiso   1.00
C194   C     0.00442   0.35314   0.94701   0.00000  Uiso   1.00
C195   C     0.04750   0.38332   0.99016   0.00000  Uiso   1.00
C196   C     0.08988   0.35168   0.03251   0.00000  Uiso   1.00
C197   C     0.16837   0.32040   0.11097   0.00000  Uiso   1.00
C198   C     0.95258   0.26927   0.89510   0.00000  Uiso   1.00
C199   C     0.95505   0.29484   0.79984   0.00000  Uiso   1.00
C200   C     0.95648   0.26430   0.71905   0.00000  Uiso   1.00
C201   C     0.95867   0.29560   0.63899   0.00000  Uiso   1.00
C202   C     0.89993   0.29478   0.94025   0.00000  Uiso   1.00
C203   C     0.85503   0.26419   0.97752   0.00000  Uiso   1.00
C204   C     0.81082   0.29543   0.01567   0.00000  Uiso   1.00
C205   C     0.00368   0.29346   0.94621   0.00000  Uiso   1.00
C206   C     0.04600   0.26177   0.98851   0.00000  Uiso   1.00
C207   C     0.08914   0.29190   0.03171   0.00000  Uiso   1.00
H208   H     0.95452   0.42559   0.89720   0.00000  Uiso   1.00
H209   H     0.95855   0.43204   0.72134   0.00000  Uiso   1.00
H210   H     0.85712   0.43192   0.97978   0.00000  Uiso   1.00
H211   H     0.04806   0.42950   0.99076   0.00000  Uiso   1.00
H212   H     0.96267   0.41287   0.52601   0.00000  Uiso   1.00
H213   H     0.74881   0.41263   0.07096   0.00000  Uiso   1.00
H214   H     0.15145   0.40752   0.09414   0.00000  Uiso   1.00
H215   H     0.95201   0.22280   0.89447   0.00000  Uiso   1.00
H216   H     0.95590   0.21812   0.71845   0.00000  Uiso   1.00
H217   H     0.85447   0.21801   0.97689   0.00000  Uiso   1.00
H218   H     0.04541   0.21559   0.98788   0.00000  Uiso   1.00
H219   H     0.96052   0.23925   0.52366   0.00000  Uiso   1.00
H220   H     0.74666   0.23901   0.06862   0.00000  Uiso   1.00
H221   H     0.14930   0.23390   0.09179   0.00000  Uiso   1.00
O222   O     0.96419   0.32664   0.40909   0.00000  Uiso   1.00
O223   O     0.68361   0.32632   0.12407   0.00000  Uiso   1.00
O224   O     0.21187   0.31962   0.15447   0.00000  Uiso   1.00
N225   N     0.96164   0.37265   0.54961   0.00000  Uiso   1.00
N226   N     0.76169   0.37243   0.05910   0.00000  Uiso   1.00
N227   N     0.13812   0.36765   0.08079   0.00000  Uiso   1.00
N228   N     0.96049   0.27923   0.54835   0.00000  Uiso   1.00
N229   N     0.76053   0.27900   0.05784   0.00000  Uiso   1.00
N230   N     0.13696   0.27423   0.07953   0.00000  Uiso   1.00
C231   C     0.04606   0.62087   0.39657   0.00000  Uiso   1.00
C232   C     0.04421   0.64549   0.30064   0.00000  Uiso   1.00
C233   C     0.04202   0.61414   0.22069   0.00000  Uiso   1.00
C234   C     0.04059   0.64462   0.13980   0.00000  Uiso   1.00
C235   C     0.03764   0.67377   0.99096   0.00000  Uiso   1.00
C236   C     0.09932   0.64555   0.44105   0.00000  Uiso   1.00
C237   C     0.14347   0.61426   0.47916   0.00000  Uiso   1.00
C238   C     0.18844   0.64479   0.51647   0.00000  Uiso   1.00
C239   C     0.27103   0.67403   0.58568   0.00000  Uiso   1.00
C240   C     0.99558   0.64686   0.44701   0.00000  Uiso   1.00
C241   C     0.95250   0.61668   0.49016   0.00000  Uiso   1.00
C242   C     0.91012   0.64832   0.53251   0.00000  Uiso   1.00
C243   C     0.83163   0.67960   0.61097   0.00000  Uiso   1.00
C244   C     0.04742   0.73073   0.39510   0.00000  Uiso   1.00
C245   C     0.04495   0.70516   0.29984   0.00000  Uiso   1.00
C246   C     0.04352   0.73570   0.21905   0.00000  Uiso   1.00
C247   C     0.04133   0.70440   0.13899   0.00000  Uiso   1.00
C248   C     0.10007   0.70522   0.44025   0.00000  Uiso   1.00
C249   C     0.14497   0.73581   0.47752   0.00000  Uiso   1.00
C250   C     0.18918   0.70457   0.51567   0.00000  Uiso   1.00
C251   C     0.99632   0.70654   0.44621   0.00000  Uiso   1.00
C252   C     0.95400   0.73823   0.48851   0.00000  Uiso   1.00
C253   C     0.91086   0.70810   0.53171   0.00000  Uiso   1.00
H254   H     0.04548   0.57441   0.39720   0.00000  Uiso   1.00
H255   H     0.04145   0.56796   0.22134   0.00000  Uiso   1.00
H256   H     0.14288   0.56808   0.47978   0.00000  Uiso   1.00
H257   H     0.95194   0.57050   0.49076   0.00000  Uiso   1.00
H258   H     0.03733   0.58713   0.02601   0.00000  Uiso   1.00
H259   H     0.25119   0.58737   0.57096   0.00000  Uiso   1.00
H260   H     0.84855   0.59248   0.59414   0.00000  Uiso   1.00
H261   H     0.04799   0.77720   0.39447   0.00000  Uiso   1.00
H262   H     0.04410   0.78188   0.21845   0.00000  Uiso   1.00
H263   H     0.14553   0.78199   0.47689   0.00000  Uiso   1.00
H264   H     0.95459   0.78441   0.48788   0.00000  Uiso   1.00
H265   H     0.03948   0.76075   0.02366   0.00000  Uiso   1.00
H266   H     0.25334   0.76099   0.56862   0.00000  Uiso   1.00
H267   H     0.85070   0.76610   0.59179   0.00000  Uiso   1.00
O268   O     0.03581   0.67336   0.90909   0.00000  Uiso   1.00
O269   O     0.31639   0.67368   0.62407   0.00000  Uiso   1.00
O270   O     0.78813   0.68038   0.65447   0.00000  Uiso   1.00
N271   N     0.03836   0.62735   0.04961   0.00000  Uiso   1.00
N272   N     0.23831   0.62757   0.55910   0.00000  Uiso   1.00
N273   N     0.86188   0.63235   0.58079   0.00000  Uiso   1.00
N274   N     0.03951   0.72077   0.04835   0.00000  Uiso   1.00
N275   N     0.23947   0.72100   0.55784   0.00000  Uiso   1.00
N276   N     0.86304   0.72577   0.57953   0.00000  Uiso   1.00
C277   C     0.87913   0.54606   0.14657   0.00000  Uiso   1.00
C278   C     0.85451   0.54421   0.05064   0.00000  Uiso   1.00
C279   C     0.88586   0.54202   0.97069   0.00000  Uiso   1.00
C280   C     0.85538   0.54059   0.88980   0.00000  Uiso   1.00
C281   C     0.82623   0.53764   0.74096   0.00000  Uiso   1.00
C282   C     0.85445   0.59932   0.19105   0.00000  Uiso   1.00
C283   C     0.88574   0.64347   0.22916   0.00000  Uiso   1.00
C284   C     0.85521   0.68844   0.26647   0.00000  Uiso   1.00
C285   C     0.82597   0.77103   0.33568   0.00000  Uiso   1.00
C286   C     0.85314   0.49558   0.19701   0.00000  Uiso   1.00
C287   C     0.88332   0.45250   0.24016   0.00000  Uiso   1.00
C288   C     0.85168   0.41012   0.28251   0.00000  Uiso   1.00
C289   C     0.82040   0.33163   0.36097   0.00000  Uiso   1.00
C290   C     0.76927   0.54742   0.14510   0.00000  Uiso   1.00
C291   C     0.79484   0.54495   0.04984   0.00000  Uiso   1.00
C292   C     0.76430   0.54352   0.96905   0.00000  Uiso   1.00
C293   C     0.79560   0.54133   0.88899   0.00000  Uiso   1.00
C294   C     0.79478   0.60007   0.19025   0.00000  Uiso   1.00
C295   C     0.76419   0.64497   0.22752   0.00000  Uiso   1.00
C296   C     0.79543   0.68918   0.26567   0.00000  Uiso   1.00
C297   C     0.79346   0.49632   0.19621   0.00000  Uiso   1.00
C298   C     0.76177   0.45400   0.23851   0.00000  Uiso   1.00
C299   C     0.79190   0.41086   0.28171   0.00000  Uiso   1.00
H300   H     0.92559   0.54548   0.14720   0.00000  Uiso   1.00
H301   H     0.93204   0.54145   0.97134   0.00000  Uiso   1.00
H302   H     0.93192   0.64288   0.22978   0.00000  Uiso   1.00
H303   H     0.92950   0.45194   0.24076   0.00000  Uiso   1.00
H304   H     0.91287   0.53733   0.77601   0.00000  Uiso   1.00
H305   H     0.91263   0.75119   0.32096   0.00000  Uiso   1.00
H306   H     0.90752   0.34855   0.34414   0.00000  Uiso   1.00
H307   H     0.72280   0.54799   0.14447   0.00000  Uiso   1.00
H308   H     0.71812   0.54410   0.96845   0.00000  Uiso   1.00
H309   H     0.71801   0.64553   0.22689   0.00000  Uiso   1.00
H310   H     0.71559   0.45459   0.23788   0.00000  Uiso   1.00
H311   H     0.73925   0.53948   0.77366   0.00000  Uiso   1.00
H312   H     0.73901   0.75334   0.31862   0.00000  Uiso   1.00
H313   H     0.73390   0.35070   0.34179   0.00000  Uiso   1.00
O314   O     0.82664   0.53581   0.65909   0.00000  Uiso   1.00
O315   O     0.82632   0.81639   0.37407   0.00000  Uiso   1.00
O316   O     0.81962   0.28813   0.40447   0.00000  Uiso   1.00
N317   N     0.87265   0.53836   0.79961   0.00000  Uiso   1.00
N318   N     0.87243   0.73831   0.30910   0.00000  Uiso   1.00
N319   N     0.86765   0.36188   0.33079   0.00000  Uiso   1.00
N320   N     0.77923   0.53951   0.79835   0.00000  Uiso   1.00
N321   N     0.77900   0.73947   0.30784   0.00000  Uiso   1.00
N322   N     0.77423   0.36304   0.32953   0.00000  Uiso   1.00
C323   C     0.12087   0.45394   0.64657   0.00000  Uiso   1.00
C324   C     0.14549   0.45579   0.55064   0.00000  Uiso   1.00
C325   C     0.11414   0.45798   0.47069   0.00000  Uiso   1.00
C326   C     0.14462   0.45941   0.38980   0.00000  Uiso   1.00
C327   C     0.17377   0.46236   0.24096   0.00000  Uiso   1.00
C328   C     0.14555   0.40068   0.69105   0.00000  Uiso   1.00
C329   C     0.11426   0.35653   0.72916   0.00000  Uiso   1.00
C330   C     0.14479   0.31156   0.76647   0.00000  Uiso   1.00
C331   C     0.17403   0.22897   0.83568   0.00000  Uiso   1.00
C332   C     0.14686   0.50442   0.69701   0.00000  Uiso   1.00
C333   C     0.11668   0.54750   0.74016   0.00000  Uiso   1.00
C334   C     0.14832   0.58988   0.78251   0.00000  Uiso   1.00
C335   C     0.17960   0.66837   0.86097   0.00000  Uiso   1.00
C336   C     0.23073   0.45258   0.64510   0.00000  Uiso   1.00
C337   C     0.20516   0.45505   0.54984   0.00000  Uiso   1.00
C338   C     0.23570   0.45648   0.46905   0.00000  Uiso   1.00
C339   C     0.20440   0.45867   0.38899   0.00000  Uiso   1.00
C340   C     0.20522   0.39993   0.69025   0.00000  Uiso   1.00
C341   C     0.23581   0.35503   0.72752   0.00000  Uiso   1.00
C342   C     0.20457   0.31082   0.76567   0.00000  Uiso   1.00
C343   C     0.20654   0.50368   0.69621   0.00000  Uiso   1.00
C344   C     0.23823   0.54600   0.73851   0.00000  Uiso   1.00
C345   C     0.20810   0.58914   0.78171   0.00000  Uiso   1.00
H346   H     0.07441   0.45452   0.64720   0.00000  Uiso   1.00
H347   H     0.06796   0.45855   0.47134   0.00000  Uiso   1.00
H348   H     0.06808   0.35712   0.72978   0.00000  Uiso   1.00
H349   H     0.07050   0.54806   0.74076   0.00000  Uiso   1.00
H350   H     0.08713   0.46267   0.27601   0.00000  Uiso   1.00
H351   H     0.08737   0.24881   0.82096   0.00000  Uiso   1.00
H352   H     0.09248   0.65145   0.84414   0.00000  Uiso   1.00
H353   H     0.27720   0.45201   0.64447   0.00000  Uiso   1.00
H354   H     0.28188   0.45590   0.46845   0.00000  Uiso   1.00
H355   H     0.28199   0.35447   0.72689   0.00000  Uiso   1.00
H356   H     0.28441   0.54541   0.73788   0.00000  Uiso   1.00
H357   H     0.26075   0.46052   0.27366   0.00000  Uiso   1.00
H358   H     0.26099   0.24666   0.81862   0.00000  Uiso   1.00
H359   H     0.26610   0.64930   0.84179   0.00000  Uiso   1.00
O360   O     0.17336   0.46419   0.15909   0.00000  Uiso   1.00
O361   O     0.17368   0.18361   0.87407   0.00000  Uiso   1.00
O362   O     0.18038   0.71187   0.90447   0.00000  Uiso   1.00
N363   N     0.12735   0.46164   0.29961   0.00000  Uiso   1.00
N364   N     0.12757   0.26169   0.80910   0.00000  Uiso   1.00
N365   N     0.13235   0.63812   0.83079   0.00000  Uiso   1.00
N366   N     0.22077   0.46049   0.29835   0.00000  Uiso   1.00
N367   N     0.22100   0.26053   0.80784   0.00000  Uiso   1.00
N368   N     0.22577   0.63696   0.82953   0.00000  Uiso   1.00
