data_job_06328
_audit_creation_date              2018-12-19
_audit_creation_method            'Materials Studio'
_symmetry_space_group_name_H-M    'P1'
_symmetry_Int_Tables_number       1
_symmetry_cell_setting            triclinic
loop_
_symmetry_equiv_pos_as_xyz
  x,y,z
_cell_length_a                    18.0814
_cell_length_b                    17.9502
_cell_length_c                    17.6443
_cell_angle_alpha                 99.1701
_cell_angle_beta                  98.5006
_cell_angle_gamma                 97.2770
loop_
_atom_site_label
_atom_site_type_symbol
_atom_site_fract_x
_atom_site_fract_y
_atom_site_fract_z
_atom_site_U_iso_or_equiv
_atom_site_adp_type
_atom_site_occupancy
C1     C     0.74840   0.87377   0.58922   0.00000  Uiso   1.00
C2     C     0.67363   0.90052   0.60165   0.00000  Uiso   1.00
C3     C     0.65516   0.92962   0.67295   0.00000  Uiso   1.00
C4     C     0.58387   0.95089   0.67202   0.00000  Uiso   1.00
C5     C     0.47549   0.99354   0.70194   0.00000  Uiso   1.00
C6     C     0.72807   0.79138   0.54588   0.00000  Uiso   1.00
C7     C     0.75539   0.72873   0.57029   0.00000  Uiso   1.00
C8     C     0.72994   0.65814   0.52240   0.00000  Uiso   1.00
C9     C     0.70613   0.53137   0.46571   0.00000  Uiso   1.00
C10    C     0.77927   0.91981   0.53210   0.00000  Uiso   1.00
C11    C     0.84964   0.96513   0.54489   0.00000  Uiso   1.00
C12    C     0.86730   0.00264   0.48538   0.00000  Uiso   1.00
C13    C     0.92298   0.07527   0.40729   0.00000  Uiso   1.00
C14    C     0.65466   0.85978   0.46078   0.00000  Uiso   1.00
C15    C     0.62271   0.89292   0.53189   0.00000  Uiso   1.00
C16    C     0.55143   0.91415   0.53084   0.00000  Uiso   1.00
C17    C     0.53286   0.94328   0.60213   0.00000  Uiso   1.00
C18    C     0.67715   0.78379   0.47612   0.00000  Uiso   1.00
C19    C     0.65166   0.71326   0.42818   0.00000  Uiso   1.00
C20    C     0.67893   0.65052   0.45251   0.00000  Uiso   1.00
C21    C     0.72835   0.91221   0.46233   0.00000  Uiso   1.00
C22    C     0.74591   0.94966   0.40279   0.00000  Uiso   1.00
C23    C     0.81629   0.99503   0.41549   0.00000  Uiso   1.00
H24    H     0.78805   0.87968   0.64353   0.00000  Uiso   1.00
H25    H     0.69458   0.93548   0.72693   0.00000  Uiso   1.00
H26    H     0.79480   0.73463   0.62428   0.00000  Uiso   1.00
H27    H     0.88903   0.97099   0.59889   0.00000  Uiso   1.00
H28    H     0.56848   0.99398   0.78863   0.00000  Uiso   1.00
H29    H     0.77982   0.57048   0.57217   0.00000  Uiso   1.00
H30    H     0.97853   0.06889   0.51863   0.00000  Uiso   1.00
H31    H     0.61501   0.85386   0.40646   0.00000  Uiso   1.00
H32    H     0.51204   0.90826   0.47685   0.00000  Uiso   1.00
H33    H     0.61226   0.70741   0.37420   0.00000  Uiso   1.00
H34    H     0.70649   0.94376   0.34881   0.00000  Uiso   1.00
H35    H     0.42032   0.97188   0.58565   0.00000  Uiso   1.00
H36    H     0.63167   0.54838   0.36919   0.00000  Uiso   1.00
H37    H     0.83037   0.04679   0.31565   0.00000  Uiso   1.00
O38    O     0.42977   0.01916   0.73772   0.00000  Uiso   1.00
O39    O     0.70706   0.46354   0.45373   0.00000  Uiso   1.00
O40    O     0.96776   0.11744   0.38349   0.00000  Uiso   1.00
N41    N     0.54774   0.98133   0.73119   0.00000  Uiso   1.00
N42    N     0.74533   0.58538   0.52882   0.00000  Uiso   1.00
N43    N     0.93111   0.05133   0.47876   0.00000  Uiso   1.00
N44    N     0.46802   0.96944   0.62198   0.00000  Uiso   1.00
N45    N     0.66561   0.57349   0.41960   0.00000  Uiso   1.00
N46    N     0.85139   0.03944   0.36954   0.00000  Uiso   1.00
C47    C     0.58183   0.74272   0.87919   0.00000  Uiso   1.00
C48    C     0.59454   0.66762   0.90520   0.00000  Uiso   1.00
C49    C     0.66398   0.64875   0.93416   0.00000  Uiso   1.00
C50    C     0.66367   0.57721   0.95472   0.00000  Uiso   1.00
C51    C     0.69365   0.46830   0.99631   0.00000  Uiso   1.00
C52    C     0.54029   0.72136   0.79517   0.00000  Uiso   1.00
C53    C     0.56412   0.74770   0.73163   0.00000  Uiso   1.00
C54    C     0.51813   0.72141   0.65956   0.00000  Uiso   1.00
C55    C     0.46387   0.69599   0.53035   0.00000  Uiso   1.00
C56    C     0.52565   0.77511   0.92690   0.00000  Uiso   1.00
C57    C     0.53716   0.84665   0.97411   0.00000  Uiso   1.00
C58    C     0.47883   0.86562   0.01293   0.00000  Uiso   1.00
C59    C     0.40183   0.92365   0.08825   0.00000  Uiso   1.00
C60    C     0.45777   0.64923   0.86418   0.00000  Uiso   1.00
C61    C     0.52715   0.61683   0.89704   0.00000  Uiso   1.00
C62    C     0.52672   0.54531   0.91756   0.00000  Uiso   1.00
C63    C     0.59616   0.52634   0.94656   0.00000  Uiso   1.00
C64    C     0.47291   0.67058   0.78702   0.00000  Uiso   1.00
C65    C     0.42687   0.64425   0.71503   0.00000  Uiso   1.00
C66    C     0.45063   0.67053   0.65140   0.00000  Uiso   1.00
C67    C     0.45826   0.72433   0.91875   0.00000  Uiso   1.00
C68    C     0.39990   0.74320   0.95751   0.00000  Uiso   1.00
C69    C     0.41132   0.81474   0.00477   0.00000  Uiso   1.00
H70    H     0.63429   0.78226   0.88553   0.00000  Uiso   1.00
H71    H     0.71612   0.68806   0.94046   0.00000  Uiso   1.00
H72    H     0.61627   0.78700   0.73796   0.00000  Uiso   1.00
H73    H     0.58931   0.88593   0.98040   0.00000  Uiso   1.00
H74    H     0.77713   0.56122   0.99773   0.00000  Uiso   1.00
H75    H     0.56658   0.76986   0.57076   0.00000  Uiso   1.00
H76    H     0.50973   0.97847   0.08199   0.00000  Uiso   1.00
H77    H     0.40530   0.60969   0.85783   0.00000  Uiso   1.00
H78    H     0.47457   0.50602   0.91124   0.00000  Uiso   1.00
H79    H     0.37472   0.60496   0.70874   0.00000  Uiso   1.00
H80    H     0.34776   0.70389   0.95119   0.00000  Uiso   1.00
H81    H     0.58108   0.41347   0.97402   0.00000  Uiso   1.00
H82    H     0.37053   0.62211   0.54705   0.00000  Uiso   1.00
H83    H     0.31368   0.83072   0.05828   0.00000  Uiso   1.00
O84    O     0.72881   0.42226   0.02149   0.00000  Uiso   1.00
O85    O     0.45257   0.69599   0.46132   0.00000  Uiso   1.00
O86    O     0.37798   0.96968   0.13205   0.00000  Uiso   1.00
N87    N     0.72148   0.54068   0.98484   0.00000  Uiso   1.00
N88    N     0.52464   0.73573   0.58564   0.00000  Uiso   1.00
N89    N     0.47148   0.93078   0.06358   0.00000  Uiso   1.00
N90    N     0.61599   0.46118   0.97208   0.00000  Uiso   1.00
N91    N     0.41914   0.65623   0.57288   0.00000  Uiso   1.00
N92    N     0.36598   0.85127   0.05083   0.00000  Uiso   1.00
C93    C     0.87744   0.58968   0.73456   0.00000  Uiso   1.00
C94    C     0.90305   0.60107   0.65809   0.00000  Uiso   1.00
C95    C     0.93067   0.67052   0.63980   0.00000  Uiso   1.00
C96    C     0.95108   0.66889   0.56679   0.00000  Uiso   1.00
C97    C     0.99188   0.69703   0.45607   0.00000  Uiso   1.00
C98    C     0.79616   0.54828   0.71261   0.00000  Uiso   1.00
C99    C     0.73390   0.57334   0.74017   0.00000  Uiso   1.00
C100   C     0.66433   0.52726   0.71307   0.00000  Uiso   1.00
C101   C     0.53919   0.47341   0.68704   0.00000  Uiso   1.00
C102   C     0.92428   0.53307   0.76641   0.00000  Uiso   1.00
C103   C     0.96974   0.54532   0.83922   0.00000  Uiso   1.00
C104   C     0.00802   0.48643   0.85742   0.00000  Uiso   1.00
C105   C     0.08181   0.40896   0.91491   0.00000  Uiso   1.00
C106   C     0.86457   0.46328   0.63744   0.00000  Uiso   1.00
C107   C     0.89606   0.53241   0.60534   0.00000  Uiso   1.00
C108   C     0.91644   0.53068   0.53234   0.00000  Uiso   1.00
C109   C     0.94408   0.60011   0.51394   0.00000  Uiso   1.00
C110   C     0.78917   0.47963   0.65986   0.00000  Uiso   1.00
C111   C     0.71967   0.43350   0.63272   0.00000  Uiso   1.00
C112   C     0.65733   0.45848   0.66022   0.00000  Uiso   1.00
C113   C     0.91729   0.46441   0.71366   0.00000  Uiso   1.00
C114   C     0.95551   0.40548   0.73176   0.00000  Uiso   1.00
C115   C     0.00102   0.41765   0.80457   0.00000  Uiso   1.00
H116   H     0.88287   0.64312   0.77563   0.00000  Uiso   1.00
H117   H     0.93606   0.72364   0.68064   0.00000  Uiso   1.00
H118   H     0.73933   0.62647   0.78100   0.00000  Uiso   1.00
H119   H     0.97513   0.59846   0.88002   0.00000  Uiso   1.00
H120   H     0.99193   0.78263   0.55204   0.00000  Uiso   1.00
H121   H     0.57711   0.57773   0.76369   0.00000  Uiso   1.00
H122   H     0.07434   0.51866   0.97250   0.00000  Uiso   1.00
H123   H     0.85913   0.40983   0.59636   0.00000  Uiso   1.00
H124   H     0.91102   0.47754   0.49153   0.00000  Uiso   1.00
H125   H     0.71429   0.38037   0.59190   0.00000  Uiso   1.00
H126   H     0.95009   0.35236   0.69092   0.00000  Uiso   1.00
H127   H     0.97160   0.58289   0.39856   0.00000  Uiso   1.00
H128   H     0.55678   0.37798   0.61020   0.00000  Uiso   1.00
H129   H     0.05401   0.31892   0.81901   0.00000  Uiso   1.00
O130   O     0.01630   0.73152   0.40956   0.00000  Uiso   1.00
O131   O     0.47209   0.46268   0.68724   0.00000  Uiso   1.00
O132   O     0.12444   0.38520   0.96120   0.00000  Uiso   1.00
N133   N     0.98004   0.72633   0.53031   0.00000  Uiso   1.00
N134   N     0.59220   0.53476   0.72818   0.00000  Uiso   1.00
N135   N     0.05706   0.47953   0.92341   0.00000  Uiso   1.00
N136   N     0.96910   0.61885   0.44772   0.00000  Uiso   1.00
N137   N     0.58127   0.42728   0.64559   0.00000  Uiso   1.00
N138   N     0.04612   0.37205   0.84082   0.00000  Uiso   1.00
C139   C     0.25160   0.12623   0.41078   0.00000  Uiso   1.00
C140   C     0.32637   0.09948   0.39835   0.00000  Uiso   1.00
C141   C     0.34484   0.07038   0.32705   0.00000  Uiso   1.00
C142   C     0.41613   0.04911   0.32798   0.00000  Uiso   1.00
C143   C     0.52451   0.00646   0.29806   0.00000  Uiso   1.00
C144   C     0.27193   0.20862   0.45412   0.00000  Uiso   1.00
C145   C     0.24461   0.27127   0.42971   0.00000  Uiso   1.00
C146   C     0.27006   0.34186   0.47760   0.00000  Uiso   1.00
C147   C     0.29387   0.46863   0.53429   0.00000  Uiso   1.00
C148   C     0.22073   0.08019   0.46790   0.00000  Uiso   1.00
C149   C     0.15036   0.03487   0.45511   0.00000  Uiso   1.00
C150   C     0.13270   0.99736   0.51462   0.00000  Uiso   1.00
C151   C     0.07702   0.92473   0.59271   0.00000  Uiso   1.00
C152   C     0.34534   0.14022   0.53923   0.00000  Uiso   1.00
C153   C     0.37729   0.10708   0.46811   0.00000  Uiso   1.00
C154   C     0.44857   0.08585   0.46916   0.00000  Uiso   1.00
C155   C     0.46714   0.05672   0.39787   0.00000  Uiso   1.00
C156   C     0.32285   0.21621   0.52388   0.00000  Uiso   1.00
C157   C     0.34834   0.28674   0.57182   0.00000  Uiso   1.00
C158   C     0.32107   0.34948   0.54749   0.00000  Uiso   1.00
C159   C     0.27165   0.08779   0.53767   0.00000  Uiso   1.00
C160   C     0.25409   0.05034   0.59721   0.00000  Uiso   1.00
C161   C     0.18371   0.00497   0.58451   0.00000  Uiso   1.00
H162   H     0.21195   0.12032   0.35647   0.00000  Uiso   1.00
H163   H     0.30542   0.06452   0.27307   0.00000  Uiso   1.00
H164   H     0.20520   0.26537   0.37572   0.00000  Uiso   1.00
H165   H     0.11097   0.02901   0.40111   0.00000  Uiso   1.00
H166   H     0.43152   0.00602   0.21137   0.00000  Uiso   1.00
H167   H     0.22018   0.42952   0.42783   0.00000  Uiso   1.00
H168   H     0.02147   0.93111   0.48137   0.00000  Uiso   1.00
H169   H     0.38499   0.14614   0.59354   0.00000  Uiso   1.00
H170   H     0.48796   0.09174   0.52315   0.00000  Uiso   1.00
H171   H     0.38774   0.29259   0.62581   0.00000  Uiso   1.00
H172   H     0.29351   0.05623   0.65119   0.00000  Uiso   1.00
H173   H     0.57968   0.02812   0.41435   0.00000  Uiso   1.00
H174   H     0.36833   0.45162   0.63081   0.00000  Uiso   1.00
H175   H     0.16963   0.95321   0.68435   0.00000  Uiso   1.00
O176   O     0.57023   0.98084   0.26228   0.00000  Uiso   1.00
O177   O     0.29294   0.53646   0.54627   0.00000  Uiso   1.00
O178   O     0.03224   0.88256   0.61651   0.00000  Uiso   1.00
N179   N     0.45226   0.01867   0.26881   0.00000  Uiso   1.00
N180   N     0.25467   0.41462   0.47118   0.00000  Uiso   1.00
N181   N     0.06889   0.94867   0.52124   0.00000  Uiso   1.00
N182   N     0.53198   0.03056   0.37802   0.00000  Uiso   1.00
N183   N     0.33439   0.42651   0.58040   0.00000  Uiso   1.00
N184   N     0.14861   0.96056   0.63046   0.00000  Uiso   1.00
C185   C     0.41817   0.25728   0.12081   0.00000  Uiso   1.00
C186   C     0.40546   0.33238   0.09480   0.00000  Uiso   1.00
C187   C     0.33602   0.35125   0.06584   0.00000  Uiso   1.00
C188   C     0.33633   0.42279   0.04528   0.00000  Uiso   1.00
C189   C     0.30635   0.53170   0.00369   0.00000  Uiso   1.00
C190   C     0.45971   0.27864   0.20483   0.00000  Uiso   1.00
C191   C     0.43588   0.25230   0.26837   0.00000  Uiso   1.00
C192   C     0.48187   0.27859   0.34044   0.00000  Uiso   1.00
C193   C     0.53613   0.30401   0.46965   0.00000  Uiso   1.00
C194   C     0.47435   0.22489   0.07310   0.00000  Uiso   1.00
C195   C     0.46284   0.15335   0.02589   0.00000  Uiso   1.00
C196   C     0.52117   0.13438   0.98707   0.00000  Uiso   1.00
C197   C     0.59817   0.07635   0.91175   0.00000  Uiso   1.00
C198   C     0.54223   0.35077   0.13582   0.00000  Uiso   1.00
C199   C     0.47285   0.38317   0.10296   0.00000  Uiso   1.00
C200   C     0.47328   0.45469   0.08244   0.00000  Uiso   1.00
C201   C     0.40384   0.47366   0.05345   0.00000  Uiso   1.00
C202   C     0.52709   0.32942   0.21298   0.00000  Uiso   1.00
C203   C     0.57313   0.35575   0.28497   0.00000  Uiso   1.00
C204   C     0.54937   0.32947   0.34860   0.00000  Uiso   1.00
C205   C     0.54174   0.27567   0.08125   0.00000  Uiso   1.00
C206   C     0.60010   0.25680   0.04249   0.00000  Uiso   1.00
C207   C     0.58868   0.18526   0.99523   0.00000  Uiso   1.00
H208   H     0.36571   0.21774   0.11447   0.00000  Uiso   1.00
H209   H     0.28388   0.31194   0.05954   0.00000  Uiso   1.00
H210   H     0.38373   0.21300   0.26204   0.00000  Uiso   1.00
H211   H     0.41069   0.11407   0.01960   0.00000  Uiso   1.00
H212   H     0.22287   0.43878   0.00227   0.00000  Uiso   1.00
H213   H     0.43342   0.23014   0.42924   0.00000  Uiso   1.00
H214   H     0.49027   0.02153   0.91801   0.00000  Uiso   1.00
H215   H     0.59470   0.39031   0.14217   0.00000  Uiso   1.00
H216   H     0.52543   0.49398   0.08876   0.00000  Uiso   1.00
H217   H     0.62528   0.39504   0.29126   0.00000  Uiso   1.00
H218   H     0.65224   0.29611   0.04881   0.00000  Uiso   1.00
H219   H     0.41892   0.58653   0.02598   0.00000  Uiso   1.00
H220   H     0.62947   0.37789   0.45295   0.00000  Uiso   1.00
H221   H     0.68632   0.16928   0.94172   0.00000  Uiso   1.00
O222   O     0.27119   0.57775   0.97851   0.00000  Uiso   1.00
O223   O     0.54744   0.30401   0.53868   0.00000  Uiso   1.00
O224   O     0.62202   0.03032   0.86795   0.00000  Uiso   1.00
N225   N     0.27852   0.45932   0.01516   0.00000  Uiso   1.00
N226   N     0.47536   0.26427   0.41436   0.00000  Uiso   1.00
N227   N     0.52852   0.06922   0.93642   0.00000  Uiso   1.00
N228   N     0.38401   0.53882   0.02792   0.00000  Uiso   1.00
N229   N     0.58086   0.34377   0.42712   0.00000  Uiso   1.00
N230   N     0.63402   0.14873   0.94917   0.00000  Uiso   1.00
C231   C     0.12256   0.41032   0.26544   0.00000  Uiso   1.00
C232   C     0.09695   0.39893   0.34191   0.00000  Uiso   1.00
C233   C     0.06933   0.32948   0.36020   0.00000  Uiso   1.00
C234   C     0.04892   0.33111   0.43321   0.00000  Uiso   1.00
C235   C     0.00812   0.30297   0.54393   0.00000  Uiso   1.00
C236   C     0.20384   0.45172   0.28739   0.00000  Uiso   1.00
C237   C     0.26610   0.42666   0.25983   0.00000  Uiso   1.00
C238   C     0.33567   0.47274   0.28693   0.00000  Uiso   1.00
C239   C     0.46081   0.52659   0.31297   0.00000  Uiso   1.00
C240   C     0.07572   0.46693   0.23359   0.00000  Uiso   1.00
C241   C     0.03026   0.45468   0.16078   0.00000  Uiso   1.00
C242   C     0.99198   0.51357   0.14258   0.00000  Uiso   1.00
C243   C     0.91820   0.59104   0.08509   0.00000  Uiso   1.00
C244   C     0.13543   0.53672   0.36256   0.00000  Uiso   1.00
C245   C     0.10394   0.46759   0.39466   0.00000  Uiso   1.00
C246   C     0.08356   0.46932   0.46766   0.00000  Uiso   1.00
C247   C     0.05592   0.39989   0.48606   0.00000  Uiso   1.00
C248   C     0.21083   0.52037   0.34014   0.00000  Uiso   1.00
C249   C     0.28033   0.56650   0.36728   0.00000  Uiso   1.00
C250   C     0.34267   0.54152   0.33978   0.00000  Uiso   1.00
C251   C     0.08271   0.53559   0.28634   0.00000  Uiso   1.00
C252   C     0.04449   0.59452   0.26824   0.00000  Uiso   1.00
C253   C     0.99898   0.58235   0.19543   0.00000  Uiso   1.00
H254   H     0.11713   0.35688   0.22437   0.00000  Uiso   1.00
H255   H     0.06394   0.27636   0.31936   0.00000  Uiso   1.00
H256   H     0.26067   0.37353   0.21900   0.00000  Uiso   1.00
H257   H     0.02487   0.40154   0.11998   0.00000  Uiso   1.00
H258   H     0.00807   0.21737   0.44796   0.00000  Uiso   1.00
H259   H     0.42289   0.42227   0.23631   0.00000  Uiso   1.00
H260   H     0.92566   0.48134   0.02750   0.00000  Uiso   1.00
H261   H     0.14087   0.59017   0.40364   0.00000  Uiso   1.00
H262   H     0.08898   0.52246   0.50847   0.00000  Uiso   1.00
H263   H     0.28571   0.61963   0.40810   0.00000  Uiso   1.00
H264   H     0.04991   0.64764   0.30908   0.00000  Uiso   1.00
H265   H     0.02840   0.41711   0.60145   0.00000  Uiso   1.00
H266   H     0.44322   0.62202   0.38980   0.00000  Uiso   1.00
H267   H     0.94599   0.68108   0.18099   0.00000  Uiso   1.00
O268   O     0.98370   0.26849   0.59044   0.00000  Uiso   1.00
O269   O     0.52791   0.53732   0.31276   0.00000  Uiso   1.00
O270   O     0.87556   0.61480   0.03880   0.00000  Uiso   1.00
N271   N     0.01996   0.27367   0.46969   0.00000  Uiso   1.00
N272   N     0.40780   0.46524   0.27182   0.00000  Uiso   1.00
N273   N     0.94294   0.52047   0.07659   0.00000  Uiso   1.00
N274   N     0.03090   0.38115   0.55228   0.00000  Uiso   1.00
N275   N     0.41873   0.57272   0.35441   0.00000  Uiso   1.00
N276   N     0.95388   0.62795   0.15918   0.00000  Uiso   1.00
