data_job_01804
_audit_creation_date              2018-12-19
_audit_creation_method            'Materials Studio'
_symmetry_space_group_name_H-M    'P1'
_symmetry_Int_Tables_number       1
_symmetry_cell_setting            triclinic
loop_
_symmetry_equiv_pos_as_xyz
  x,y,z
_cell_length_a                    12.4833
_cell_length_b                    27.4836
_cell_length_c                    12.4509
_cell_angle_alpha                 90.0000
_cell_angle_beta                  64.8646
_cell_angle_gamma                 90.0000
loop_
_atom_site_label
_atom_site_type_symbol
_atom_site_fract_x
_atom_site_fract_y
_atom_site_fract_z
_atom_site_U_iso_or_equiv
_atom_site_adp_type
_atom_site_occupancy
C1     C     0.21257   0.62404   0.98108   0.00000  Uiso   1.00
C2     C     0.12550   0.64324   0.93474   0.00000  Uiso   1.00
C3     C     0.09848   0.62112   0.84909   0.00000  Uiso   1.00
C4     C     0.01654   0.64447   0.81882   0.00000  Uiso   1.00
C5     C     0.88944   0.66762   0.73868   0.00000  Uiso   1.00
C6     C     0.30236   0.66465   0.96083   0.00000  Uiso   1.00
C7     C     0.42406   0.66052   0.89713   0.00000  Uiso   1.00
C8     C     0.49100   0.70188   0.88883   0.00000  Uiso   1.00
C9     C     0.63850   0.75825   0.84926   0.00000  Uiso   1.00
C10    C     0.14304   0.61960   0.11519   0.00000  Uiso   1.00
C11    C     0.13079   0.57760   0.18129   0.00000  Uiso   1.00
C12    C     0.06361   0.58104   0.30296   0.00000  Uiso   1.00
C13    C     0.96372   0.56747   0.50306   0.00000  Uiso   1.00
C14    C     0.11507   0.70483   0.07962   0.00000  Uiso   1.00
C15    C     0.07255   0.68712   0.98826   0.00000  Uiso   1.00
C16    C     0.99061   0.71050   0.95811   0.00000  Uiso   1.00
C17    C     0.96348   0.68842   0.87244   0.00000  Uiso   1.00
C18    C     0.24941   0.70853   0.01435   0.00000  Uiso   1.00
C19    C     0.31619   0.74990   0.00615   0.00000  Uiso   1.00
C20    C     0.43795   0.74584   0.94244   0.00000  Uiso   1.00
C21    C     0.09007   0.66348   0.16871   0.00000  Uiso   1.00
C22    C     0.02291   0.66698   0.29031   0.00000  Uiso   1.00
C23    C     0.01056   0.62500   0.35658   0.00000  Uiso   1.00
H24    H     0.25380   0.58988   0.93941   0.00000  Uiso   1.00
H25    H     0.13949   0.58717   0.80768   0.00000  Uiso   1.00
H26    H     0.46501   0.62656   0.85573   0.00000  Uiso   1.00
H27    H     0.17178   0.54365   0.13984   0.00000  Uiso   1.00
H28    H     0.98944   0.60352   0.68522   0.00000  Uiso   1.00
H29    H     0.67582   0.68657   0.78655   0.00000  Uiso   1.00
H30    H     0.05749   0.51175   0.38566   0.00000  Uiso   1.00
H31    H     0.07384   0.73899   0.12129   0.00000  Uiso   1.00
H32    H     0.94965   0.74446   0.99955   0.00000  Uiso   1.00
H33    H     0.27518   0.78385   0.04758   0.00000  Uiso   1.00
H34    H     0.98194   0.70094   0.33170   0.00000  Uiso   1.00
H35    H     0.83536   0.73118   0.84093   0.00000  Uiso   1.00
H36    H     0.52175   0.81424   0.94227   0.00000  Uiso   1.00
H37    H     0.90341   0.63941   0.54137   0.00000  Uiso   1.00
O38    O     0.83398   0.66827   0.67968   0.00000  Uiso   1.00
O39    O     0.73449   0.77723   0.81264   0.00000  Uiso   1.00
O40    O     0.92325   0.54786   0.59865   0.00000  Uiso   1.00
N41    N     0.97020   0.63281   0.73859   0.00000  Uiso   1.00
N42    N     0.61193   0.71046   0.83331   0.00000  Uiso   1.00
N43    N     0.03386   0.54702   0.39343   0.00000  Uiso   1.00
N44    N     0.88729   0.70151   0.82238   0.00000  Uiso   1.00
N45    N     0.52902   0.77916   0.91710   0.00000  Uiso   1.00
N46    N     0.95095   0.61572   0.47722   0.00000  Uiso   1.00
C47    C     0.78743   0.12404   0.51892   0.00000  Uiso   1.00
C48    C     0.87450   0.14324   0.56526   0.00000  Uiso   1.00
C49    C     0.90152   0.12112   0.65091   0.00000  Uiso   1.00
C50    C     0.98346   0.14447   0.68118   0.00000  Uiso   1.00
C51    C     0.11056   0.16762   0.76132   0.00000  Uiso   1.00
C52    C     0.69764   0.16465   0.53917   0.00000  Uiso   1.00
C53    C     0.57594   0.16052   0.60287   0.00000  Uiso   1.00
C54    C     0.50900   0.20188   0.61117   0.00000  Uiso   1.00
C55    C     0.36150   0.25825   0.65074   0.00000  Uiso   1.00
C56    C     0.85696   0.11960   0.38481   0.00000  Uiso   1.00
C57    C     0.86921   0.07760   0.31871   0.00000  Uiso   1.00
C58    C     0.93639   0.08104   0.19704   0.00000  Uiso   1.00
C59    C     0.03628   0.06747   0.99694   0.00000  Uiso   1.00
C60    C     0.88493   0.20483   0.42038   0.00000  Uiso   1.00
C61    C     0.92745   0.18712   0.51174   0.00000  Uiso   1.00
C62    C     0.00939   0.21050   0.54189   0.00000  Uiso   1.00
C63    C     0.03652   0.18842   0.62756   0.00000  Uiso   1.00
C64    C     0.75059   0.20853   0.48565   0.00000  Uiso   1.00
C65    C     0.68381   0.24990   0.49385   0.00000  Uiso   1.00
C66    C     0.56205   0.24584   0.55756   0.00000  Uiso   1.00
C67    C     0.90993   0.16348   0.33129   0.00000  Uiso   1.00
C68    C     0.97709   0.16698   0.20969   0.00000  Uiso   1.00
C69    C     0.98944   0.12500   0.14342   0.00000  Uiso   1.00
H70    H     0.74620   0.08988   0.56059   0.00000  Uiso   1.00
H71    H     0.86051   0.08717   0.69232   0.00000  Uiso   1.00
H72    H     0.53499   0.12656   0.64427   0.00000  Uiso   1.00
H73    H     0.82822   0.04365   0.36016   0.00000  Uiso   1.00
H74    H     0.01056   0.10352   0.81478   0.00000  Uiso   1.00
H75    H     0.32418   0.18657   0.71345   0.00000  Uiso   1.00
H76    H     0.94251   0.01175   0.11434   0.00000  Uiso   1.00
H77    H     0.92616   0.23899   0.37871   0.00000  Uiso   1.00
H78    H     0.05035   0.24446   0.50045   0.00000  Uiso   1.00
H79    H     0.72482   0.28385   0.45242   0.00000  Uiso   1.00
H80    H     0.01806   0.20094   0.16830   0.00000  Uiso   1.00
H81    H     0.16464   0.23118   0.65907   0.00000  Uiso   1.00
H82    H     0.47825   0.31424   0.55773   0.00000  Uiso   1.00
H83    H     0.09659   0.13941   0.95863   0.00000  Uiso   1.00
O84    O     0.16602   0.16827   0.82032   0.00000  Uiso   1.00
O85    O     0.26551   0.27723   0.68736   0.00000  Uiso   1.00
O86    O     0.07675   0.04786   0.90135   0.00000  Uiso   1.00
N87    N     0.02980   0.13281   0.76141   0.00000  Uiso   1.00
N88    N     0.38807   0.21046   0.66669   0.00000  Uiso   1.00
N89    N     0.96614   0.04702   0.10657   0.00000  Uiso   1.00
N90    N     0.11271   0.20151   0.67762   0.00000  Uiso   1.00
N91    N     0.47098   0.27916   0.58290   0.00000  Uiso   1.00
N92    N     0.04905   0.11572   0.02278   0.00000  Uiso   1.00
C93    C     0.78743   0.37596   0.01892   0.00000  Uiso   1.00
C94    C     0.87450   0.35676   0.06526   0.00000  Uiso   1.00
C95    C     0.90152   0.37888   0.15091   0.00000  Uiso   1.00
C96    C     0.98346   0.35553   0.18118   0.00000  Uiso   1.00
C97    C     0.11056   0.33238   0.26132   0.00000  Uiso   1.00
C98    C     0.69764   0.33535   0.03917   0.00000  Uiso   1.00
C99    C     0.57594   0.33948   0.10287   0.00000  Uiso   1.00
C100   C     0.50900   0.29812   0.11117   0.00000  Uiso   1.00
C101   C     0.36150   0.24175   0.15074   0.00000  Uiso   1.00
C102   C     0.85696   0.38040   0.88481   0.00000  Uiso   1.00
C103   C     0.86921   0.42240   0.81871   0.00000  Uiso   1.00
C104   C     0.93639   0.41896   0.69704   0.00000  Uiso   1.00
C105   C     0.03628   0.43253   0.49694   0.00000  Uiso   1.00
C106   C     0.88493   0.29517   0.92038   0.00000  Uiso   1.00
C107   C     0.92745   0.31288   0.01174   0.00000  Uiso   1.00
C108   C     0.00939   0.28950   0.04189   0.00000  Uiso   1.00
C109   C     0.03652   0.31158   0.12756   0.00000  Uiso   1.00
C110   C     0.75059   0.29147   0.98565   0.00000  Uiso   1.00
C111   C     0.68381   0.25010   0.99385   0.00000  Uiso   1.00
C112   C     0.56205   0.25416   0.05756   0.00000  Uiso   1.00
C113   C     0.90993   0.33652   0.83129   0.00000  Uiso   1.00
C114   C     0.97709   0.33302   0.70969   0.00000  Uiso   1.00
C115   C     0.98944   0.37500   0.64342   0.00000  Uiso   1.00
H116   H     0.74620   0.41012   0.06059   0.00000  Uiso   1.00
H117   H     0.86051   0.41283   0.19232   0.00000  Uiso   1.00
H118   H     0.53499   0.37344   0.14427   0.00000  Uiso   1.00
H119   H     0.82822   0.45635   0.86016   0.00000  Uiso   1.00
H120   H     0.01056   0.39648   0.31478   0.00000  Uiso   1.00
H121   H     0.32418   0.31343   0.21345   0.00000  Uiso   1.00
H122   H     0.94251   0.48825   0.61434   0.00000  Uiso   1.00
H123   H     0.92616   0.26101   0.87871   0.00000  Uiso   1.00
H124   H     0.05035   0.25554   0.00045   0.00000  Uiso   1.00
H125   H     0.72482   0.21615   0.95242   0.00000  Uiso   1.00
H126   H     0.01806   0.29906   0.66830   0.00000  Uiso   1.00
H127   H     0.16464   0.26882   0.15907   0.00000  Uiso   1.00
H128   H     0.47825   0.18576   0.05773   0.00000  Uiso   1.00
H129   H     0.09659   0.36059   0.45863   0.00000  Uiso   1.00
O130   O     0.16602   0.33173   0.32032   0.00000  Uiso   1.00
O131   O     0.26551   0.22277   0.18736   0.00000  Uiso   1.00
O132   O     0.07675   0.45214   0.40135   0.00000  Uiso   1.00
N133   N     0.02980   0.36719   0.26141   0.00000  Uiso   1.00
N134   N     0.38807   0.28954   0.16669   0.00000  Uiso   1.00
N135   N     0.96614   0.45298   0.60657   0.00000  Uiso   1.00
N136   N     0.11271   0.29849   0.17762   0.00000  Uiso   1.00
N137   N     0.47098   0.22084   0.08290   0.00000  Uiso   1.00
N138   N     0.04905   0.38428   0.52278   0.00000  Uiso   1.00
C139   C     0.21257   0.87596   0.48108   0.00000  Uiso   1.00
C140   C     0.12550   0.85676   0.43474   0.00000  Uiso   1.00
C141   C     0.09848   0.87888   0.34909   0.00000  Uiso   1.00
C142   C     0.01654   0.85553   0.31882   0.00000  Uiso   1.00
C143   C     0.88944   0.83238   0.23868   0.00000  Uiso   1.00
C144   C     0.30236   0.83535   0.46083   0.00000  Uiso   1.00
C145   C     0.42406   0.83948   0.39713   0.00000  Uiso   1.00
C146   C     0.49100   0.79812   0.38883   0.00000  Uiso   1.00
C147   C     0.63850   0.74175   0.34926   0.00000  Uiso   1.00
C148   C     0.14304   0.88040   0.61519   0.00000  Uiso   1.00
C149   C     0.13079   0.92240   0.68129   0.00000  Uiso   1.00
C150   C     0.06361   0.91896   0.80296   0.00000  Uiso   1.00
C151   C     0.96372   0.93253   0.00306   0.00000  Uiso   1.00
C152   C     0.11507   0.79517   0.57962   0.00000  Uiso   1.00
C153   C     0.07255   0.81288   0.48826   0.00000  Uiso   1.00
C154   C     0.99061   0.78950   0.45811   0.00000  Uiso   1.00
C155   C     0.96348   0.81158   0.37244   0.00000  Uiso   1.00
C156   C     0.24941   0.79147   0.51435   0.00000  Uiso   1.00
C157   C     0.31619   0.75010   0.50615   0.00000  Uiso   1.00
C158   C     0.43795   0.75416   0.44244   0.00000  Uiso   1.00
C159   C     0.09007   0.83652   0.66871   0.00000  Uiso   1.00
C160   C     0.02291   0.83302   0.79031   0.00000  Uiso   1.00
C161   C     0.01056   0.87500   0.85658   0.00000  Uiso   1.00
H162   H     0.25380   0.91012   0.43941   0.00000  Uiso   1.00
H163   H     0.13949   0.91283   0.30768   0.00000  Uiso   1.00
H164   H     0.46501   0.87344   0.35573   0.00000  Uiso   1.00
H165   H     0.17178   0.95635   0.63984   0.00000  Uiso   1.00
H166   H     0.98944   0.89648   0.18522   0.00000  Uiso   1.00
H167   H     0.67582   0.81343   0.28655   0.00000  Uiso   1.00
H168   H     0.05749   0.98825   0.88566   0.00000  Uiso   1.00
H169   H     0.07384   0.76101   0.62129   0.00000  Uiso   1.00
H170   H     0.94965   0.75554   0.49955   0.00000  Uiso   1.00
H171   H     0.27518   0.71615   0.54758   0.00000  Uiso   1.00
H172   H     0.98194   0.79906   0.83170   0.00000  Uiso   1.00
H173   H     0.83536   0.76882   0.34093   0.00000  Uiso   1.00
H174   H     0.52175   0.68576   0.44227   0.00000  Uiso   1.00
H175   H     0.90341   0.86059   0.04137   0.00000  Uiso   1.00
O176   O     0.83398   0.83173   0.17968   0.00000  Uiso   1.00
O177   O     0.73449   0.72277   0.31264   0.00000  Uiso   1.00
O178   O     0.92325   0.95214   0.09865   0.00000  Uiso   1.00
N179   N     0.97020   0.86719   0.23859   0.00000  Uiso   1.00
N180   N     0.61193   0.78954   0.33331   0.00000  Uiso   1.00
N181   N     0.03386   0.95298   0.89343   0.00000  Uiso   1.00
N182   N     0.88729   0.79849   0.32238   0.00000  Uiso   1.00
N183   N     0.52902   0.72084   0.41710   0.00000  Uiso   1.00
N184   N     0.95095   0.88428   0.97722   0.00000  Uiso   1.00
