data_job_01610
_audit_creation_date              2018-12-19
_audit_creation_method            'Materials Studio'
_symmetry_space_group_name_H-M    'P1'
_symmetry_Int_Tables_number       1
_symmetry_cell_setting            triclinic
loop_
_symmetry_equiv_pos_as_xyz
  x,y,z
_cell_length_a                    10.9042
_cell_length_b                    11.3834
_cell_length_c                    12.4077
_cell_angle_alpha                 63.6474
_cell_angle_beta                  78.1045
_cell_angle_gamma                 91.1485
loop_
_atom_site_label
_atom_site_type_symbol
_atom_site_fract_x
_atom_site_fract_y
_atom_site_fract_z
_atom_site_U_iso_or_equiv
_atom_site_adp_type
_atom_site_occupancy
C1     C     0.84815   0.34700   0.21961   0.00000  Uiso   1.00
C2     C     0.86207   0.27670   0.35270   0.00000  Uiso   1.00
C3     C     0.96683   0.21896   0.38969   0.00000  Uiso   1.00
C4     C     0.96110   0.15950   0.51578   0.00000  Uiso   1.00
C5     C     0.99892   0.05053   0.70937   0.00000  Uiso   1.00
C6     C     0.72871   0.27694   0.21740   0.00000  Uiso   1.00
C7     C     0.72135   0.21942   0.14061   0.00000  Uiso   1.00
C8     C     0.60335   0.16017   0.15280   0.00000  Uiso   1.00
C9     C     0.43412   0.05165   0.13627   0.00000  Uiso   1.00
C10    C     0.81902   0.48534   0.19711   0.00000  Uiso   1.00
C11    C     0.88756   0.60305   0.10325   0.00000  Uiso   1.00
C12    C     0.84557   0.71927   0.09834   0.00000  Uiso   1.00
C13    C     0.81655   0.93433   0.05031   0.00000  Uiso   1.00
C14    C     0.65168   0.34408   0.37776   0.00000  Uiso   1.00
C15    C     0.75535   0.27511   0.43860   0.00000  Uiso   1.00
C16    C     0.74946   0.21573   0.56467   0.00000  Uiso   1.00
C17    C     0.85419   0.15792   0.60184   0.00000  Uiso   1.00
C18    C     0.62200   0.27535   0.30330   0.00000  Uiso   1.00
C19    C     0.50398   0.21618   0.31560   0.00000  Uiso   1.00
C20    C     0.49644   0.15858   0.23886   0.00000  Uiso   1.00
C21    C     0.71231   0.48376   0.28302   0.00000  Uiso   1.00
C22    C     0.67020   0.59982   0.27824   0.00000  Uiso   1.00
C23    C     0.73866   0.71768   0.18440   0.00000  Uiso   1.00
H24    H     0.93122   0.34823   0.15273   0.00000  Uiso   1.00
H25    H     0.04939   0.22020   0.32318   0.00000  Uiso   1.00
H26    H     0.80394   0.22067   0.07414   0.00000  Uiso   1.00
H27    H     0.97013   0.60424   0.03679   0.00000  Uiso   1.00
H28    H     0.13332   0.07751   0.55005   0.00000  Uiso   1.00
H29    H     0.61578   0.07854   0.02490   0.00000  Uiso   1.00
H30    H     0.96622   0.88738   0.94614   0.00000  Uiso   1.00
H31    H     0.56860   0.34284   0.44465   0.00000  Uiso   1.00
H32    H     0.66687   0.21452   0.63113   0.00000  Uiso   1.00
H33    H     0.42142   0.21498   0.38208   0.00000  Uiso   1.00
H34    H     0.58761   0.59855   0.34473   0.00000  Uiso   1.00
H35    H     0.82285   0.07290   0.79999   0.00000  Uiso   1.00
H36    H     0.30531   0.07393   0.27483   0.00000  Uiso   1.00
H37    H     0.65575   0.88276   0.19608   0.00000  Uiso   1.00
O38    O     0.04926   0.99085   0.79242   0.00000  Uiso   1.00
O39    O     0.37026   0.99222   0.10343   0.00000  Uiso   1.00
O40    O     0.83004   0.05340   0.00011   0.00000  Uiso   1.00
N41    N     0.04677   0.09406   0.58328   0.00000  Uiso   1.00
N42    N     0.56291   0.09500   0.09231   0.00000  Uiso   1.00
N43    N     0.89052   0.85120   0.01865   0.00000  Uiso   1.00
N44    N     0.87971   0.09158   0.71777   0.00000  Uiso   1.00
N45    N     0.39585   0.09252   0.22680   0.00000  Uiso   1.00
N46    N     0.72346   0.84872   0.15314   0.00000  Uiso   1.00
C47    C     0.15185   0.65300   0.78039   0.00000  Uiso   1.00
C48    C     0.13793   0.72330   0.64730   0.00000  Uiso   1.00
C49    C     0.03317   0.78104   0.61031   0.00000  Uiso   1.00
C50    C     0.03890   0.84050   0.48422   0.00000  Uiso   1.00
C51    C     0.00108   0.94947   0.29063   0.00000  Uiso   1.00
C52    C     0.27129   0.72306   0.78260   0.00000  Uiso   1.00
C53    C     0.27865   0.78058   0.85939   0.00000  Uiso   1.00
C54    C     0.39665   0.83983   0.84720   0.00000  Uiso   1.00
C55    C     0.56588   0.94835   0.86373   0.00000  Uiso   1.00
C56    C     0.18098   0.51466   0.80289   0.00000  Uiso   1.00
C57    C     0.11244   0.39695   0.89675   0.00000  Uiso   1.00
C58    C     0.15443   0.28073   0.90166   0.00000  Uiso   1.00
C59    C     0.18345   0.06567   0.94969   0.00000  Uiso   1.00
C60    C     0.34832   0.65592   0.62224   0.00000  Uiso   1.00
C61    C     0.24465   0.72489   0.56140   0.00000  Uiso   1.00
C62    C     0.25054   0.78427   0.43533   0.00000  Uiso   1.00
C63    C     0.14581   0.84208   0.39816   0.00000  Uiso   1.00
C64    C     0.37800   0.72465   0.69670   0.00000  Uiso   1.00
C65    C     0.49602   0.78382   0.68440   0.00000  Uiso   1.00
C66    C     0.50356   0.84142   0.76114   0.00000  Uiso   1.00
C67    C     0.28769   0.51624   0.71698   0.00000  Uiso   1.00
C68    C     0.32980   0.40018   0.72176   0.00000  Uiso   1.00
C69    C     0.26134   0.28232   0.81560   0.00000  Uiso   1.00
H70    H     0.06878   0.65177   0.84727   0.00000  Uiso   1.00
H71    H     0.95061   0.77980   0.67682   0.00000  Uiso   1.00
H72    H     0.19606   0.77933   0.92586   0.00000  Uiso   1.00
H73    H     0.02987   0.39576   0.96321   0.00000  Uiso   1.00
H74    H     0.86668   0.92249   0.44995   0.00000  Uiso   1.00
H75    H     0.38422   0.92146   0.97510   0.00000  Uiso   1.00
H76    H     0.03378   0.11262   0.05386   0.00000  Uiso   1.00
H77    H     0.43140   0.65716   0.55535   0.00000  Uiso   1.00
H78    H     0.33313   0.78548   0.36887   0.00000  Uiso   1.00
H79    H     0.57858   0.78502   0.61792   0.00000  Uiso   1.00
H80    H     0.41239   0.40145   0.65527   0.00000  Uiso   1.00
H81    H     0.17715   0.92710   0.20001   0.00000  Uiso   1.00
H82    H     0.69469   0.92607   0.72517   0.00000  Uiso   1.00
H83    H     0.34425   0.11724   0.80392   0.00000  Uiso   1.00
O84    O     0.95074   0.00915   0.20758   0.00000  Uiso   1.00
O85    O     0.62974   0.00778   0.89657   0.00000  Uiso   1.00
O86    O     0.16996   0.94660   0.99989   0.00000  Uiso   1.00
N87    N     0.95323   0.90594   0.41672   0.00000  Uiso   1.00
N88    N     0.43709   0.90500   0.90769   0.00000  Uiso   1.00
N89    N     0.10948   0.14880   0.98135   0.00000  Uiso   1.00
N90    N     0.12029   0.90842   0.28223   0.00000  Uiso   1.00
N91    N     0.60415   0.90748   0.77320   0.00000  Uiso   1.00
N92    N     0.27654   0.15128   0.84686   0.00000  Uiso   1.00
