data_job_05101
_audit_creation_date              2018-12-19
_audit_creation_method            'Materials Studio'
_symmetry_space_group_name_H-M    'P1'
_symmetry_Int_Tables_number       1
_symmetry_cell_setting            triclinic
loop_
_symmetry_equiv_pos_as_xyz
  x,y,z
_cell_length_a                    16.9385
_cell_length_b                    22.8635
_cell_length_c                    7.3479
_cell_angle_alpha                 90.0000
_cell_angle_beta                  90.0000
_cell_angle_gamma                 90.0000
loop_
_atom_site_label
_atom_site_type_symbol
_atom_site_fract_x
_atom_site_fract_y
_atom_site_fract_z
_atom_site_U_iso_or_equiv
_atom_site_adp_type
_atom_site_occupancy
C1     C     0.44860   0.68843   0.42590   0.00000  Uiso   1.00
C2     C     0.37058   0.66746   0.34547   0.00000  Uiso   1.00
C3     C     0.30489   0.64981   0.44406   0.00000  Uiso   1.00
C4     C     0.23923   0.63215   0.34520   0.00000  Uiso   1.00
C5     C     0.11808   0.59957   0.24931   0.00000  Uiso   1.00
C6     C     0.51219   0.64884   0.34589   0.00000  Uiso   1.00
C7     C     0.56557   0.61553   0.44483   0.00000  Uiso   1.00
C8     C     0.61913   0.58220   0.34631   0.00000  Uiso   1.00
C9     C     0.71788   0.52073   0.25107   0.00000  Uiso   1.00
C10    C     0.46317   0.74901   0.34586   0.00000  Uiso   1.00
C11    C     0.47535   0.79993   0.44478   0.00000  Uiso   1.00
C12    C     0.48765   0.85094   0.34624   0.00000  Uiso   1.00
C13    C     0.51028   0.94500   0.25096   0.00000  Uiso   1.00
C14    C     0.44881   0.68847   0.07501   0.00000  Uiso   1.00
C15    C     0.37070   0.66749   0.15488   0.00000  Uiso   1.00
C16    C     0.30512   0.64986   0.05584   0.00000  Uiso   1.00
C17    C     0.23934   0.63218   0.15426   0.00000  Uiso   1.00
C18    C     0.51231   0.64886   0.15531   0.00000  Uiso   1.00
C19    C     0.56580   0.61558   0.05661   0.00000  Uiso   1.00
C20    C     0.61925   0.58222   0.15538   0.00000  Uiso   1.00
C21    C     0.46328   0.74904   0.15527   0.00000  Uiso   1.00
C22    C     0.47558   0.79997   0.05656   0.00000  Uiso   1.00
C23    C     0.48777   0.85096   0.15530   0.00000  Uiso   1.00
H24    H     0.44851   0.68841   0.57428   0.00000  Uiso   1.00
H25    H     0.30482   0.64979   0.59156   0.00000  Uiso   1.00
H26    H     0.56548   0.61552   0.59232   0.00000  Uiso   1.00
H27    H     0.47526   0.79989   0.59227   0.00000  Uiso   1.00
H28    H     0.14558   0.60697   0.52666   0.00000  Uiso   1.00
H29    H     0.69519   0.53472   0.52828   0.00000  Uiso   1.00
H30    H     0.50496   0.92350   0.52817   0.00000  Uiso   1.00
H31    H     0.44890   0.68849   0.92662   0.00000  Uiso   1.00
H32    H     0.30522   0.64988   0.90835   0.00000  Uiso   1.00
H33    H     0.56588   0.61561   0.90912   0.00000  Uiso   1.00
H34    H     0.47566   0.79998   0.90907   0.00000  Uiso   1.00
H35    H     0.14590   0.60704   0.97215   0.00000  Uiso   1.00
H36    H     0.69552   0.53479   0.97377   0.00000  Uiso   1.00
H37    H     0.50528   0.92357   0.97366   0.00000  Uiso   1.00
O38    O     0.05123   0.58158   0.24907   0.00000  Uiso   1.00
O39    O     0.77231   0.48681   0.25120   0.00000  Uiso   1.00
O40    O     0.52272   0.99688   0.25106   0.00000  Uiso   1.00
N41    N     0.16536   0.61229   0.39866   0.00000  Uiso   1.00
N42    N     0.67922   0.54474   0.40018   0.00000  Uiso   1.00
N43    N     0.50138   0.90822   0.40007   0.00000  Uiso   1.00
N44    N     0.16554   0.61233   0.10028   0.00000  Uiso   1.00
N45    N     0.67939   0.54478   0.10180   0.00000  Uiso   1.00
N46    N     0.50156   0.90825   0.10170   0.00000  Uiso   1.00
C47    C     0.05140   0.31157   0.92590   0.00000  Uiso   1.00
C48    C     0.12942   0.33254   0.84547   0.00000  Uiso   1.00
C49    C     0.19511   0.35019   0.94406   0.00000  Uiso   1.00
C50    C     0.26077   0.36785   0.84520   0.00000  Uiso   1.00
C51    C     0.38192   0.40043   0.74931   0.00000  Uiso   1.00
C52    C     0.98781   0.35116   0.84589   0.00000  Uiso   1.00
C53    C     0.93443   0.38447   0.94483   0.00000  Uiso   1.00
C54    C     0.88087   0.41780   0.84631   0.00000  Uiso   1.00
C55    C     0.78212   0.47927   0.75107   0.00000  Uiso   1.00
C56    C     0.03683   0.25099   0.84586   0.00000  Uiso   1.00
C57    C     0.02465   0.20007   0.94478   0.00000  Uiso   1.00
C58    C     0.01235   0.14906   0.84624   0.00000  Uiso   1.00
C59    C     0.98972   0.05500   0.75096   0.00000  Uiso   1.00
C60    C     0.05119   0.31153   0.57501   0.00000  Uiso   1.00
C61    C     0.12930   0.33251   0.65488   0.00000  Uiso   1.00
C62    C     0.19488   0.35014   0.55584   0.00000  Uiso   1.00
C63    C     0.26066   0.36782   0.65426   0.00000  Uiso   1.00
C64    C     0.98769   0.35114   0.65531   0.00000  Uiso   1.00
C65    C     0.93420   0.38442   0.55661   0.00000  Uiso   1.00
C66    C     0.88075   0.41778   0.65538   0.00000  Uiso   1.00
C67    C     0.03672   0.25096   0.65527   0.00000  Uiso   1.00
C68    C     0.02442   0.20003   0.55656   0.00000  Uiso   1.00
C69    C     0.01223   0.14904   0.65530   0.00000  Uiso   1.00
H70    H     0.05149   0.31159   0.07428   0.00000  Uiso   1.00
H71    H     0.19518   0.35021   0.09156   0.00000  Uiso   1.00
H72    H     0.93452   0.38448   0.09232   0.00000  Uiso   1.00
H73    H     0.02474   0.20011   0.09227   0.00000  Uiso   1.00
H74    H     0.35442   0.39303   0.02666   0.00000  Uiso   1.00
H75    H     0.80481   0.46528   0.02828   0.00000  Uiso   1.00
H76    H     0.99504   0.07650   0.02817   0.00000  Uiso   1.00
H77    H     0.05110   0.31151   0.42662   0.00000  Uiso   1.00
H78    H     0.19478   0.35012   0.40835   0.00000  Uiso   1.00
H79    H     0.93412   0.38439   0.40912   0.00000  Uiso   1.00
H80    H     0.02434   0.20002   0.40907   0.00000  Uiso   1.00
H81    H     0.35410   0.39296   0.47215   0.00000  Uiso   1.00
H82    H     0.80448   0.46521   0.47377   0.00000  Uiso   1.00
H83    H     0.99472   0.07643   0.47366   0.00000  Uiso   1.00
O84    O     0.44877   0.41842   0.74907   0.00000  Uiso   1.00
O85    O     0.72769   0.51319   0.75120   0.00000  Uiso   1.00
O86    O     0.97728   0.00312   0.75106   0.00000  Uiso   1.00
N87    N     0.33464   0.38771   0.89866   0.00000  Uiso   1.00
N88    N     0.82078   0.45526   0.90018   0.00000  Uiso   1.00
N89    N     0.99862   0.09178   0.90007   0.00000  Uiso   1.00
N90    N     0.33446   0.38767   0.60028   0.00000  Uiso   1.00
N91    N     0.82061   0.45522   0.60180   0.00000  Uiso   1.00
N92    N     0.99844   0.09175   0.60170   0.00000  Uiso   1.00
C93    C     0.55140   0.18843   0.07410   0.00000  Uiso   1.00
C94    C     0.62942   0.16746   0.15453   0.00000  Uiso   1.00
C95    C     0.69511   0.14981   0.05594   0.00000  Uiso   1.00
C96    C     0.76077   0.13215   0.15480   0.00000  Uiso   1.00
C97    C     0.88192   0.09957   0.25069   0.00000  Uiso   1.00
C98    C     0.48781   0.14884   0.15411   0.00000  Uiso   1.00
C99    C     0.43443   0.11553   0.05517   0.00000  Uiso   1.00
C100   C     0.38087   0.08220   0.15369   0.00000  Uiso   1.00
C101   C     0.28212   0.02073   0.24893   0.00000  Uiso   1.00
C102   C     0.53683   0.24901   0.15414   0.00000  Uiso   1.00
C103   C     0.52465   0.29993   0.05522   0.00000  Uiso   1.00
C104   C     0.51235   0.35094   0.15376   0.00000  Uiso   1.00
C105   C     0.48972   0.44500   0.24904   0.00000  Uiso   1.00
C106   C     0.55119   0.18847   0.42499   0.00000  Uiso   1.00
C107   C     0.62930   0.16749   0.34512   0.00000  Uiso   1.00
C108   C     0.69488   0.14986   0.44416   0.00000  Uiso   1.00
C109   C     0.76066   0.13218   0.34574   0.00000  Uiso   1.00
C110   C     0.48769   0.14886   0.34469   0.00000  Uiso   1.00
C111   C     0.43420   0.11558   0.44339   0.00000  Uiso   1.00
C112   C     0.38075   0.08222   0.34462   0.00000  Uiso   1.00
C113   C     0.53672   0.24904   0.34473   0.00000  Uiso   1.00
C114   C     0.52442   0.29997   0.44344   0.00000  Uiso   1.00
C115   C     0.51223   0.35096   0.34470   0.00000  Uiso   1.00
H116   H     0.55149   0.18841   0.92572   0.00000  Uiso   1.00
H117   H     0.69518   0.14979   0.90844   0.00000  Uiso   1.00
H118   H     0.43452   0.11552   0.90768   0.00000  Uiso   1.00
H119   H     0.52474   0.29989   0.90773   0.00000  Uiso   1.00
H120   H     0.85442   0.10697   0.97334   0.00000  Uiso   1.00
H121   H     0.30481   0.03472   0.97172   0.00000  Uiso   1.00
H122   H     0.49504   0.42350   0.97183   0.00000  Uiso   1.00
H123   H     0.55110   0.18849   0.57338   0.00000  Uiso   1.00
H124   H     0.69478   0.14988   0.59165   0.00000  Uiso   1.00
H125   H     0.43412   0.11561   0.59088   0.00000  Uiso   1.00
H126   H     0.52434   0.29998   0.59093   0.00000  Uiso   1.00
H127   H     0.85410   0.10704   0.52785   0.00000  Uiso   1.00
H128   H     0.30448   0.03479   0.52623   0.00000  Uiso   1.00
H129   H     0.49472   0.42357   0.52634   0.00000  Uiso   1.00
O130   O     0.94877   0.08158   0.25093   0.00000  Uiso   1.00
O131   O     0.22769   0.98681   0.24880   0.00000  Uiso   1.00
O132   O     0.47728   0.49688   0.24894   0.00000  Uiso   1.00
N133   N     0.83464   0.11229   0.10134   0.00000  Uiso   1.00
N134   N     0.32078   0.04474   0.09982   0.00000  Uiso   1.00
N135   N     0.49862   0.40822   0.09993   0.00000  Uiso   1.00
N136   N     0.83446   0.11233   0.39972   0.00000  Uiso   1.00
N137   N     0.32061   0.04478   0.39820   0.00000  Uiso   1.00
N138   N     0.49844   0.40825   0.39830   0.00000  Uiso   1.00
C139   C     0.94860   0.81157   0.57410   0.00000  Uiso   1.00
C140   C     0.87058   0.83254   0.65453   0.00000  Uiso   1.00
C141   C     0.80489   0.85019   0.55594   0.00000  Uiso   1.00
C142   C     0.73923   0.86785   0.65480   0.00000  Uiso   1.00
C143   C     0.61808   0.90043   0.75069   0.00000  Uiso   1.00
C144   C     0.01219   0.85116   0.65411   0.00000  Uiso   1.00
C145   C     0.06557   0.88447   0.55517   0.00000  Uiso   1.00
C146   C     0.11913   0.91780   0.65369   0.00000  Uiso   1.00
C147   C     0.21788   0.97927   0.74893   0.00000  Uiso   1.00
C148   C     0.96317   0.75099   0.65414   0.00000  Uiso   1.00
C149   C     0.97535   0.70007   0.55522   0.00000  Uiso   1.00
C150   C     0.98765   0.64906   0.65376   0.00000  Uiso   1.00
C151   C     0.01028   0.55500   0.74904   0.00000  Uiso   1.00
C152   C     0.94881   0.81153   0.92499   0.00000  Uiso   1.00
C153   C     0.87070   0.83251   0.84512   0.00000  Uiso   1.00
C154   C     0.80512   0.85014   0.94416   0.00000  Uiso   1.00
C155   C     0.73934   0.86782   0.84574   0.00000  Uiso   1.00
C156   C     0.01231   0.85114   0.84469   0.00000  Uiso   1.00
C157   C     0.06580   0.88442   0.94339   0.00000  Uiso   1.00
C158   C     0.11925   0.91778   0.84462   0.00000  Uiso   1.00
C159   C     0.96328   0.75096   0.84473   0.00000  Uiso   1.00
C160   C     0.97558   0.70003   0.94344   0.00000  Uiso   1.00
C161   C     0.98777   0.64904   0.84470   0.00000  Uiso   1.00
H162   H     0.94851   0.81159   0.42572   0.00000  Uiso   1.00
H163   H     0.80482   0.85021   0.40844   0.00000  Uiso   1.00
H164   H     0.06548   0.88448   0.40768   0.00000  Uiso   1.00
H165   H     0.97526   0.70011   0.40773   0.00000  Uiso   1.00
H166   H     0.64558   0.89303   0.47334   0.00000  Uiso   1.00
H167   H     0.19519   0.96528   0.47172   0.00000  Uiso   1.00
H168   H     0.00496   0.57650   0.47183   0.00000  Uiso   1.00
H169   H     0.94890   0.81151   0.07338   0.00000  Uiso   1.00
H170   H     0.80522   0.85012   0.09165   0.00000  Uiso   1.00
H171   H     0.06588   0.88439   0.09088   0.00000  Uiso   1.00
H172   H     0.97566   0.70002   0.09093   0.00000  Uiso   1.00
H173   H     0.64590   0.89296   0.02785   0.00000  Uiso   1.00
H174   H     0.19552   0.96521   0.02623   0.00000  Uiso   1.00
H175   H     0.00528   0.57643   0.02634   0.00000  Uiso   1.00
O176   O     0.55123   0.91842   0.75093   0.00000  Uiso   1.00
O177   O     0.27231   0.01319   0.74880   0.00000  Uiso   1.00
O178   O     0.02272   0.50312   0.74894   0.00000  Uiso   1.00
N179   N     0.66536   0.88771   0.60134   0.00000  Uiso   1.00
N180   N     0.17922   0.95526   0.59982   0.00000  Uiso   1.00
N181   N     0.00138   0.59178   0.59993   0.00000  Uiso   1.00
N182   N     0.66554   0.88767   0.89972   0.00000  Uiso   1.00
N183   N     0.17939   0.95522   0.89820   0.00000  Uiso   1.00
N184   N     0.00156   0.59175   0.89830   0.00000  Uiso   1.00
