data_job_01767
_audit_creation_date              2018-12-19
_audit_creation_method            'Materials Studio'
_symmetry_space_group_name_H-M    'P1'
_symmetry_Int_Tables_number       1
_symmetry_cell_setting            triclinic
loop_
_symmetry_equiv_pos_as_xyz
  x,y,z
_cell_length_a                    10.6407
_cell_length_b                    12.4120
_cell_length_c                    22.6791
_cell_angle_alpha                 90.0000
_cell_angle_beta                  117.9116
_cell_angle_gamma                 90.0000
loop_
_atom_site_label
_atom_site_type_symbol
_atom_site_fract_x
_atom_site_fract_y
_atom_site_fract_z
_atom_site_U_iso_or_equiv
_atom_site_adp_type
_atom_site_occupancy
C1     C     0.98600   0.41346   0.57213   0.00000  Uiso   1.00
C2     C     0.92171   0.30116   0.56374   0.00000  Uiso   1.00
C3     C     0.88316   0.23447   0.50883   0.00000  Uiso   1.00
C4     C     0.82609   0.13473   0.51074   0.00000  Uiso   1.00
C5     C     0.72890   0.96521   0.48935   0.00000  Uiso   1.00
C6     C     0.88807   0.48862   0.58498   0.00000  Uiso   1.00
C7     C     0.82126   0.57956   0.54793   0.00000  Uiso   1.00
C8     C     0.73590   0.63763   0.56772   0.00000  Uiso   1.00
C9     C     0.58657   0.75919   0.57934   0.00000  Uiso   1.00
C10    C     0.12575   0.41049   0.63689   0.00000  Uiso   1.00
C11    C     0.25879   0.43577   0.64350   0.00000  Uiso   1.00
C12    C     0.37354   0.42809   0.70701   0.00000  Uiso   1.00
C13    C     0.59324   0.42835   0.79923   0.00000  Uiso   1.00
C14    C     0.95323   0.35492   0.67316   0.00000  Uiso   1.00
C15    C     0.90390   0.26936   0.61862   0.00000  Uiso   1.00
C16    C     0.84689   0.16969   0.62061   0.00000  Uiso   1.00
C17    C     0.80826   0.10287   0.56571   0.00000  Uiso   1.00
C18    C     0.87027   0.45682   0.63985   0.00000  Uiso   1.00
C19    C     0.78500   0.51478   0.65971   0.00000  Uiso   1.00
C20    C     0.71806   0.60577   0.62270   0.00000  Uiso   1.00
C21    C     0.10796   0.37869   0.69177   0.00000  Uiso   1.00
C22    C     0.22252   0.37098   0.75528   0.00000  Uiso   1.00
C23    C     0.35570   0.39623   0.76198   0.00000  Uiso   1.00
H24    H     0.99986   0.43823   0.52941   0.00000  Uiso   1.00
H25    H     0.89694   0.25911   0.46637   0.00000  Uiso   1.00
H26    H     0.83506   0.60415   0.50547   0.00000  Uiso   1.00
H27    H     0.27252   0.46037   0.60103   0.00000  Uiso   1.00
H28    H     0.77493   0.04653   0.42068   0.00000  Uiso   1.00
H29    H     0.64451   0.77407   0.50314   0.00000  Uiso   1.00
H30    H     0.56697   0.47090   0.70463   0.00000  Uiso   1.00
H31    H     0.93937   0.33016   0.71588   0.00000  Uiso   1.00
H32    H     0.83313   0.14511   0.66308   0.00000  Uiso   1.00
H33    H     0.77125   0.49015   0.70218   0.00000  Uiso   1.00
H34    H     0.20871   0.34637   0.79773   0.00000  Uiso   1.00
H35    H     0.72313   0.95400   0.58033   0.00000  Uiso   1.00
H36    H     0.59271   0.68155   0.66279   0.00000  Uiso   1.00
H37    H     0.51517   0.37837   0.86428   0.00000  Uiso   1.00
O38    O     0.68019   0.88050   0.46239   0.00000  Uiso   1.00
O39    O     0.50911   0.83502   0.57058   0.00000  Uiso   1.00
O40    O     0.71935   0.43726   0.83494   0.00000  Uiso   1.00
N41    N     0.77735   0.05014   0.46550   0.00000  Uiso   1.00
N42    N     0.65539   0.73034   0.54259   0.00000  Uiso   1.00
N43    N     0.51781   0.44693   0.73097   0.00000  Uiso   1.00
N44    N     0.74948   0.00035   0.55141   0.00000  Uiso   1.00
N45    N     0.62752   0.68055   0.62850   0.00000  Uiso   1.00
N46    N     0.48994   0.39714   0.81688   0.00000  Uiso   1.00
C47    C     0.01400   0.91346   0.92787   0.00000  Uiso   1.00
C48    C     0.07829   0.80116   0.93626   0.00000  Uiso   1.00
C49    C     0.11684   0.73447   0.99117   0.00000  Uiso   1.00
C50    C     0.17391   0.63473   0.98926   0.00000  Uiso   1.00
C51    C     0.27110   0.46521   0.01065   0.00000  Uiso   1.00
C52    C     0.11193   0.98862   0.91502   0.00000  Uiso   1.00
C53    C     0.17874   0.07956   0.95207   0.00000  Uiso   1.00
C54    C     0.26410   0.13763   0.93228   0.00000  Uiso   1.00
C55    C     0.41343   0.25919   0.92066   0.00000  Uiso   1.00
C56    C     0.87425   0.91049   0.86311   0.00000  Uiso   1.00
C57    C     0.74121   0.93577   0.85650   0.00000  Uiso   1.00
C58    C     0.62646   0.92809   0.79299   0.00000  Uiso   1.00
C59    C     0.40676   0.92835   0.70077   0.00000  Uiso   1.00
C60    C     0.04677   0.85492   0.82684   0.00000  Uiso   1.00
C61    C     0.09610   0.76936   0.88138   0.00000  Uiso   1.00
C62    C     0.15311   0.66969   0.87939   0.00000  Uiso   1.00
C63    C     0.19174   0.60287   0.93429   0.00000  Uiso   1.00
C64    C     0.12973   0.95682   0.86015   0.00000  Uiso   1.00
C65    C     0.21500   0.01478   0.84029   0.00000  Uiso   1.00
C66    C     0.28194   0.10577   0.87730   0.00000  Uiso   1.00
C67    C     0.89204   0.87869   0.80823   0.00000  Uiso   1.00
C68    C     0.77748   0.87098   0.74472   0.00000  Uiso   1.00
C69    C     0.64430   0.89623   0.73802   0.00000  Uiso   1.00
H70    H     0.00014   0.93823   0.97059   0.00000  Uiso   1.00
H71    H     0.10306   0.75911   0.03363   0.00000  Uiso   1.00
H72    H     0.16494   0.10415   0.99453   0.00000  Uiso   1.00
H73    H     0.72748   0.96037   0.89897   0.00000  Uiso   1.00
H74    H     0.22507   0.54653   0.07932   0.00000  Uiso   1.00
H75    H     0.35549   0.27407   0.99686   0.00000  Uiso   1.00
H76    H     0.43303   0.97090   0.79537   0.00000  Uiso   1.00
H77    H     0.06063   0.83016   0.78412   0.00000  Uiso   1.00
H78    H     0.16687   0.64511   0.83692   0.00000  Uiso   1.00
H79    H     0.22875   0.99015   0.79782   0.00000  Uiso   1.00
H80    H     0.79129   0.84637   0.70227   0.00000  Uiso   1.00
H81    H     0.27687   0.45400   0.91967   0.00000  Uiso   1.00
H82    H     0.40729   0.18155   0.83721   0.00000  Uiso   1.00
H83    H     0.48483   0.87837   0.63572   0.00000  Uiso   1.00
O84    O     0.31981   0.38050   0.03761   0.00000  Uiso   1.00
O85    O     0.49089   0.33502   0.92942   0.00000  Uiso   1.00
O86    O     0.28065   0.93726   0.66506   0.00000  Uiso   1.00
N87    N     0.22265   0.55014   0.03450   0.00000  Uiso   1.00
N88    N     0.34461   0.23034   0.95741   0.00000  Uiso   1.00
N89    N     0.48219   0.94693   0.76903   0.00000  Uiso   1.00
N90    N     0.25052   0.50035   0.94859   0.00000  Uiso   1.00
N91    N     0.37248   0.18055   0.87150   0.00000  Uiso   1.00
N92    N     0.51006   0.89714   0.68312   0.00000  Uiso   1.00
C93    C     0.01400   0.58654   0.42787   0.00000  Uiso   1.00
C94    C     0.07829   0.69884   0.43626   0.00000  Uiso   1.00
C95    C     0.11684   0.76553   0.49117   0.00000  Uiso   1.00
C96    C     0.17391   0.86527   0.48926   0.00000  Uiso   1.00
C97    C     0.27110   0.03479   0.51065   0.00000  Uiso   1.00
C98    C     0.11193   0.51138   0.41502   0.00000  Uiso   1.00
C99    C     0.17874   0.42044   0.45207   0.00000  Uiso   1.00
C100   C     0.26410   0.36237   0.43228   0.00000  Uiso   1.00
C101   C     0.41343   0.24081   0.42066   0.00000  Uiso   1.00
C102   C     0.87425   0.58951   0.36311   0.00000  Uiso   1.00
C103   C     0.74121   0.56423   0.35650   0.00000  Uiso   1.00
C104   C     0.62646   0.57191   0.29299   0.00000  Uiso   1.00
C105   C     0.40676   0.57165   0.20077   0.00000  Uiso   1.00
C106   C     0.04677   0.64508   0.32684   0.00000  Uiso   1.00
C107   C     0.09610   0.73064   0.38138   0.00000  Uiso   1.00
C108   C     0.15311   0.83031   0.37939   0.00000  Uiso   1.00
C109   C     0.19174   0.89713   0.43429   0.00000  Uiso   1.00
C110   C     0.12973   0.54318   0.36015   0.00000  Uiso   1.00
C111   C     0.21500   0.48522   0.34029   0.00000  Uiso   1.00
C112   C     0.28194   0.39423   0.37730   0.00000  Uiso   1.00
C113   C     0.89204   0.62131   0.30823   0.00000  Uiso   1.00
C114   C     0.77748   0.62902   0.24472   0.00000  Uiso   1.00
C115   C     0.64430   0.60377   0.23802   0.00000  Uiso   1.00
H116   H     0.00014   0.56177   0.47059   0.00000  Uiso   1.00
H117   H     0.10306   0.74089   0.53363   0.00000  Uiso   1.00
H118   H     0.16494   0.39585   0.49453   0.00000  Uiso   1.00
H119   H     0.72748   0.53963   0.39897   0.00000  Uiso   1.00
H120   H     0.22507   0.95347   0.57932   0.00000  Uiso   1.00
H121   H     0.35549   0.22593   0.49686   0.00000  Uiso   1.00
H122   H     0.43303   0.52910   0.29537   0.00000  Uiso   1.00
H123   H     0.06063   0.66984   0.28412   0.00000  Uiso   1.00
H124   H     0.16687   0.85489   0.33692   0.00000  Uiso   1.00
H125   H     0.22875   0.50985   0.29782   0.00000  Uiso   1.00
H126   H     0.79129   0.65363   0.20227   0.00000  Uiso   1.00
H127   H     0.27687   0.04600   0.41967   0.00000  Uiso   1.00
H128   H     0.40729   0.31845   0.33721   0.00000  Uiso   1.00
H129   H     0.48483   0.62163   0.13572   0.00000  Uiso   1.00
O130   O     0.31981   0.11950   0.53761   0.00000  Uiso   1.00
O131   O     0.49089   0.16498   0.42942   0.00000  Uiso   1.00
O132   O     0.28065   0.56274   0.16506   0.00000  Uiso   1.00
N133   N     0.22265   0.94986   0.53450   0.00000  Uiso   1.00
N134   N     0.34461   0.26966   0.45741   0.00000  Uiso   1.00
N135   N     0.48219   0.55307   0.26903   0.00000  Uiso   1.00
N136   N     0.25052   0.99965   0.44859   0.00000  Uiso   1.00
N137   N     0.37248   0.31945   0.37150   0.00000  Uiso   1.00
N138   N     0.51006   0.60286   0.18312   0.00000  Uiso   1.00
C139   C     0.98600   0.08654   0.07213   0.00000  Uiso   1.00
C140   C     0.92171   0.19884   0.06374   0.00000  Uiso   1.00
C141   C     0.88316   0.26553   0.00883   0.00000  Uiso   1.00
C142   C     0.82609   0.36527   0.01074   0.00000  Uiso   1.00
C143   C     0.72890   0.53479   0.98935   0.00000  Uiso   1.00
C144   C     0.88807   0.01138   0.08498   0.00000  Uiso   1.00
C145   C     0.82126   0.92044   0.04793   0.00000  Uiso   1.00
C146   C     0.73590   0.86237   0.06772   0.00000  Uiso   1.00
C147   C     0.58657   0.74081   0.07934   0.00000  Uiso   1.00
C148   C     0.12575   0.08951   0.13689   0.00000  Uiso   1.00
C149   C     0.25879   0.06423   0.14350   0.00000  Uiso   1.00
C150   C     0.37354   0.07191   0.20701   0.00000  Uiso   1.00
C151   C     0.59324   0.07165   0.29923   0.00000  Uiso   1.00
C152   C     0.95323   0.14508   0.17316   0.00000  Uiso   1.00
C153   C     0.90390   0.23064   0.11862   0.00000  Uiso   1.00
C154   C     0.84689   0.33031   0.12061   0.00000  Uiso   1.00
C155   C     0.80826   0.39713   0.06571   0.00000  Uiso   1.00
C156   C     0.87027   0.04318   0.13985   0.00000  Uiso   1.00
C157   C     0.78500   0.98522   0.15971   0.00000  Uiso   1.00
C158   C     0.71806   0.89423   0.12270   0.00000  Uiso   1.00
C159   C     0.10796   0.12131   0.19177   0.00000  Uiso   1.00
C160   C     0.22252   0.12902   0.25528   0.00000  Uiso   1.00
C161   C     0.35570   0.10377   0.26198   0.00000  Uiso   1.00
H162   H     0.99986   0.06177   0.02941   0.00000  Uiso   1.00
H163   H     0.89694   0.24089   0.96637   0.00000  Uiso   1.00
H164   H     0.83506   0.89585   0.00547   0.00000  Uiso   1.00
H165   H     0.27252   0.03963   0.10103   0.00000  Uiso   1.00
H166   H     0.77493   0.45347   0.92068   0.00000  Uiso   1.00
H167   H     0.64451   0.72593   0.00314   0.00000  Uiso   1.00
H168   H     0.56697   0.02910   0.20463   0.00000  Uiso   1.00
H169   H     0.93937   0.16984   0.21588   0.00000  Uiso   1.00
H170   H     0.83313   0.35489   0.16308   0.00000  Uiso   1.00
H171   H     0.77125   0.00985   0.20218   0.00000  Uiso   1.00
H172   H     0.20871   0.15363   0.29773   0.00000  Uiso   1.00
H173   H     0.72313   0.54600   0.08033   0.00000  Uiso   1.00
H174   H     0.59271   0.81845   0.16279   0.00000  Uiso   1.00
H175   H     0.51517   0.12163   0.36428   0.00000  Uiso   1.00
O176   O     0.68019   0.61950   0.96239   0.00000  Uiso   1.00
O177   O     0.50911   0.66498   0.07058   0.00000  Uiso   1.00
O178   O     0.71935   0.06274   0.33494   0.00000  Uiso   1.00
N179   N     0.77735   0.44986   0.96550   0.00000  Uiso   1.00
N180   N     0.65539   0.76966   0.04259   0.00000  Uiso   1.00
N181   N     0.51781   0.05307   0.23097   0.00000  Uiso   1.00
N182   N     0.74948   0.49965   0.05141   0.00000  Uiso   1.00
N183   N     0.62752   0.81945   0.12850   0.00000  Uiso   1.00
N184   N     0.48994   0.10286   0.31688   0.00000  Uiso   1.00
