data_job_01554
_audit_creation_date              2018-12-19
_audit_creation_method            'Materials Studio'
_symmetry_space_group_name_H-M    'P1'
_symmetry_Int_Tables_number       1
_symmetry_cell_setting            triclinic
loop_
_symmetry_equiv_pos_as_xyz
  x,y,z
_cell_length_a                    21.0387
_cell_length_b                    21.2491
_cell_length_c                    12.9826
_cell_angle_alpha                 90.0000
_cell_angle_beta                  90.0000
_cell_angle_gamma                 90.0000
loop_
_atom_site_label
_atom_site_type_symbol
_atom_site_fract_x
_atom_site_fract_y
_atom_site_fract_z
_atom_site_U_iso_or_equiv
_atom_site_adp_type
_atom_site_occupancy
C1     C     0.88189   0.81179   0.82499   0.00000  Uiso   1.00
C2     C     0.95101   0.80034   0.79503   0.00000  Uiso   1.00
C3     C     0.00327   0.83212   0.83439   0.00000  Uiso   1.00
C4     C     0.06256   0.81473   0.79705   0.00000  Uiso   1.00
C5     C     0.16887   0.80421   0.76175   0.00000  Uiso   1.00
C6     C     0.84690   0.82664   0.72503   0.00000  Uiso   1.00
C7     C     0.81162   0.88053   0.70555   0.00000  Uiso   1.00
C8     C     0.78327   0.88528   0.60929   0.00000  Uiso   1.00
C9     C     0.72791   0.91556   0.46535   0.00000  Uiso   1.00
C10    C     0.85622   0.74849   0.86150   0.00000  Uiso   1.00
C11    C     0.82876   0.73667   0.95674   0.00000  Uiso   1.00
C12    C     0.80823   0.67562   0.97537   0.00000  Uiso   1.00
C13    C     0.76734   0.58456   0.04331   0.00000  Uiso   1.00
C14    C     0.89426   0.72439   0.68869   0.00000  Uiso   1.00
C15    C     0.95773   0.75288   0.72099   0.00000  Uiso   1.00
C16    C     0.01696   0.73543   0.68358   0.00000  Uiso   1.00
C17    C     0.06929   0.76718   0.72288   0.00000  Uiso   1.00
C18    C     0.85362   0.77918   0.65100   0.00000  Uiso   1.00
C19    C     0.82531   0.78384   0.55475   0.00000  Uiso   1.00
C20    C     0.79000   0.83773   0.53512   0.00000  Uiso   1.00
C21    C     0.86294   0.70102   0.78746   0.00000  Uiso   1.00
C22    C     0.84245   0.63998   0.80594   0.00000  Uiso   1.00
C23    C     0.81496   0.62806   0.90120   0.00000  Uiso   1.00
H24    H     0.87665   0.84874   0.88262   0.00000  Uiso   1.00
H25    H     0.99805   0.86886   0.89167   0.00000  Uiso   1.00
H26    H     0.80643   0.91726   0.76286   0.00000  Uiso   1.00
H27    H     0.82356   0.77341   0.01401   0.00000  Uiso   1.00
H28    H     0.13560   0.87024   0.86903   0.00000  Uiso   1.00
H29    H     0.73154   0.97228   0.59743   0.00000  Uiso   1.00
H30    H     0.76767   0.66896   0.12704   0.00000  Uiso   1.00
H31    H     0.89949   0.68744   0.63105   0.00000  Uiso   1.00
H32    H     0.02214   0.69870   0.62629   0.00000  Uiso   1.00
H33    H     0.83052   0.74710   0.49748   0.00000  Uiso   1.00
H34    H     0.84765   0.60326   0.74863   0.00000  Uiso   1.00
H35    H     0.15516   0.73213   0.65363   0.00000  Uiso   1.00
H36    H     0.75109   0.83417   0.38203   0.00000  Uiso   1.00
H37    H     0.78723   0.53085   0.91165   0.00000  Uiso   1.00
O38    O     0.22565   0.81152   0.76272   0.00000  Uiso   1.00
O39    O     0.69553   0.94539   0.40640   0.00000  Uiso   1.00
O40    O     0.74294   0.54744   0.10124   0.00000  Uiso   1.00
N41    N     0.12337   0.83618   0.81900   0.00000  Uiso   1.00
N42    N     0.74561   0.93159   0.56507   0.00000  Uiso   1.00
N43    N     0.77937   0.64801   0.06020   0.00000  Uiso   1.00
N44    N     0.13389   0.76187   0.70310   0.00000  Uiso   1.00
N45    N     0.75613   0.85728   0.44917   0.00000  Uiso   1.00
N46    N     0.78989   0.57370   0.94430   0.00000  Uiso   1.00
C47    C     0.38189   0.31179   0.82499   0.00000  Uiso   1.00
C48    C     0.45101   0.30034   0.79503   0.00000  Uiso   1.00
C49    C     0.50327   0.33212   0.83439   0.00000  Uiso   1.00
C50    C     0.56256   0.31473   0.79705   0.00000  Uiso   1.00
C51    C     0.66887   0.30421   0.76175   0.00000  Uiso   1.00
C52    C     0.34690   0.32664   0.72503   0.00000  Uiso   1.00
C53    C     0.31162   0.38053   0.70555   0.00000  Uiso   1.00
C54    C     0.28327   0.38528   0.60929   0.00000  Uiso   1.00
C55    C     0.22791   0.41556   0.46535   0.00000  Uiso   1.00
C56    C     0.35622   0.24849   0.86150   0.00000  Uiso   1.00
C57    C     0.32876   0.23667   0.95674   0.00000  Uiso   1.00
C58    C     0.30823   0.17562   0.97537   0.00000  Uiso   1.00
C59    C     0.26734   0.08456   0.04331   0.00000  Uiso   1.00
C60    C     0.39426   0.22439   0.68869   0.00000  Uiso   1.00
C61    C     0.45773   0.25288   0.72099   0.00000  Uiso   1.00
C62    C     0.51696   0.23543   0.68358   0.00000  Uiso   1.00
C63    C     0.56929   0.26718   0.72288   0.00000  Uiso   1.00
C64    C     0.35362   0.27918   0.65100   0.00000  Uiso   1.00
C65    C     0.32531   0.28384   0.55475   0.00000  Uiso   1.00
C66    C     0.29000   0.33773   0.53512   0.00000  Uiso   1.00
C67    C     0.36294   0.20102   0.78746   0.00000  Uiso   1.00
C68    C     0.34245   0.13998   0.80594   0.00000  Uiso   1.00
C69    C     0.31496   0.12806   0.90120   0.00000  Uiso   1.00
H70    H     0.37665   0.34874   0.88262   0.00000  Uiso   1.00
H71    H     0.49805   0.36886   0.89167   0.00000  Uiso   1.00
H72    H     0.30643   0.41726   0.76286   0.00000  Uiso   1.00
H73    H     0.32356   0.27341   0.01401   0.00000  Uiso   1.00
H74    H     0.63560   0.37024   0.86903   0.00000  Uiso   1.00
H75    H     0.23154   0.47228   0.59743   0.00000  Uiso   1.00
H76    H     0.26767   0.16896   0.12704   0.00000  Uiso   1.00
H77    H     0.39949   0.18744   0.63105   0.00000  Uiso   1.00
H78    H     0.52214   0.19870   0.62629   0.00000  Uiso   1.00
H79    H     0.33052   0.24710   0.49748   0.00000  Uiso   1.00
H80    H     0.34765   0.10326   0.74863   0.00000  Uiso   1.00
H81    H     0.65516   0.23213   0.65363   0.00000  Uiso   1.00
H82    H     0.25109   0.33417   0.38203   0.00000  Uiso   1.00
H83    H     0.28723   0.03085   0.91165   0.00000  Uiso   1.00
O84    O     0.72565   0.31152   0.76272   0.00000  Uiso   1.00
O85    O     0.19553   0.44539   0.40640   0.00000  Uiso   1.00
O86    O     0.24294   0.04744   0.10124   0.00000  Uiso   1.00
N87    N     0.62337   0.33618   0.81900   0.00000  Uiso   1.00
N88    N     0.24561   0.43159   0.56507   0.00000  Uiso   1.00
N89    N     0.27937   0.14801   0.06020   0.00000  Uiso   1.00
N90    N     0.63389   0.26187   0.70310   0.00000  Uiso   1.00
N91    N     0.25613   0.35728   0.44917   0.00000  Uiso   1.00
N92    N     0.28989   0.07370   0.94430   0.00000  Uiso   1.00
C93    C     0.11811   0.18821   0.82499   0.00000  Uiso   1.00
C94    C     0.04899   0.19966   0.79503   0.00000  Uiso   1.00
C95    C     0.99673   0.16788   0.83439   0.00000  Uiso   1.00
C96    C     0.93744   0.18527   0.79705   0.00000  Uiso   1.00
C97    C     0.83113   0.19579   0.76175   0.00000  Uiso   1.00
C98    C     0.15310   0.17336   0.72503   0.00000  Uiso   1.00
C99    C     0.18838   0.11947   0.70555   0.00000  Uiso   1.00
C100   C     0.21673   0.11472   0.60929   0.00000  Uiso   1.00
C101   C     0.27209   0.08444   0.46535   0.00000  Uiso   1.00
C102   C     0.14378   0.25151   0.86150   0.00000  Uiso   1.00
C103   C     0.17124   0.26333   0.95674   0.00000  Uiso   1.00
C104   C     0.19177   0.32438   0.97537   0.00000  Uiso   1.00
C105   C     0.23266   0.41544   0.04331   0.00000  Uiso   1.00
C106   C     0.10574   0.27561   0.68869   0.00000  Uiso   1.00
C107   C     0.04227   0.24712   0.72099   0.00000  Uiso   1.00
C108   C     0.98304   0.26457   0.68358   0.00000  Uiso   1.00
C109   C     0.93071   0.23282   0.72288   0.00000  Uiso   1.00
C110   C     0.14638   0.22082   0.65100   0.00000  Uiso   1.00
C111   C     0.17469   0.21616   0.55475   0.00000  Uiso   1.00
C112   C     0.21000   0.16227   0.53512   0.00000  Uiso   1.00
C113   C     0.13706   0.29898   0.78746   0.00000  Uiso   1.00
C114   C     0.15755   0.36002   0.80594   0.00000  Uiso   1.00
C115   C     0.18504   0.37194   0.90120   0.00000  Uiso   1.00
H116   H     0.12335   0.15126   0.88262   0.00000  Uiso   1.00
H117   H     0.00195   0.13114   0.89167   0.00000  Uiso   1.00
H118   H     0.19357   0.08274   0.76286   0.00000  Uiso   1.00
H119   H     0.17644   0.22659   0.01401   0.00000  Uiso   1.00
H120   H     0.86440   0.12976   0.86903   0.00000  Uiso   1.00
H121   H     0.26846   0.02772   0.59743   0.00000  Uiso   1.00
H122   H     0.23233   0.33104   0.12704   0.00000  Uiso   1.00
H123   H     0.10051   0.31256   0.63105   0.00000  Uiso   1.00
H124   H     0.97786   0.30130   0.62629   0.00000  Uiso   1.00
H125   H     0.16948   0.25290   0.49748   0.00000  Uiso   1.00
H126   H     0.15235   0.39674   0.74863   0.00000  Uiso   1.00
H127   H     0.84484   0.26787   0.65363   0.00000  Uiso   1.00
H128   H     0.24891   0.16583   0.38203   0.00000  Uiso   1.00
H129   H     0.21277   0.46915   0.91165   0.00000  Uiso   1.00
O130   O     0.77435   0.18848   0.76272   0.00000  Uiso   1.00
O131   O     0.30447   0.05461   0.40640   0.00000  Uiso   1.00
O132   O     0.25706   0.45256   0.10124   0.00000  Uiso   1.00
N133   N     0.87663   0.16382   0.81900   0.00000  Uiso   1.00
N134   N     0.25439   0.06841   0.56507   0.00000  Uiso   1.00
N135   N     0.22063   0.35199   0.06020   0.00000  Uiso   1.00
N136   N     0.86611   0.23813   0.70310   0.00000  Uiso   1.00
N137   N     0.24387   0.14272   0.44917   0.00000  Uiso   1.00
N138   N     0.21011   0.42630   0.94430   0.00000  Uiso   1.00
C139   C     0.61811   0.68821   0.82499   0.00000  Uiso   1.00
C140   C     0.54899   0.69966   0.79503   0.00000  Uiso   1.00
C141   C     0.49673   0.66788   0.83439   0.00000  Uiso   1.00
C142   C     0.43744   0.68527   0.79705   0.00000  Uiso   1.00
C143   C     0.33113   0.69579   0.76175   0.00000  Uiso   1.00
C144   C     0.65310   0.67336   0.72503   0.00000  Uiso   1.00
C145   C     0.68838   0.61947   0.70555   0.00000  Uiso   1.00
C146   C     0.71673   0.61472   0.60929   0.00000  Uiso   1.00
C147   C     0.77209   0.58444   0.46535   0.00000  Uiso   1.00
C148   C     0.64378   0.75151   0.86150   0.00000  Uiso   1.00
C149   C     0.67124   0.76333   0.95674   0.00000  Uiso   1.00
C150   C     0.69177   0.82438   0.97537   0.00000  Uiso   1.00
C151   C     0.73266   0.91544   0.04331   0.00000  Uiso   1.00
C152   C     0.60574   0.77561   0.68869   0.00000  Uiso   1.00
C153   C     0.54227   0.74712   0.72099   0.00000  Uiso   1.00
C154   C     0.48304   0.76457   0.68358   0.00000  Uiso   1.00
C155   C     0.43071   0.73282   0.72288   0.00000  Uiso   1.00
C156   C     0.64638   0.72082   0.65100   0.00000  Uiso   1.00
C157   C     0.67469   0.71616   0.55475   0.00000  Uiso   1.00
C158   C     0.71000   0.66227   0.53512   0.00000  Uiso   1.00
C159   C     0.63706   0.79898   0.78746   0.00000  Uiso   1.00
C160   C     0.65755   0.86002   0.80594   0.00000  Uiso   1.00
C161   C     0.68504   0.87194   0.90120   0.00000  Uiso   1.00
H162   H     0.62335   0.65126   0.88262   0.00000  Uiso   1.00
H163   H     0.50195   0.63114   0.89167   0.00000  Uiso   1.00
H164   H     0.69357   0.58274   0.76286   0.00000  Uiso   1.00
H165   H     0.67644   0.72659   0.01401   0.00000  Uiso   1.00
H166   H     0.36440   0.62976   0.86903   0.00000  Uiso   1.00
H167   H     0.76846   0.52772   0.59743   0.00000  Uiso   1.00
H168   H     0.73233   0.83104   0.12704   0.00000  Uiso   1.00
H169   H     0.60051   0.81256   0.63105   0.00000  Uiso   1.00
H170   H     0.47786   0.80130   0.62629   0.00000  Uiso   1.00
H171   H     0.66948   0.75290   0.49748   0.00000  Uiso   1.00
H172   H     0.65235   0.89674   0.74863   0.00000  Uiso   1.00
H173   H     0.34484   0.76787   0.65363   0.00000  Uiso   1.00
H174   H     0.74891   0.66583   0.38203   0.00000  Uiso   1.00
H175   H     0.71277   0.96915   0.91165   0.00000  Uiso   1.00
O176   O     0.27435   0.68848   0.76272   0.00000  Uiso   1.00
O177   O     0.80447   0.55461   0.40640   0.00000  Uiso   1.00
O178   O     0.75706   0.95256   0.10124   0.00000  Uiso   1.00
N179   N     0.37663   0.66382   0.81900   0.00000  Uiso   1.00
N180   N     0.75439   0.56841   0.56507   0.00000  Uiso   1.00
N181   N     0.72063   0.85199   0.06020   0.00000  Uiso   1.00
N182   N     0.36611   0.73813   0.70310   0.00000  Uiso   1.00
N183   N     0.74387   0.64272   0.44917   0.00000  Uiso   1.00
N184   N     0.71011   0.92630   0.94430   0.00000  Uiso   1.00
C185   C     0.11811   0.81179   0.17501   0.00000  Uiso   1.00
C186   C     0.04899   0.80034   0.20497   0.00000  Uiso   1.00
C187   C     0.99673   0.83212   0.16561   0.00000  Uiso   1.00
C188   C     0.93744   0.81473   0.20295   0.00000  Uiso   1.00
C189   C     0.83113   0.80421   0.23825   0.00000  Uiso   1.00
C190   C     0.15310   0.82664   0.27497   0.00000  Uiso   1.00
C191   C     0.18838   0.88053   0.29445   0.00000  Uiso   1.00
C192   C     0.21673   0.88528   0.39071   0.00000  Uiso   1.00
C193   C     0.27209   0.91556   0.53465   0.00000  Uiso   1.00
C194   C     0.14378   0.74849   0.13850   0.00000  Uiso   1.00
C195   C     0.17124   0.73667   0.04326   0.00000  Uiso   1.00
C196   C     0.19177   0.67562   0.02463   0.00000  Uiso   1.00
C197   C     0.23266   0.58456   0.95669   0.00000  Uiso   1.00
C198   C     0.10574   0.72439   0.31131   0.00000  Uiso   1.00
C199   C     0.04227   0.75288   0.27901   0.00000  Uiso   1.00
C200   C     0.98304   0.73543   0.31642   0.00000  Uiso   1.00
C201   C     0.93071   0.76718   0.27712   0.00000  Uiso   1.00
C202   C     0.14638   0.77918   0.34900   0.00000  Uiso   1.00
C203   C     0.17469   0.78384   0.44525   0.00000  Uiso   1.00
C204   C     0.21000   0.83773   0.46488   0.00000  Uiso   1.00
C205   C     0.13706   0.70102   0.21254   0.00000  Uiso   1.00
C206   C     0.15755   0.63998   0.19406   0.00000  Uiso   1.00
C207   C     0.18504   0.62806   0.09880   0.00000  Uiso   1.00
H208   H     0.12335   0.84874   0.11738   0.00000  Uiso   1.00
H209   H     0.00195   0.86886   0.10833   0.00000  Uiso   1.00
H210   H     0.19357   0.91726   0.23714   0.00000  Uiso   1.00
H211   H     0.17644   0.77341   0.98599   0.00000  Uiso   1.00
H212   H     0.86440   0.87024   0.13097   0.00000  Uiso   1.00
H213   H     0.26846   0.97228   0.40257   0.00000  Uiso   1.00
H214   H     0.23233   0.66896   0.87296   0.00000  Uiso   1.00
H215   H     0.10051   0.68744   0.36895   0.00000  Uiso   1.00
H216   H     0.97786   0.69870   0.37371   0.00000  Uiso   1.00
H217   H     0.16948   0.74710   0.50252   0.00000  Uiso   1.00
H218   H     0.15235   0.60326   0.25137   0.00000  Uiso   1.00
H219   H     0.84484   0.73213   0.34637   0.00000  Uiso   1.00
H220   H     0.24891   0.83417   0.61797   0.00000  Uiso   1.00
H221   H     0.21277   0.53085   0.08835   0.00000  Uiso   1.00
O222   O     0.77435   0.81152   0.23728   0.00000  Uiso   1.00
O223   O     0.30447   0.94539   0.59360   0.00000  Uiso   1.00
O224   O     0.25706   0.54744   0.89876   0.00000  Uiso   1.00
N225   N     0.87663   0.83618   0.18100   0.00000  Uiso   1.00
N226   N     0.25439   0.93159   0.43493   0.00000  Uiso   1.00
N227   N     0.22063   0.64801   0.93980   0.00000  Uiso   1.00
N228   N     0.86611   0.76187   0.29690   0.00000  Uiso   1.00
N229   N     0.24387   0.85728   0.55083   0.00000  Uiso   1.00
N230   N     0.21011   0.57370   0.05570   0.00000  Uiso   1.00
C231   C     0.61811   0.31179   0.17501   0.00000  Uiso   1.00
C232   C     0.54899   0.30034   0.20497   0.00000  Uiso   1.00
C233   C     0.49673   0.33212   0.16561   0.00000  Uiso   1.00
C234   C     0.43744   0.31473   0.20295   0.00000  Uiso   1.00
C235   C     0.33113   0.30421   0.23825   0.00000  Uiso   1.00
C236   C     0.65310   0.32664   0.27497   0.00000  Uiso   1.00
C237   C     0.68838   0.38053   0.29445   0.00000  Uiso   1.00
C238   C     0.71673   0.38528   0.39071   0.00000  Uiso   1.00
C239   C     0.77209   0.41556   0.53465   0.00000  Uiso   1.00
C240   C     0.64378   0.24849   0.13850   0.00000  Uiso   1.00
C241   C     0.67124   0.23667   0.04326   0.00000  Uiso   1.00
C242   C     0.69177   0.17562   0.02463   0.00000  Uiso   1.00
C243   C     0.73266   0.08456   0.95669   0.00000  Uiso   1.00
C244   C     0.60574   0.22439   0.31131   0.00000  Uiso   1.00
C245   C     0.54227   0.25288   0.27901   0.00000  Uiso   1.00
C246   C     0.48304   0.23543   0.31642   0.00000  Uiso   1.00
C247   C     0.43071   0.26718   0.27712   0.00000  Uiso   1.00
C248   C     0.64638   0.27918   0.34900   0.00000  Uiso   1.00
C249   C     0.67469   0.28384   0.44525   0.00000  Uiso   1.00
C250   C     0.71000   0.33773   0.46488   0.00000  Uiso   1.00
C251   C     0.63706   0.20102   0.21254   0.00000  Uiso   1.00
C252   C     0.65755   0.13998   0.19406   0.00000  Uiso   1.00
C253   C     0.68504   0.12806   0.09880   0.00000  Uiso   1.00
H254   H     0.62335   0.34874   0.11738   0.00000  Uiso   1.00
H255   H     0.50195   0.36886   0.10833   0.00000  Uiso   1.00
H256   H     0.69357   0.41726   0.23714   0.00000  Uiso   1.00
H257   H     0.67644   0.27341   0.98599   0.00000  Uiso   1.00
H258   H     0.36440   0.37024   0.13097   0.00000  Uiso   1.00
H259   H     0.76846   0.47228   0.40257   0.00000  Uiso   1.00
H260   H     0.73233   0.16896   0.87296   0.00000  Uiso   1.00
H261   H     0.60051   0.18744   0.36895   0.00000  Uiso   1.00
H262   H     0.47786   0.19870   0.37371   0.00000  Uiso   1.00
H263   H     0.66948   0.24710   0.50252   0.00000  Uiso   1.00
H264   H     0.65235   0.10326   0.25137   0.00000  Uiso   1.00
H265   H     0.34484   0.23213   0.34637   0.00000  Uiso   1.00
H266   H     0.74891   0.33417   0.61797   0.00000  Uiso   1.00
H267   H     0.71277   0.03085   0.08835   0.00000  Uiso   1.00
O268   O     0.27435   0.31152   0.23728   0.00000  Uiso   1.00
O269   O     0.80447   0.44539   0.59360   0.00000  Uiso   1.00
O270   O     0.75706   0.04744   0.89876   0.00000  Uiso   1.00
N271   N     0.37663   0.33618   0.18100   0.00000  Uiso   1.00
N272   N     0.75439   0.43159   0.43493   0.00000  Uiso   1.00
N273   N     0.72063   0.14801   0.93980   0.00000  Uiso   1.00
N274   N     0.36611   0.26187   0.29690   0.00000  Uiso   1.00
N275   N     0.74387   0.35728   0.55083   0.00000  Uiso   1.00
N276   N     0.71011   0.07370   0.05570   0.00000  Uiso   1.00
C277   C     0.88189   0.18821   0.17501   0.00000  Uiso   1.00
C278   C     0.95101   0.19966   0.20497   0.00000  Uiso   1.00
C279   C     0.00327   0.16788   0.16561   0.00000  Uiso   1.00
C280   C     0.06256   0.18527   0.20295   0.00000  Uiso   1.00
C281   C     0.16887   0.19579   0.23825   0.00000  Uiso   1.00
C282   C     0.84690   0.17336   0.27497   0.00000  Uiso   1.00
C283   C     0.81162   0.11947   0.29445   0.00000  Uiso   1.00
C284   C     0.78327   0.11472   0.39071   0.00000  Uiso   1.00
C285   C     0.72791   0.08444   0.53465   0.00000  Uiso   1.00
C286   C     0.85622   0.25151   0.13850   0.00000  Uiso   1.00
C287   C     0.82876   0.26333   0.04326   0.00000  Uiso   1.00
C288   C     0.80823   0.32438   0.02463   0.00000  Uiso   1.00
C289   C     0.76734   0.41544   0.95669   0.00000  Uiso   1.00
C290   C     0.89426   0.27561   0.31131   0.00000  Uiso   1.00
C291   C     0.95773   0.24712   0.27901   0.00000  Uiso   1.00
C292   C     0.01696   0.26457   0.31642   0.00000  Uiso   1.00
C293   C     0.06929   0.23282   0.27712   0.00000  Uiso   1.00
C294   C     0.85362   0.22082   0.34900   0.00000  Uiso   1.00
C295   C     0.82531   0.21616   0.44525   0.00000  Uiso   1.00
C296   C     0.79000   0.16227   0.46488   0.00000  Uiso   1.00
C297   C     0.86294   0.29898   0.21254   0.00000  Uiso   1.00
C298   C     0.84245   0.36002   0.19406   0.00000  Uiso   1.00
C299   C     0.81496   0.37194   0.09880   0.00000  Uiso   1.00
H300   H     0.87665   0.15126   0.11738   0.00000  Uiso   1.00
H301   H     0.99805   0.13114   0.10833   0.00000  Uiso   1.00
H302   H     0.80643   0.08274   0.23714   0.00000  Uiso   1.00
H303   H     0.82356   0.22659   0.98599   0.00000  Uiso   1.00
H304   H     0.13560   0.12976   0.13097   0.00000  Uiso   1.00
H305   H     0.73154   0.02772   0.40257   0.00000  Uiso   1.00
H306   H     0.76767   0.33104   0.87296   0.00000  Uiso   1.00
H307   H     0.89949   0.31256   0.36895   0.00000  Uiso   1.00
H308   H     0.02214   0.30130   0.37371   0.00000  Uiso   1.00
H309   H     0.83052   0.25290   0.50252   0.00000  Uiso   1.00
H310   H     0.84765   0.39674   0.25137   0.00000  Uiso   1.00
H311   H     0.15516   0.26787   0.34637   0.00000  Uiso   1.00
H312   H     0.75109   0.16583   0.61797   0.00000  Uiso   1.00
H313   H     0.78723   0.46915   0.08835   0.00000  Uiso   1.00
O314   O     0.22565   0.18848   0.23728   0.00000  Uiso   1.00
O315   O     0.69553   0.05461   0.59360   0.00000  Uiso   1.00
O316   O     0.74294   0.45256   0.89876   0.00000  Uiso   1.00
N317   N     0.12337   0.16382   0.18100   0.00000  Uiso   1.00
N318   N     0.74561   0.06841   0.43493   0.00000  Uiso   1.00
N319   N     0.77937   0.35199   0.93980   0.00000  Uiso   1.00
N320   N     0.13389   0.23813   0.29690   0.00000  Uiso   1.00
N321   N     0.75613   0.14272   0.55083   0.00000  Uiso   1.00
N322   N     0.78989   0.42630   0.05570   0.00000  Uiso   1.00
C323   C     0.38189   0.68821   0.17501   0.00000  Uiso   1.00
C324   C     0.45101   0.69966   0.20497   0.00000  Uiso   1.00
C325   C     0.50327   0.66788   0.16561   0.00000  Uiso   1.00
C326   C     0.56256   0.68527   0.20295   0.00000  Uiso   1.00
C327   C     0.66887   0.69579   0.23825   0.00000  Uiso   1.00
C328   C     0.34690   0.67336   0.27497   0.00000  Uiso   1.00
C329   C     0.31162   0.61947   0.29445   0.00000  Uiso   1.00
C330   C     0.28327   0.61472   0.39071   0.00000  Uiso   1.00
C331   C     0.22791   0.58444   0.53465   0.00000  Uiso   1.00
C332   C     0.35622   0.75151   0.13850   0.00000  Uiso   1.00
C333   C     0.32876   0.76333   0.04326   0.00000  Uiso   1.00
C334   C     0.30823   0.82438   0.02463   0.00000  Uiso   1.00
C335   C     0.26734   0.91544   0.95669   0.00000  Uiso   1.00
C336   C     0.39426   0.77561   0.31131   0.00000  Uiso   1.00
C337   C     0.45773   0.74712   0.27901   0.00000  Uiso   1.00
C338   C     0.51696   0.76457   0.31642   0.00000  Uiso   1.00
C339   C     0.56929   0.73282   0.27712   0.00000  Uiso   1.00
C340   C     0.35362   0.72082   0.34900   0.00000  Uiso   1.00
C341   C     0.32531   0.71616   0.44525   0.00000  Uiso   1.00
C342   C     0.29000   0.66227   0.46488   0.00000  Uiso   1.00
C343   C     0.36294   0.79898   0.21254   0.00000  Uiso   1.00
C344   C     0.34245   0.86002   0.19406   0.00000  Uiso   1.00
C345   C     0.31496   0.87194   0.09880   0.00000  Uiso   1.00
H346   H     0.37665   0.65126   0.11738   0.00000  Uiso   1.00
H347   H     0.49805   0.63114   0.10833   0.00000  Uiso   1.00
H348   H     0.30643   0.58274   0.23714   0.00000  Uiso   1.00
H349   H     0.32356   0.72659   0.98599   0.00000  Uiso   1.00
H350   H     0.63560   0.62976   0.13097   0.00000  Uiso   1.00
H351   H     0.23154   0.52772   0.40257   0.00000  Uiso   1.00
H352   H     0.26767   0.83104   0.87296   0.00000  Uiso   1.00
H353   H     0.39949   0.81256   0.36895   0.00000  Uiso   1.00
H354   H     0.52214   0.80130   0.37371   0.00000  Uiso   1.00
H355   H     0.33052   0.75290   0.50252   0.00000  Uiso   1.00
H356   H     0.34765   0.89674   0.25137   0.00000  Uiso   1.00
H357   H     0.65516   0.76787   0.34637   0.00000  Uiso   1.00
H358   H     0.25109   0.66583   0.61797   0.00000  Uiso   1.00
H359   H     0.28723   0.96915   0.08835   0.00000  Uiso   1.00
O360   O     0.72565   0.68848   0.23728   0.00000  Uiso   1.00
O361   O     0.19553   0.55461   0.59360   0.00000  Uiso   1.00
O362   O     0.24294   0.95256   0.89876   0.00000  Uiso   1.00
N363   N     0.62337   0.66382   0.18100   0.00000  Uiso   1.00
N364   N     0.24561   0.56841   0.43493   0.00000  Uiso   1.00
N365   N     0.27937   0.85199   0.93980   0.00000  Uiso   1.00
N366   N     0.63389   0.73813   0.29690   0.00000  Uiso   1.00
N367   N     0.25613   0.64272   0.55083   0.00000  Uiso   1.00
N368   N     0.28989   0.92630   0.05570   0.00000  Uiso   1.00
