data_job_03989
_audit_creation_date              2018-12-19
_audit_creation_method            'Materials Studio'
_symmetry_space_group_name_H-M    'P1'
_symmetry_Int_Tables_number       1
_symmetry_cell_setting            triclinic
loop_
_symmetry_equiv_pos_as_xyz
  x,y,z
_cell_length_a                    17.9330
_cell_length_b                    17.9330
_cell_length_c                    17.7602
_cell_angle_alpha                 90.0000
_cell_angle_beta                  90.0000
_cell_angle_gamma                 90.0000
loop_
_atom_site_label
_atom_site_type_symbol
_atom_site_fract_x
_atom_site_fract_y
_atom_site_fract_z
_atom_site_U_iso_or_equiv
_atom_site_adp_type
_atom_site_occupancy
C1     C     0.71290   0.70364   0.31055   0.00000  Uiso   1.00
C2     C     0.74371   0.64879   0.36832   0.00000  Uiso   1.00
C3     C     0.70764   0.62569   0.43340   0.00000  Uiso   1.00
C4     C     0.74520   0.57521   0.47895   0.00000  Uiso   1.00
C5     C     0.78224   0.49409   0.57155   0.00000  Uiso   1.00
C6     C     0.77047   0.76592   0.30429   0.00000  Uiso   1.00
C7     C     0.75689   0.84129   0.31551   0.00000  Uiso   1.00
C8     C     0.81697   0.88941   0.30714   0.00000  Uiso   1.00
C9     C     0.89554   0.99013   0.30027   0.00000  Uiso   1.00
C10    C     0.71420   0.66293   0.23518   0.00000  Uiso   1.00
C11    C     0.65331   0.65173   0.18829   0.00000  Uiso   1.00
C12    C     0.66603   0.61316   0.12173   0.00000  Uiso   1.00
C13    C     0.65723   0.55398   0.00757   0.00000  Uiso   1.00
C14    C     0.84375   0.65507   0.27572   0.00000  Uiso   1.00
C15    C     0.81478   0.62241   0.34940   0.00000  Uiso   1.00
C16    C     0.85241   0.57195   0.39487   0.00000  Uiso   1.00
C17    C     0.81640   0.54878   0.46000   0.00000  Uiso   1.00
C18    C     0.84154   0.73954   0.28537   0.00000  Uiso   1.00
C19    C     0.90166   0.78756   0.27697   0.00000  Uiso   1.00
C20    C     0.88818   0.86298   0.28819   0.00000  Uiso   1.00
C21    C     0.78527   0.63655   0.21626   0.00000  Uiso   1.00
C22    C     0.79808   0.59800   0.14976   0.00000  Uiso   1.00
C23    C     0.73723   0.58674   0.10278   0.00000  Uiso   1.00
H24    H     0.65757   0.72418   0.32528   0.00000  Uiso   1.00
H25    H     0.65264   0.64612   0.44803   0.00000  Uiso   1.00
H26    H     0.70188   0.86169   0.33014   0.00000  Uiso   1.00
H27    H     0.59832   0.67216   0.20295   0.00000  Uiso   1.00
H28    H     0.67852   0.54797   0.57578   0.00000  Uiso   1.00
H29    H     0.78235   0.00251   0.32720   0.00000  Uiso   1.00
H30    H     0.56397   0.60284   0.05898   0.00000  Uiso   1.00
H31    H     0.89909   0.63453   0.26099   0.00000  Uiso   1.00
H32    H     0.90741   0.55155   0.38021   0.00000  Uiso   1.00
H33    H     0.95665   0.76712   0.26233   0.00000  Uiso   1.00
H34    H     0.85309   0.57759   0.13514   0.00000  Uiso   1.00
H35    H     0.88531   0.47121   0.52074   0.00000  Uiso   1.00
H36    H     0.98913   0.92575   0.27216   0.00000  Uiso   1.00
H37    H     0.77076   0.52609   0.00394   0.00000  Uiso   1.00
O38    O     0.78305   0.45664   0.62786   0.00000  Uiso   1.00
O39    O     0.91925   0.05298   0.30171   0.00000  Uiso   1.00
O40    O     0.63275   0.52862   0.94982   0.00000  Uiso   1.00
N41    N     0.72604   0.54128   0.54646   0.00000  Uiso   1.00
N42    N     0.82311   0.96625   0.31406   0.00000  Uiso   1.00
N43    N     0.61895   0.59261   0.06329   0.00000  Uiso   1.00
N44    N     0.83731   0.49998   0.51684   0.00000  Uiso   1.00
N45    N     0.93438   0.92494   0.28444   0.00000  Uiso   1.00
N46    N     0.73022   0.55131   0.03367   0.00000  Uiso   1.00
C47    C     0.28710   0.29636   0.31055   0.00000  Uiso   1.00
C48    C     0.25629   0.35121   0.36832   0.00000  Uiso   1.00
C49    C     0.29236   0.37431   0.43340   0.00000  Uiso   1.00
C50    C     0.25480   0.42479   0.47895   0.00000  Uiso   1.00
C51    C     0.21776   0.50591   0.57155   0.00000  Uiso   1.00
C52    C     0.22953   0.23408   0.30429   0.00000  Uiso   1.00
C53    C     0.24311   0.15871   0.31551   0.00000  Uiso   1.00
C54    C     0.18303   0.11059   0.30714   0.00000  Uiso   1.00
C55    C     0.10446   0.00987   0.30027   0.00000  Uiso   1.00
C56    C     0.28580   0.33707   0.23518   0.00000  Uiso   1.00
C57    C     0.34669   0.34827   0.18829   0.00000  Uiso   1.00
C58    C     0.33397   0.38684   0.12173   0.00000  Uiso   1.00
C59    C     0.34277   0.44602   0.00757   0.00000  Uiso   1.00
C60    C     0.15625   0.34493   0.27572   0.00000  Uiso   1.00
C61    C     0.18522   0.37759   0.34940   0.00000  Uiso   1.00
C62    C     0.14759   0.42805   0.39487   0.00000  Uiso   1.00
C63    C     0.18360   0.45122   0.46000   0.00000  Uiso   1.00
C64    C     0.15846   0.26046   0.28537   0.00000  Uiso   1.00
C65    C     0.09834   0.21244   0.27697   0.00000  Uiso   1.00
C66    C     0.11182   0.13702   0.28819   0.00000  Uiso   1.00
C67    C     0.21473   0.36345   0.21626   0.00000  Uiso   1.00
C68    C     0.20192   0.40200   0.14976   0.00000  Uiso   1.00
C69    C     0.26277   0.41326   0.10278   0.00000  Uiso   1.00
H70    H     0.34243   0.27582   0.32528   0.00000  Uiso   1.00
H71    H     0.34736   0.35388   0.44803   0.00000  Uiso   1.00
H72    H     0.29812   0.13831   0.33014   0.00000  Uiso   1.00
H73    H     0.40168   0.32784   0.20295   0.00000  Uiso   1.00
H74    H     0.32148   0.45203   0.57578   0.00000  Uiso   1.00
H75    H     0.21765   0.99749   0.32720   0.00000  Uiso   1.00
H76    H     0.43603   0.39716   0.05898   0.00000  Uiso   1.00
H77    H     0.10091   0.36547   0.26099   0.00000  Uiso   1.00
H78    H     0.09259   0.44845   0.38021   0.00000  Uiso   1.00
H79    H     0.04335   0.23288   0.26233   0.00000  Uiso   1.00
H80    H     0.14691   0.42241   0.13514   0.00000  Uiso   1.00
H81    H     0.11469   0.52879   0.52074   0.00000  Uiso   1.00
H82    H     0.01087   0.07425   0.27216   0.00000  Uiso   1.00
H83    H     0.22924   0.47391   0.00394   0.00000  Uiso   1.00
O84    O     0.21695   0.54336   0.62786   0.00000  Uiso   1.00
O85    O     0.08075   0.94702   0.30171   0.00000  Uiso   1.00
O86    O     0.36725   0.47138   0.94982   0.00000  Uiso   1.00
N87    N     0.27396   0.45872   0.54646   0.00000  Uiso   1.00
N88    N     0.17689   0.03375   0.31406   0.00000  Uiso   1.00
N89    N     0.38105   0.40739   0.06329   0.00000  Uiso   1.00
N90    N     0.16269   0.50002   0.51684   0.00000  Uiso   1.00
N91    N     0.06562   0.07506   0.28444   0.00000  Uiso   1.00
N92    N     0.26978   0.44869   0.03367   0.00000  Uiso   1.00
C93    C     0.70364   0.28710   0.68945   0.00000  Uiso   1.00
C94    C     0.64879   0.25629   0.63168   0.00000  Uiso   1.00
C95    C     0.62569   0.29236   0.56660   0.00000  Uiso   1.00
C96    C     0.57521   0.25480   0.52105   0.00000  Uiso   1.00
C97    C     0.49409   0.21776   0.42845   0.00000  Uiso   1.00
C98    C     0.76592   0.22953   0.69571   0.00000  Uiso   1.00
C99    C     0.84129   0.24311   0.68449   0.00000  Uiso   1.00
C100   C     0.88941   0.18303   0.69286   0.00000  Uiso   1.00
C101   C     0.99013   0.10446   0.69973   0.00000  Uiso   1.00
C102   C     0.66293   0.28580   0.76482   0.00000  Uiso   1.00
C103   C     0.65173   0.34669   0.81171   0.00000  Uiso   1.00
C104   C     0.61316   0.33397   0.87827   0.00000  Uiso   1.00
C105   C     0.55398   0.34277   0.99243   0.00000  Uiso   1.00
C106   C     0.65507   0.15625   0.72428   0.00000  Uiso   1.00
C107   C     0.62241   0.18522   0.65060   0.00000  Uiso   1.00
C108   C     0.57195   0.14759   0.60513   0.00000  Uiso   1.00
C109   C     0.54878   0.18360   0.54000   0.00000  Uiso   1.00
C110   C     0.73954   0.15846   0.71463   0.00000  Uiso   1.00
C111   C     0.78756   0.09834   0.72303   0.00000  Uiso   1.00
C112   C     0.86298   0.11182   0.71181   0.00000  Uiso   1.00
C113   C     0.63655   0.21473   0.78374   0.00000  Uiso   1.00
C114   C     0.59800   0.20192   0.85024   0.00000  Uiso   1.00
C115   C     0.58674   0.26277   0.89722   0.00000  Uiso   1.00
H116   H     0.72418   0.34243   0.67472   0.00000  Uiso   1.00
H117   H     0.64612   0.34736   0.55197   0.00000  Uiso   1.00
H118   H     0.86169   0.29812   0.66986   0.00000  Uiso   1.00
H119   H     0.67216   0.40168   0.79705   0.00000  Uiso   1.00
H120   H     0.54797   0.32148   0.42422   0.00000  Uiso   1.00
H121   H     0.00251   0.21765   0.67280   0.00000  Uiso   1.00
H122   H     0.60284   0.43603   0.94102   0.00000  Uiso   1.00
H123   H     0.63453   0.10091   0.73901   0.00000  Uiso   1.00
H124   H     0.55155   0.09259   0.61979   0.00000  Uiso   1.00
H125   H     0.76712   0.04335   0.73767   0.00000  Uiso   1.00
H126   H     0.57759   0.14691   0.86486   0.00000  Uiso   1.00
H127   H     0.47121   0.11469   0.47926   0.00000  Uiso   1.00
H128   H     0.92575   0.01087   0.72784   0.00000  Uiso   1.00
H129   H     0.52609   0.22924   0.99606   0.00000  Uiso   1.00
O130   O     0.45664   0.21695   0.37214   0.00000  Uiso   1.00
O131   O     0.05298   0.08075   0.69829   0.00000  Uiso   1.00
O132   O     0.52862   0.36725   0.05018   0.00000  Uiso   1.00
N133   N     0.54128   0.27396   0.45354   0.00000  Uiso   1.00
N134   N     0.96625   0.17689   0.68594   0.00000  Uiso   1.00
N135   N     0.59261   0.38105   0.93671   0.00000  Uiso   1.00
N136   N     0.49998   0.16269   0.48316   0.00000  Uiso   1.00
N137   N     0.92494   0.06562   0.71556   0.00000  Uiso   1.00
N138   N     0.55131   0.26978   0.96633   0.00000  Uiso   1.00
C139   C     0.29636   0.71290   0.68945   0.00000  Uiso   1.00
C140   C     0.35121   0.74371   0.63168   0.00000  Uiso   1.00
C141   C     0.37431   0.70764   0.56660   0.00000  Uiso   1.00
C142   C     0.42479   0.74520   0.52105   0.00000  Uiso   1.00
C143   C     0.50591   0.78224   0.42845   0.00000  Uiso   1.00
C144   C     0.23408   0.77047   0.69571   0.00000  Uiso   1.00
C145   C     0.15871   0.75689   0.68449   0.00000  Uiso   1.00
C146   C     0.11059   0.81697   0.69286   0.00000  Uiso   1.00
C147   C     0.00987   0.89554   0.69973   0.00000  Uiso   1.00
C148   C     0.33707   0.71420   0.76482   0.00000  Uiso   1.00
C149   C     0.34827   0.65331   0.81171   0.00000  Uiso   1.00
C150   C     0.38684   0.66603   0.87827   0.00000  Uiso   1.00
C151   C     0.44602   0.65723   0.99243   0.00000  Uiso   1.00
C152   C     0.34493   0.84375   0.72428   0.00000  Uiso   1.00
C153   C     0.37759   0.81478   0.65060   0.00000  Uiso   1.00
C154   C     0.42805   0.85241   0.60513   0.00000  Uiso   1.00
C155   C     0.45122   0.81640   0.54000   0.00000  Uiso   1.00
C156   C     0.26046   0.84154   0.71463   0.00000  Uiso   1.00
C157   C     0.21244   0.90166   0.72303   0.00000  Uiso   1.00
C158   C     0.13702   0.88818   0.71181   0.00000  Uiso   1.00
C159   C     0.36345   0.78527   0.78374   0.00000  Uiso   1.00
C160   C     0.40200   0.79808   0.85024   0.00000  Uiso   1.00
C161   C     0.41326   0.73723   0.89722   0.00000  Uiso   1.00
H162   H     0.27582   0.65757   0.67472   0.00000  Uiso   1.00
H163   H     0.35388   0.65264   0.55197   0.00000  Uiso   1.00
H164   H     0.13831   0.70188   0.66986   0.00000  Uiso   1.00
H165   H     0.32784   0.59832   0.79705   0.00000  Uiso   1.00
H166   H     0.45203   0.67852   0.42422   0.00000  Uiso   1.00
H167   H     0.99749   0.78235   0.67280   0.00000  Uiso   1.00
H168   H     0.39716   0.56397   0.94102   0.00000  Uiso   1.00
H169   H     0.36547   0.89909   0.73901   0.00000  Uiso   1.00
H170   H     0.44845   0.90741   0.61979   0.00000  Uiso   1.00
H171   H     0.23288   0.95665   0.73767   0.00000  Uiso   1.00
H172   H     0.42241   0.85309   0.86486   0.00000  Uiso   1.00
H173   H     0.52879   0.88531   0.47926   0.00000  Uiso   1.00
H174   H     0.07425   0.98913   0.72784   0.00000  Uiso   1.00
H175   H     0.47391   0.77076   0.99606   0.00000  Uiso   1.00
O176   O     0.54336   0.78305   0.37214   0.00000  Uiso   1.00
O177   O     0.94702   0.91925   0.69829   0.00000  Uiso   1.00
O178   O     0.47138   0.63275   0.05018   0.00000  Uiso   1.00
N179   N     0.45872   0.72604   0.45354   0.00000  Uiso   1.00
N180   N     0.03375   0.82311   0.68594   0.00000  Uiso   1.00
N181   N     0.40739   0.61895   0.93671   0.00000  Uiso   1.00
N182   N     0.50002   0.83731   0.48316   0.00000  Uiso   1.00
N183   N     0.07506   0.93438   0.71556   0.00000  Uiso   1.00
N184   N     0.44869   0.73022   0.96633   0.00000  Uiso   1.00
C185   C     0.21290   0.79636   0.31055   0.00000  Uiso   1.00
C186   C     0.24371   0.85121   0.36832   0.00000  Uiso   1.00
C187   C     0.20764   0.87431   0.43340   0.00000  Uiso   1.00
C188   C     0.24520   0.92479   0.47895   0.00000  Uiso   1.00
C189   C     0.28224   0.00591   0.57155   0.00000  Uiso   1.00
C190   C     0.27047   0.73408   0.30429   0.00000  Uiso   1.00
C191   C     0.25689   0.65871   0.31551   0.00000  Uiso   1.00
C192   C     0.31697   0.61059   0.30714   0.00000  Uiso   1.00
C193   C     0.39554   0.50987   0.30027   0.00000  Uiso   1.00
C194   C     0.21420   0.83707   0.23518   0.00000  Uiso   1.00
C195   C     0.15331   0.84827   0.18829   0.00000  Uiso   1.00
C196   C     0.16603   0.88684   0.12173   0.00000  Uiso   1.00
C197   C     0.15723   0.94602   0.00757   0.00000  Uiso   1.00
C198   C     0.34375   0.84493   0.27572   0.00000  Uiso   1.00
C199   C     0.31478   0.87759   0.34940   0.00000  Uiso   1.00
C200   C     0.35241   0.92805   0.39487   0.00000  Uiso   1.00
C201   C     0.31640   0.95122   0.46000   0.00000  Uiso   1.00
C202   C     0.34154   0.76046   0.28537   0.00000  Uiso   1.00
C203   C     0.40166   0.71244   0.27697   0.00000  Uiso   1.00
C204   C     0.38818   0.63702   0.28819   0.00000  Uiso   1.00
C205   C     0.28527   0.86345   0.21626   0.00000  Uiso   1.00
C206   C     0.29808   0.90200   0.14976   0.00000  Uiso   1.00
C207   C     0.23723   0.91326   0.10278   0.00000  Uiso   1.00
H208   H     0.15757   0.77582   0.32528   0.00000  Uiso   1.00
H209   H     0.15264   0.85388   0.44803   0.00000  Uiso   1.00
H210   H     0.20188   0.63831   0.33014   0.00000  Uiso   1.00
H211   H     0.09832   0.82784   0.20295   0.00000  Uiso   1.00
H212   H     0.17852   0.95203   0.57578   0.00000  Uiso   1.00
H213   H     0.28235   0.49749   0.32720   0.00000  Uiso   1.00
H214   H     0.06397   0.89716   0.05898   0.00000  Uiso   1.00
H215   H     0.39909   0.86547   0.26099   0.00000  Uiso   1.00
H216   H     0.40741   0.94845   0.38021   0.00000  Uiso   1.00
H217   H     0.45665   0.73288   0.26233   0.00000  Uiso   1.00
H218   H     0.35309   0.92241   0.13514   0.00000  Uiso   1.00
H219   H     0.38531   0.02879   0.52074   0.00000  Uiso   1.00
H220   H     0.48913   0.57425   0.27216   0.00000  Uiso   1.00
H221   H     0.27076   0.97391   0.00394   0.00000  Uiso   1.00
O222   O     0.28305   0.04336   0.62786   0.00000  Uiso   1.00
O223   O     0.41925   0.44702   0.30171   0.00000  Uiso   1.00
O224   O     0.13275   0.97138   0.94982   0.00000  Uiso   1.00
N225   N     0.22604   0.95872   0.54646   0.00000  Uiso   1.00
N226   N     0.32311   0.53375   0.31406   0.00000  Uiso   1.00
N227   N     0.11895   0.90739   0.06329   0.00000  Uiso   1.00
N228   N     0.33731   0.00002   0.51684   0.00000  Uiso   1.00
N229   N     0.43438   0.57506   0.28444   0.00000  Uiso   1.00
N230   N     0.23022   0.94869   0.03367   0.00000  Uiso   1.00
C231   C     0.78710   0.20364   0.31055   0.00000  Uiso   1.00
C232   C     0.75629   0.14879   0.36832   0.00000  Uiso   1.00
C233   C     0.79236   0.12569   0.43340   0.00000  Uiso   1.00
C234   C     0.75480   0.07521   0.47895   0.00000  Uiso   1.00
C235   C     0.71776   0.99409   0.57155   0.00000  Uiso   1.00
C236   C     0.72953   0.26592   0.30429   0.00000  Uiso   1.00
C237   C     0.74311   0.34129   0.31551   0.00000  Uiso   1.00
C238   C     0.68303   0.38941   0.30714   0.00000  Uiso   1.00
C239   C     0.60446   0.49013   0.30027   0.00000  Uiso   1.00
C240   C     0.78580   0.16293   0.23518   0.00000  Uiso   1.00
C241   C     0.84669   0.15173   0.18829   0.00000  Uiso   1.00
C242   C     0.83397   0.11316   0.12173   0.00000  Uiso   1.00
C243   C     0.84277   0.05398   0.00757   0.00000  Uiso   1.00
C244   C     0.65625   0.15507   0.27572   0.00000  Uiso   1.00
C245   C     0.68522   0.12241   0.34940   0.00000  Uiso   1.00
C246   C     0.64759   0.07195   0.39487   0.00000  Uiso   1.00
C247   C     0.68360   0.04878   0.46000   0.00000  Uiso   1.00
C248   C     0.65846   0.23954   0.28537   0.00000  Uiso   1.00
C249   C     0.59834   0.28756   0.27697   0.00000  Uiso   1.00
C250   C     0.61182   0.36298   0.28819   0.00000  Uiso   1.00
C251   C     0.71473   0.13655   0.21626   0.00000  Uiso   1.00
C252   C     0.70192   0.09800   0.14976   0.00000  Uiso   1.00
C253   C     0.76277   0.08674   0.10278   0.00000  Uiso   1.00
H254   H     0.84243   0.22418   0.32528   0.00000  Uiso   1.00
H255   H     0.84736   0.14612   0.44803   0.00000  Uiso   1.00
H256   H     0.79812   0.36169   0.33014   0.00000  Uiso   1.00
H257   H     0.90168   0.17216   0.20295   0.00000  Uiso   1.00
H258   H     0.82148   0.04797   0.57578   0.00000  Uiso   1.00
H259   H     0.71765   0.50251   0.32720   0.00000  Uiso   1.00
H260   H     0.93603   0.10284   0.05898   0.00000  Uiso   1.00
H261   H     0.60091   0.13453   0.26099   0.00000  Uiso   1.00
H262   H     0.59259   0.05155   0.38021   0.00000  Uiso   1.00
H263   H     0.54335   0.26712   0.26233   0.00000  Uiso   1.00
H264   H     0.64691   0.07759   0.13514   0.00000  Uiso   1.00
H265   H     0.61469   0.97121   0.52074   0.00000  Uiso   1.00
H266   H     0.51087   0.42575   0.27216   0.00000  Uiso   1.00
H267   H     0.72924   0.02609   0.00394   0.00000  Uiso   1.00
O268   O     0.71695   0.95664   0.62786   0.00000  Uiso   1.00
O269   O     0.58075   0.55298   0.30171   0.00000  Uiso   1.00
O270   O     0.86725   0.02862   0.94982   0.00000  Uiso   1.00
N271   N     0.77396   0.04128   0.54646   0.00000  Uiso   1.00
N272   N     0.67689   0.46625   0.31406   0.00000  Uiso   1.00
N273   N     0.88105   0.09261   0.06329   0.00000  Uiso   1.00
N274   N     0.66269   0.99998   0.51684   0.00000  Uiso   1.00
N275   N     0.56562   0.42494   0.28444   0.00000  Uiso   1.00
N276   N     0.76978   0.05131   0.03367   0.00000  Uiso   1.00
C277   C     0.20364   0.21290   0.68945   0.00000  Uiso   1.00
C278   C     0.14879   0.24371   0.63168   0.00000  Uiso   1.00
C279   C     0.12569   0.20764   0.56660   0.00000  Uiso   1.00
C280   C     0.07521   0.24520   0.52105   0.00000  Uiso   1.00
C281   C     0.99409   0.28224   0.42845   0.00000  Uiso   1.00
C282   C     0.26592   0.27047   0.69571   0.00000  Uiso   1.00
C283   C     0.34129   0.25689   0.68449   0.00000  Uiso   1.00
C284   C     0.38941   0.31697   0.69286   0.00000  Uiso   1.00
C285   C     0.49013   0.39554   0.69973   0.00000  Uiso   1.00
C286   C     0.16293   0.21420   0.76482   0.00000  Uiso   1.00
C287   C     0.15173   0.15331   0.81171   0.00000  Uiso   1.00
C288   C     0.11316   0.16603   0.87827   0.00000  Uiso   1.00
C289   C     0.05398   0.15723   0.99243   0.00000  Uiso   1.00
C290   C     0.15507   0.34375   0.72428   0.00000  Uiso   1.00
C291   C     0.12241   0.31478   0.65060   0.00000  Uiso   1.00
C292   C     0.07195   0.35241   0.60513   0.00000  Uiso   1.00
C293   C     0.04878   0.31640   0.54000   0.00000  Uiso   1.00
C294   C     0.23954   0.34154   0.71463   0.00000  Uiso   1.00
C295   C     0.28756   0.40166   0.72303   0.00000  Uiso   1.00
C296   C     0.36298   0.38818   0.71181   0.00000  Uiso   1.00
C297   C     0.13655   0.28527   0.78374   0.00000  Uiso   1.00
C298   C     0.09800   0.29808   0.85024   0.00000  Uiso   1.00
C299   C     0.08674   0.23723   0.89722   0.00000  Uiso   1.00
H300   H     0.22418   0.15757   0.67472   0.00000  Uiso   1.00
H301   H     0.14612   0.15264   0.55197   0.00000  Uiso   1.00
H302   H     0.36169   0.20188   0.66986   0.00000  Uiso   1.00
H303   H     0.17216   0.09832   0.79705   0.00000  Uiso   1.00
H304   H     0.04797   0.17852   0.42422   0.00000  Uiso   1.00
H305   H     0.50251   0.28235   0.67280   0.00000  Uiso   1.00
H306   H     0.10284   0.06397   0.94102   0.00000  Uiso   1.00
H307   H     0.13453   0.39909   0.73901   0.00000  Uiso   1.00
H308   H     0.05155   0.40741   0.61979   0.00000  Uiso   1.00
H309   H     0.26712   0.45665   0.73767   0.00000  Uiso   1.00
H310   H     0.07759   0.35309   0.86486   0.00000  Uiso   1.00
H311   H     0.97121   0.38531   0.47926   0.00000  Uiso   1.00
H312   H     0.42575   0.48913   0.72784   0.00000  Uiso   1.00
H313   H     0.02609   0.27076   0.99606   0.00000  Uiso   1.00
O314   O     0.95664   0.28305   0.37214   0.00000  Uiso   1.00
O315   O     0.55298   0.41925   0.69829   0.00000  Uiso   1.00
O316   O     0.02862   0.13275   0.05018   0.00000  Uiso   1.00
N317   N     0.04128   0.22604   0.45354   0.00000  Uiso   1.00
N318   N     0.46625   0.32311   0.68594   0.00000  Uiso   1.00
N319   N     0.09261   0.11895   0.93671   0.00000  Uiso   1.00
N320   N     0.99998   0.33731   0.48316   0.00000  Uiso   1.00
N321   N     0.42494   0.43438   0.71556   0.00000  Uiso   1.00
N322   N     0.05131   0.23022   0.96633   0.00000  Uiso   1.00
C323   C     0.79636   0.78710   0.68945   0.00000  Uiso   1.00
C324   C     0.85121   0.75629   0.63168   0.00000  Uiso   1.00
C325   C     0.87431   0.79236   0.56660   0.00000  Uiso   1.00
C326   C     0.92479   0.75480   0.52105   0.00000  Uiso   1.00
C327   C     0.00591   0.71776   0.42845   0.00000  Uiso   1.00
C328   C     0.73408   0.72953   0.69571   0.00000  Uiso   1.00
C329   C     0.65871   0.74311   0.68449   0.00000  Uiso   1.00
C330   C     0.61059   0.68303   0.69286   0.00000  Uiso   1.00
C331   C     0.50987   0.60446   0.69973   0.00000  Uiso   1.00
C332   C     0.83707   0.78580   0.76482   0.00000  Uiso   1.00
C333   C     0.84827   0.84669   0.81171   0.00000  Uiso   1.00
C334   C     0.88684   0.83397   0.87827   0.00000  Uiso   1.00
C335   C     0.94602   0.84277   0.99243   0.00000  Uiso   1.00
C336   C     0.84493   0.65625   0.72428   0.00000  Uiso   1.00
C337   C     0.87759   0.68522   0.65060   0.00000  Uiso   1.00
C338   C     0.92805   0.64759   0.60513   0.00000  Uiso   1.00
C339   C     0.95122   0.68360   0.54000   0.00000  Uiso   1.00
C340   C     0.76046   0.65846   0.71463   0.00000  Uiso   1.00
C341   C     0.71244   0.59834   0.72303   0.00000  Uiso   1.00
C342   C     0.63702   0.61182   0.71181   0.00000  Uiso   1.00
C343   C     0.86345   0.71473   0.78374   0.00000  Uiso   1.00
C344   C     0.90200   0.70192   0.85024   0.00000  Uiso   1.00
C345   C     0.91326   0.76277   0.89722   0.00000  Uiso   1.00
H346   H     0.77582   0.84243   0.67472   0.00000  Uiso   1.00
H347   H     0.85388   0.84736   0.55197   0.00000  Uiso   1.00
H348   H     0.63831   0.79812   0.66986   0.00000  Uiso   1.00
H349   H     0.82784   0.90168   0.79705   0.00000  Uiso   1.00
H350   H     0.95203   0.82148   0.42422   0.00000  Uiso   1.00
H351   H     0.49749   0.71765   0.67280   0.00000  Uiso   1.00
H352   H     0.89716   0.93603   0.94102   0.00000  Uiso   1.00
H353   H     0.86547   0.60091   0.73901   0.00000  Uiso   1.00
H354   H     0.94845   0.59259   0.61979   0.00000  Uiso   1.00
H355   H     0.73288   0.54335   0.73767   0.00000  Uiso   1.00
H356   H     0.92241   0.64691   0.86486   0.00000  Uiso   1.00
H357   H     0.02879   0.61469   0.47926   0.00000  Uiso   1.00
H358   H     0.57425   0.51087   0.72784   0.00000  Uiso   1.00
H359   H     0.97391   0.72924   0.99606   0.00000  Uiso   1.00
O360   O     0.04336   0.71695   0.37214   0.00000  Uiso   1.00
O361   O     0.44702   0.58075   0.69829   0.00000  Uiso   1.00
O362   O     0.97138   0.86725   0.05018   0.00000  Uiso   1.00
N363   N     0.95872   0.77396   0.45354   0.00000  Uiso   1.00
N364   N     0.53375   0.67689   0.68594   0.00000  Uiso   1.00
N365   N     0.90739   0.88105   0.93671   0.00000  Uiso   1.00
N366   N     0.00002   0.66269   0.48316   0.00000  Uiso   1.00
N367   N     0.57506   0.56562   0.71556   0.00000  Uiso   1.00
N368   N     0.94869   0.76978   0.96633   0.00000  Uiso   1.00
