data_job_00047
_audit_creation_date              2018-12-19
_audit_creation_method            'Materials Studio'
_symmetry_space_group_name_H-M    'P1'
_symmetry_Int_Tables_number       1
_symmetry_cell_setting            triclinic
loop_
_symmetry_equiv_pos_as_xyz
  x,y,z
_cell_length_a                    15.5046
_cell_length_b                    10.2459
_cell_length_c                    26.9175
_cell_angle_alpha                 90.0000
_cell_angle_beta                  90.0000
_cell_angle_gamma                 90.0000
loop_
_atom_site_label
_atom_site_type_symbol
_atom_site_fract_x
_atom_site_fract_y
_atom_site_fract_z
_atom_site_U_iso_or_equiv
_atom_site_adp_type
_atom_site_occupancy
C1     C     0.08366   0.83093   0.61380   0.00000  Uiso   1.00
C2     C     0.16890   0.86507   0.58869   0.00000  Uiso   1.00
C3     C     0.20387   0.80212   0.54773   0.00000  Uiso   1.00
C4     C     0.28251   0.84803   0.53033   0.00000  Uiso   1.00
C5     C     0.40848   0.88502   0.48790   0.00000  Uiso   1.00
C6     C     0.10517   0.80465   0.66817   0.00000  Uiso   1.00
C7     C     0.08656   0.69090   0.69402   0.00000  Uiso   1.00
C8     C     0.11155   0.68596   0.74352   0.00000  Uiso   1.00
C9     C     0.13853   0.62918   0.82448   0.00000  Uiso   1.00
C10    C     0.03001   0.95565   0.61327   0.00000  Uiso   1.00
C11    C     0.94819   0.96886   0.59298   0.00000  Uiso   1.00
C12    C     0.90989   0.09105   0.59627   0.00000  Uiso   1.00
C13    C     0.82017   0.26872   0.59200   0.00000  Uiso   1.00
C14    C     0.16114   0.02443   0.65573   0.00000  Uiso   1.00
C15    C     0.21098   0.97018   0.61147   0.00000  Uiso   1.00
C16    C     0.28959   0.01620   0.59412   0.00000  Uiso   1.00
C17    C     0.32467   0.95333   0.55314   0.00000  Uiso   1.00
C18    C     0.14725   0.90975   0.69094   0.00000  Uiso   1.00
C19    C     0.17227   0.90499   0.74041   0.00000  Uiso   1.00
C20    C     0.15371   0.79125   0.76633   0.00000  Uiso   1.00
C21    C     0.07209   0.06076   0.63604   0.00000  Uiso   1.00
C22    C     0.03391   0.18295   0.63937   0.00000  Uiso   1.00
C23    C     0.95205   0.19634   0.61909   0.00000  Uiso   1.00
H24    H     0.05090   0.74910   0.59607   0.00000  Uiso   1.00
H25    H     0.17129   0.72077   0.53012   0.00000  Uiso   1.00
H26    H     0.05398   0.60958   0.67639   0.00000  Uiso   1.00
H27    H     0.91564   0.88750   0.57536   0.00000  Uiso   1.00
H28    H     0.32333   0.73569   0.46706   0.00000  Uiso   1.00
H29    H     0.07597   0.50126   0.77547   0.00000  Uiso   1.00
H30    H     0.78424   0.08730   0.56244   0.00000  Uiso   1.00
H31    H     0.19390   0.10626   0.67346   0.00000  Uiso   1.00
H32    H     0.32214   0.09754   0.61175   0.00000  Uiso   1.00
H33    H     0.20483   0.98634   0.75802   0.00000  Uiso   1.00
H34    H     0.06649   0.26426   0.65700   0.00000  Uiso   1.00
H35    H     0.44577   0.04148   0.53332   0.00000  Uiso   1.00
H36    H     0.19840   0.80705   0.84174   0.00000  Uiso   1.00
H37    H     0.90668   0.39310   0.62870   0.00000  Uiso   1.00
O38    O     0.46634   0.87638   0.45821   0.00000  Uiso   1.00
O39    O     0.14179   0.56882   0.86284   0.00000  Uiso   1.00
O40    O     0.75906   0.33769   0.58335   0.00000  Uiso   1.00
N41    N     0.33454   0.80887   0.49111   0.00000  Uiso   1.00
N42    N     0.10328   0.58968   0.77946   0.00000  Uiso   1.00
N43    N     0.83054   0.13758   0.58031   0.00000  Uiso   1.00
N44    N     0.40042   0.97342   0.52677   0.00000  Uiso   1.00
N45    N     0.16916   0.75423   0.81512   0.00000  Uiso   1.00
N46    N     0.89642   0.30212   0.61596   0.00000  Uiso   1.00
C47    C     0.41634   0.66907   0.11380   0.00000  Uiso   1.00
C48    C     0.33110   0.63493   0.08869   0.00000  Uiso   1.00
C49    C     0.29613   0.69788   0.04773   0.00000  Uiso   1.00
C50    C     0.21749   0.65197   0.03033   0.00000  Uiso   1.00
C51    C     0.09152   0.61498   0.98790   0.00000  Uiso   1.00
C52    C     0.39483   0.69535   0.16817   0.00000  Uiso   1.00
C53    C     0.41344   0.80910   0.19402   0.00000  Uiso   1.00
C54    C     0.38845   0.81404   0.24352   0.00000  Uiso   1.00
C55    C     0.36147   0.87082   0.32448   0.00000  Uiso   1.00
C56    C     0.46999   0.54435   0.11327   0.00000  Uiso   1.00
C57    C     0.55181   0.53114   0.09298   0.00000  Uiso   1.00
C58    C     0.59011   0.40895   0.09627   0.00000  Uiso   1.00
C59    C     0.67983   0.23128   0.09200   0.00000  Uiso   1.00
C60    C     0.33886   0.47557   0.15573   0.00000  Uiso   1.00
C61    C     0.28902   0.52982   0.11147   0.00000  Uiso   1.00
C62    C     0.21041   0.48380   0.09412   0.00000  Uiso   1.00
C63    C     0.17533   0.54667   0.05314   0.00000  Uiso   1.00
C64    C     0.35275   0.59025   0.19094   0.00000  Uiso   1.00
C65    C     0.32773   0.59501   0.24041   0.00000  Uiso   1.00
C66    C     0.34629   0.70875   0.26633   0.00000  Uiso   1.00
C67    C     0.42791   0.43924   0.13604   0.00000  Uiso   1.00
C68    C     0.46609   0.31705   0.13937   0.00000  Uiso   1.00
C69    C     0.54795   0.30366   0.11909   0.00000  Uiso   1.00
H70    H     0.44910   0.75090   0.09607   0.00000  Uiso   1.00
H71    H     0.32871   0.77923   0.03012   0.00000  Uiso   1.00
H72    H     0.44602   0.89042   0.17639   0.00000  Uiso   1.00
H73    H     0.58436   0.61250   0.07536   0.00000  Uiso   1.00
H74    H     0.17667   0.76431   0.96706   0.00000  Uiso   1.00
H75    H     0.42403   0.99874   0.27547   0.00000  Uiso   1.00
H76    H     0.71576   0.41270   0.06244   0.00000  Uiso   1.00
H77    H     0.30610   0.39374   0.17346   0.00000  Uiso   1.00
H78    H     0.17786   0.40246   0.11175   0.00000  Uiso   1.00
H79    H     0.29517   0.51366   0.25802   0.00000  Uiso   1.00
H80    H     0.43351   0.23574   0.15700   0.00000  Uiso   1.00
H81    H     0.05423   0.45852   0.03332   0.00000  Uiso   1.00
H82    H     0.30160   0.69295   0.34174   0.00000  Uiso   1.00
H83    H     0.59332   0.10690   0.12870   0.00000  Uiso   1.00
O84    O     0.03366   0.62362   0.95821   0.00000  Uiso   1.00
O85    O     0.35821   0.93118   0.36284   0.00000  Uiso   1.00
O86    O     0.74094   0.16231   0.08335   0.00000  Uiso   1.00
N87    N     0.16546   0.69113   0.99111   0.00000  Uiso   1.00
N88    N     0.39672   0.91032   0.27946   0.00000  Uiso   1.00
N89    N     0.66946   0.36242   0.08031   0.00000  Uiso   1.00
N90    N     0.09958   0.52658   0.02677   0.00000  Uiso   1.00
N91    N     0.33084   0.74577   0.31512   0.00000  Uiso   1.00
N92    N     0.60358   0.19788   0.11596   0.00000  Uiso   1.00
C93    C     0.91634   0.83093   0.88620   0.00000  Uiso   1.00
C94    C     0.83110   0.86507   0.91131   0.00000  Uiso   1.00
C95    C     0.79613   0.80212   0.95227   0.00000  Uiso   1.00
C96    C     0.71749   0.84803   0.96967   0.00000  Uiso   1.00
C97    C     0.59152   0.88502   0.01210   0.00000  Uiso   1.00
C98    C     0.89483   0.80465   0.83183   0.00000  Uiso   1.00
C99    C     0.91344   0.69090   0.80598   0.00000  Uiso   1.00
C100   C     0.88845   0.68596   0.75648   0.00000  Uiso   1.00
C101   C     0.86147   0.62918   0.67552   0.00000  Uiso   1.00
C102   C     0.96999   0.95565   0.88673   0.00000  Uiso   1.00
C103   C     0.05181   0.96886   0.90702   0.00000  Uiso   1.00
C104   C     0.09011   0.09105   0.90373   0.00000  Uiso   1.00
C105   C     0.17983   0.26872   0.90800   0.00000  Uiso   1.00
C106   C     0.83886   0.02443   0.84427   0.00000  Uiso   1.00
C107   C     0.78902   0.97018   0.88853   0.00000  Uiso   1.00
C108   C     0.71041   0.01620   0.90588   0.00000  Uiso   1.00
C109   C     0.67533   0.95333   0.94686   0.00000  Uiso   1.00
C110   C     0.85275   0.90975   0.80906   0.00000  Uiso   1.00
C111   C     0.82773   0.90499   0.75959   0.00000  Uiso   1.00
C112   C     0.84629   0.79125   0.73367   0.00000  Uiso   1.00
C113   C     0.92791   0.06076   0.86396   0.00000  Uiso   1.00
C114   C     0.96609   0.18295   0.86063   0.00000  Uiso   1.00
C115   C     0.04795   0.19634   0.88091   0.00000  Uiso   1.00
H116   H     0.94910   0.74910   0.90393   0.00000  Uiso   1.00
H117   H     0.82871   0.72077   0.96988   0.00000  Uiso   1.00
H118   H     0.94602   0.60958   0.82361   0.00000  Uiso   1.00
H119   H     0.08436   0.88750   0.92464   0.00000  Uiso   1.00
H120   H     0.67667   0.73569   0.03294   0.00000  Uiso   1.00
H121   H     0.92403   0.50126   0.72453   0.00000  Uiso   1.00
H122   H     0.21576   0.08730   0.93756   0.00000  Uiso   1.00
H123   H     0.80610   0.10626   0.82654   0.00000  Uiso   1.00
H124   H     0.67786   0.09754   0.88825   0.00000  Uiso   1.00
H125   H     0.79517   0.98634   0.74198   0.00000  Uiso   1.00
H126   H     0.93351   0.26426   0.84300   0.00000  Uiso   1.00
H127   H     0.55423   0.04148   0.96668   0.00000  Uiso   1.00
H128   H     0.80160   0.80705   0.65826   0.00000  Uiso   1.00
H129   H     0.09332   0.39310   0.87130   0.00000  Uiso   1.00
O130   O     0.53366   0.87638   0.04179   0.00000  Uiso   1.00
O131   O     0.85821   0.56882   0.63716   0.00000  Uiso   1.00
O132   O     0.24094   0.33769   0.91665   0.00000  Uiso   1.00
N133   N     0.66546   0.80887   0.00889   0.00000  Uiso   1.00
N134   N     0.89672   0.58968   0.72054   0.00000  Uiso   1.00
N135   N     0.16946   0.13758   0.91969   0.00000  Uiso   1.00
N136   N     0.59958   0.97342   0.97323   0.00000  Uiso   1.00
N137   N     0.83084   0.75423   0.68488   0.00000  Uiso   1.00
N138   N     0.10358   0.30212   0.88404   0.00000  Uiso   1.00
C139   C     0.58366   0.66907   0.38620   0.00000  Uiso   1.00
C140   C     0.66890   0.63493   0.41131   0.00000  Uiso   1.00
C141   C     0.70387   0.69788   0.45227   0.00000  Uiso   1.00
C142   C     0.78251   0.65197   0.46967   0.00000  Uiso   1.00
C143   C     0.90848   0.61498   0.51210   0.00000  Uiso   1.00
C144   C     0.60517   0.69535   0.33183   0.00000  Uiso   1.00
C145   C     0.58656   0.80910   0.30598   0.00000  Uiso   1.00
C146   C     0.61155   0.81404   0.25648   0.00000  Uiso   1.00
C147   C     0.63853   0.87082   0.17552   0.00000  Uiso   1.00
C148   C     0.53001   0.54435   0.38673   0.00000  Uiso   1.00
C149   C     0.44819   0.53114   0.40702   0.00000  Uiso   1.00
C150   C     0.40989   0.40895   0.40373   0.00000  Uiso   1.00
C151   C     0.32017   0.23128   0.40800   0.00000  Uiso   1.00
C152   C     0.66114   0.47557   0.34427   0.00000  Uiso   1.00
C153   C     0.71098   0.52982   0.38853   0.00000  Uiso   1.00
C154   C     0.78959   0.48380   0.40588   0.00000  Uiso   1.00
C155   C     0.82467   0.54667   0.44686   0.00000  Uiso   1.00
C156   C     0.64725   0.59025   0.30906   0.00000  Uiso   1.00
C157   C     0.67227   0.59501   0.25959   0.00000  Uiso   1.00
C158   C     0.65371   0.70875   0.23367   0.00000  Uiso   1.00
C159   C     0.57209   0.43924   0.36396   0.00000  Uiso   1.00
C160   C     0.53391   0.31705   0.36063   0.00000  Uiso   1.00
C161   C     0.45205   0.30366   0.38091   0.00000  Uiso   1.00
H162   H     0.55090   0.75090   0.40393   0.00000  Uiso   1.00
H163   H     0.67129   0.77923   0.46988   0.00000  Uiso   1.00
H164   H     0.55398   0.89042   0.32361   0.00000  Uiso   1.00
H165   H     0.41564   0.61250   0.42464   0.00000  Uiso   1.00
H166   H     0.82333   0.76431   0.53294   0.00000  Uiso   1.00
H167   H     0.57597   0.99874   0.22453   0.00000  Uiso   1.00
H168   H     0.28424   0.41270   0.43756   0.00000  Uiso   1.00
H169   H     0.69390   0.39374   0.32654   0.00000  Uiso   1.00
H170   H     0.82214   0.40246   0.38825   0.00000  Uiso   1.00
H171   H     0.70483   0.51366   0.24198   0.00000  Uiso   1.00
H172   H     0.56649   0.23574   0.34300   0.00000  Uiso   1.00
H173   H     0.94577   0.45852   0.46668   0.00000  Uiso   1.00
H174   H     0.69840   0.69295   0.15826   0.00000  Uiso   1.00
H175   H     0.40668   0.10690   0.37130   0.00000  Uiso   1.00
O176   O     0.96634   0.62362   0.54179   0.00000  Uiso   1.00
O177   O     0.64179   0.93118   0.13716   0.00000  Uiso   1.00
O178   O     0.25906   0.16231   0.41665   0.00000  Uiso   1.00
N179   N     0.83454   0.69113   0.50889   0.00000  Uiso   1.00
N180   N     0.60328   0.91032   0.22054   0.00000  Uiso   1.00
N181   N     0.33054   0.36242   0.41969   0.00000  Uiso   1.00
N182   N     0.90042   0.52658   0.47323   0.00000  Uiso   1.00
N183   N     0.66916   0.74577   0.18488   0.00000  Uiso   1.00
N184   N     0.39642   0.19788   0.38404   0.00000  Uiso   1.00
C185   C     0.91634   0.16907   0.38620   0.00000  Uiso   1.00
C186   C     0.83110   0.13493   0.41131   0.00000  Uiso   1.00
C187   C     0.79613   0.19788   0.45227   0.00000  Uiso   1.00
C188   C     0.71749   0.15197   0.46967   0.00000  Uiso   1.00
C189   C     0.59152   0.11498   0.51210   0.00000  Uiso   1.00
C190   C     0.89483   0.19535   0.33183   0.00000  Uiso   1.00
C191   C     0.91344   0.30910   0.30598   0.00000  Uiso   1.00
C192   C     0.88845   0.31404   0.25648   0.00000  Uiso   1.00
C193   C     0.86147   0.37082   0.17552   0.00000  Uiso   1.00
C194   C     0.96999   0.04435   0.38673   0.00000  Uiso   1.00
C195   C     0.05181   0.03114   0.40702   0.00000  Uiso   1.00
C196   C     0.09011   0.90895   0.40373   0.00000  Uiso   1.00
C197   C     0.17983   0.73128   0.40800   0.00000  Uiso   1.00
C198   C     0.83886   0.97557   0.34427   0.00000  Uiso   1.00
C199   C     0.78902   0.02982   0.38853   0.00000  Uiso   1.00
C200   C     0.71041   0.98380   0.40588   0.00000  Uiso   1.00
C201   C     0.67533   0.04667   0.44686   0.00000  Uiso   1.00
C202   C     0.85275   0.09025   0.30906   0.00000  Uiso   1.00
C203   C     0.82773   0.09501   0.25959   0.00000  Uiso   1.00
C204   C     0.84629   0.20875   0.23367   0.00000  Uiso   1.00
C205   C     0.92791   0.93924   0.36396   0.00000  Uiso   1.00
C206   C     0.96609   0.81705   0.36063   0.00000  Uiso   1.00
C207   C     0.04795   0.80366   0.38091   0.00000  Uiso   1.00
H208   H     0.94910   0.25090   0.40393   0.00000  Uiso   1.00
H209   H     0.82871   0.27923   0.46988   0.00000  Uiso   1.00
H210   H     0.94602   0.39042   0.32361   0.00000  Uiso   1.00
H211   H     0.08436   0.11250   0.42464   0.00000  Uiso   1.00
H212   H     0.67667   0.26431   0.53294   0.00000  Uiso   1.00
H213   H     0.92403   0.49874   0.22453   0.00000  Uiso   1.00
H214   H     0.21576   0.91270   0.43756   0.00000  Uiso   1.00
H215   H     0.80610   0.89374   0.32654   0.00000  Uiso   1.00
H216   H     0.67786   0.90246   0.38825   0.00000  Uiso   1.00
H217   H     0.79517   0.01366   0.24198   0.00000  Uiso   1.00
H218   H     0.93351   0.73574   0.34300   0.00000  Uiso   1.00
H219   H     0.55423   0.95852   0.46668   0.00000  Uiso   1.00
H220   H     0.80160   0.19295   0.15826   0.00000  Uiso   1.00
H221   H     0.09332   0.60690   0.37130   0.00000  Uiso   1.00
O222   O     0.53366   0.12362   0.54179   0.00000  Uiso   1.00
O223   O     0.85821   0.43118   0.13716   0.00000  Uiso   1.00
O224   O     0.24094   0.66231   0.41665   0.00000  Uiso   1.00
N225   N     0.66546   0.19113   0.50889   0.00000  Uiso   1.00
N226   N     0.89672   0.41032   0.22054   0.00000  Uiso   1.00
N227   N     0.16946   0.86242   0.41969   0.00000  Uiso   1.00
N228   N     0.59958   0.02658   0.47323   0.00000  Uiso   1.00
N229   N     0.83084   0.24577   0.18488   0.00000  Uiso   1.00
N230   N     0.10358   0.69788   0.38404   0.00000  Uiso   1.00
C231   C     0.58366   0.33093   0.88620   0.00000  Uiso   1.00
C232   C     0.66890   0.36507   0.91131   0.00000  Uiso   1.00
C233   C     0.70387   0.30212   0.95227   0.00000  Uiso   1.00
C234   C     0.78251   0.34803   0.96967   0.00000  Uiso   1.00
C235   C     0.90848   0.38502   0.01210   0.00000  Uiso   1.00
C236   C     0.60517   0.30465   0.83183   0.00000  Uiso   1.00
C237   C     0.58656   0.19090   0.80598   0.00000  Uiso   1.00
C238   C     0.61155   0.18596   0.75648   0.00000  Uiso   1.00
C239   C     0.63853   0.12918   0.67552   0.00000  Uiso   1.00
C240   C     0.53001   0.45565   0.88673   0.00000  Uiso   1.00
C241   C     0.44819   0.46886   0.90702   0.00000  Uiso   1.00
C242   C     0.40989   0.59105   0.90373   0.00000  Uiso   1.00
C243   C     0.32017   0.76872   0.90800   0.00000  Uiso   1.00
C244   C     0.66114   0.52443   0.84427   0.00000  Uiso   1.00
C245   C     0.71098   0.47018   0.88853   0.00000  Uiso   1.00
C246   C     0.78959   0.51620   0.90588   0.00000  Uiso   1.00
C247   C     0.82467   0.45333   0.94686   0.00000  Uiso   1.00
C248   C     0.64725   0.40975   0.80906   0.00000  Uiso   1.00
C249   C     0.67227   0.40499   0.75959   0.00000  Uiso   1.00
C250   C     0.65371   0.29125   0.73367   0.00000  Uiso   1.00
C251   C     0.57209   0.56076   0.86396   0.00000  Uiso   1.00
C252   C     0.53391   0.68295   0.86063   0.00000  Uiso   1.00
C253   C     0.45205   0.69634   0.88091   0.00000  Uiso   1.00
H254   H     0.55090   0.24910   0.90393   0.00000  Uiso   1.00
H255   H     0.67129   0.22077   0.96988   0.00000  Uiso   1.00
H256   H     0.55398   0.10958   0.82361   0.00000  Uiso   1.00
H257   H     0.41564   0.38750   0.92464   0.00000  Uiso   1.00
H258   H     0.82333   0.23569   0.03294   0.00000  Uiso   1.00
H259   H     0.57597   0.00126   0.72453   0.00000  Uiso   1.00
H260   H     0.28424   0.58730   0.93756   0.00000  Uiso   1.00
H261   H     0.69390   0.60626   0.82654   0.00000  Uiso   1.00
H262   H     0.82214   0.59754   0.88825   0.00000  Uiso   1.00
H263   H     0.70483   0.48634   0.74198   0.00000  Uiso   1.00
H264   H     0.56649   0.76426   0.84300   0.00000  Uiso   1.00
H265   H     0.94577   0.54148   0.96668   0.00000  Uiso   1.00
H266   H     0.69840   0.30705   0.65826   0.00000  Uiso   1.00
H267   H     0.40668   0.89310   0.87130   0.00000  Uiso   1.00
O268   O     0.96634   0.37638   0.04179   0.00000  Uiso   1.00
O269   O     0.64179   0.06882   0.63716   0.00000  Uiso   1.00
O270   O     0.25906   0.83769   0.91665   0.00000  Uiso   1.00
N271   N     0.83454   0.30887   0.00889   0.00000  Uiso   1.00
N272   N     0.60328   0.08968   0.72054   0.00000  Uiso   1.00
N273   N     0.33054   0.63758   0.91969   0.00000  Uiso   1.00
N274   N     0.90042   0.47342   0.97323   0.00000  Uiso   1.00
N275   N     0.66916   0.25423   0.68488   0.00000  Uiso   1.00
N276   N     0.39642   0.80212   0.88404   0.00000  Uiso   1.00
C277   C     0.08366   0.16907   0.11380   0.00000  Uiso   1.00
C278   C     0.16890   0.13493   0.08869   0.00000  Uiso   1.00
C279   C     0.20387   0.19788   0.04773   0.00000  Uiso   1.00
C280   C     0.28251   0.15197   0.03033   0.00000  Uiso   1.00
C281   C     0.40848   0.11498   0.98790   0.00000  Uiso   1.00
C282   C     0.10517   0.19535   0.16817   0.00000  Uiso   1.00
C283   C     0.08656   0.30910   0.19402   0.00000  Uiso   1.00
C284   C     0.11155   0.31404   0.24352   0.00000  Uiso   1.00
C285   C     0.13853   0.37082   0.32448   0.00000  Uiso   1.00
C286   C     0.03001   0.04435   0.11327   0.00000  Uiso   1.00
C287   C     0.94819   0.03114   0.09298   0.00000  Uiso   1.00
C288   C     0.90989   0.90895   0.09627   0.00000  Uiso   1.00
C289   C     0.82017   0.73128   0.09200   0.00000  Uiso   1.00
C290   C     0.16114   0.97557   0.15573   0.00000  Uiso   1.00
C291   C     0.21098   0.02982   0.11147   0.00000  Uiso   1.00
C292   C     0.28959   0.98380   0.09412   0.00000  Uiso   1.00
C293   C     0.32467   0.04667   0.05314   0.00000  Uiso   1.00
C294   C     0.14725   0.09025   0.19094   0.00000  Uiso   1.00
C295   C     0.17227   0.09501   0.24041   0.00000  Uiso   1.00
C296   C     0.15371   0.20875   0.26633   0.00000  Uiso   1.00
C297   C     0.07209   0.93924   0.13604   0.00000  Uiso   1.00
C298   C     0.03391   0.81705   0.13937   0.00000  Uiso   1.00
C299   C     0.95205   0.80366   0.11909   0.00000  Uiso   1.00
H300   H     0.05090   0.25090   0.09607   0.00000  Uiso   1.00
H301   H     0.17129   0.27923   0.03012   0.00000  Uiso   1.00
H302   H     0.05398   0.39042   0.17639   0.00000  Uiso   1.00
H303   H     0.91564   0.11250   0.07536   0.00000  Uiso   1.00
H304   H     0.32333   0.26431   0.96706   0.00000  Uiso   1.00
H305   H     0.07597   0.49874   0.27547   0.00000  Uiso   1.00
H306   H     0.78424   0.91270   0.06244   0.00000  Uiso   1.00
H307   H     0.19390   0.89374   0.17346   0.00000  Uiso   1.00
H308   H     0.32214   0.90246   0.11175   0.00000  Uiso   1.00
H309   H     0.20483   0.01366   0.25802   0.00000  Uiso   1.00
H310   H     0.06649   0.73574   0.15700   0.00000  Uiso   1.00
H311   H     0.44577   0.95852   0.03332   0.00000  Uiso   1.00
H312   H     0.19840   0.19295   0.34174   0.00000  Uiso   1.00
H313   H     0.90668   0.60690   0.12870   0.00000  Uiso   1.00
O314   O     0.46634   0.12362   0.95821   0.00000  Uiso   1.00
O315   O     0.14179   0.43118   0.36284   0.00000  Uiso   1.00
O316   O     0.75906   0.66231   0.08335   0.00000  Uiso   1.00
N317   N     0.33454   0.19113   0.99111   0.00000  Uiso   1.00
N318   N     0.10328   0.41032   0.27946   0.00000  Uiso   1.00
N319   N     0.83054   0.86242   0.08031   0.00000  Uiso   1.00
N320   N     0.40042   0.02658   0.02677   0.00000  Uiso   1.00
N321   N     0.16916   0.24577   0.31512   0.00000  Uiso   1.00
N322   N     0.89642   0.69788   0.11596   0.00000  Uiso   1.00
C323   C     0.41634   0.33093   0.61380   0.00000  Uiso   1.00
C324   C     0.33110   0.36507   0.58869   0.00000  Uiso   1.00
C325   C     0.29613   0.30212   0.54773   0.00000  Uiso   1.00
C326   C     0.21749   0.34803   0.53033   0.00000  Uiso   1.00
C327   C     0.09152   0.38502   0.48790   0.00000  Uiso   1.00
C328   C     0.39483   0.30465   0.66817   0.00000  Uiso   1.00
C329   C     0.41344   0.19090   0.69402   0.00000  Uiso   1.00
C330   C     0.38845   0.18596   0.74352   0.00000  Uiso   1.00
C331   C     0.36147   0.12918   0.82448   0.00000  Uiso   1.00
C332   C     0.46999   0.45565   0.61327   0.00000  Uiso   1.00
C333   C     0.55181   0.46886   0.59298   0.00000  Uiso   1.00
C334   C     0.59011   0.59105   0.59627   0.00000  Uiso   1.00
C335   C     0.67983   0.76872   0.59200   0.00000  Uiso   1.00
C336   C     0.33886   0.52443   0.65573   0.00000  Uiso   1.00
C337   C     0.28902   0.47018   0.61147   0.00000  Uiso   1.00
C338   C     0.21041   0.51620   0.59412   0.00000  Uiso   1.00
C339   C     0.17533   0.45333   0.55314   0.00000  Uiso   1.00
C340   C     0.35275   0.40975   0.69094   0.00000  Uiso   1.00
C341   C     0.32773   0.40499   0.74041   0.00000  Uiso   1.00
C342   C     0.34629   0.29125   0.76633   0.00000  Uiso   1.00
C343   C     0.42791   0.56076   0.63604   0.00000  Uiso   1.00
C344   C     0.46609   0.68295   0.63937   0.00000  Uiso   1.00
C345   C     0.54795   0.69634   0.61909   0.00000  Uiso   1.00
H346   H     0.44910   0.24910   0.59607   0.00000  Uiso   1.00
H347   H     0.32871   0.22077   0.53012   0.00000  Uiso   1.00
H348   H     0.44602   0.10958   0.67639   0.00000  Uiso   1.00
H349   H     0.58436   0.38750   0.57536   0.00000  Uiso   1.00
H350   H     0.17667   0.23569   0.46706   0.00000  Uiso   1.00
H351   H     0.42403   0.00126   0.77547   0.00000  Uiso   1.00
H352   H     0.71576   0.58730   0.56244   0.00000  Uiso   1.00
H353   H     0.30610   0.60626   0.67346   0.00000  Uiso   1.00
H354   H     0.17786   0.59754   0.61175   0.00000  Uiso   1.00
H355   H     0.29517   0.48634   0.75802   0.00000  Uiso   1.00
H356   H     0.43351   0.76426   0.65700   0.00000  Uiso   1.00
H357   H     0.05423   0.54148   0.53332   0.00000  Uiso   1.00
H358   H     0.30160   0.30705   0.84174   0.00000  Uiso   1.00
H359   H     0.59332   0.89310   0.62870   0.00000  Uiso   1.00
O360   O     0.03366   0.37638   0.45821   0.00000  Uiso   1.00
O361   O     0.35821   0.06882   0.86284   0.00000  Uiso   1.00
O362   O     0.74094   0.83769   0.58335   0.00000  Uiso   1.00
N363   N     0.16546   0.30887   0.49111   0.00000  Uiso   1.00
N364   N     0.39672   0.08968   0.77946   0.00000  Uiso   1.00
N365   N     0.66946   0.63758   0.58031   0.00000  Uiso   1.00
N366   N     0.09958   0.47342   0.52677   0.00000  Uiso   1.00
N367   N     0.33084   0.25423   0.81512   0.00000  Uiso   1.00
N368   N     0.60358   0.80212   0.61596   0.00000  Uiso   1.00
