data_job_06325
_audit_creation_date              2018-12-19
_audit_creation_method            'Materials Studio'
_symmetry_space_group_name_H-M    'P1'
_symmetry_Int_Tables_number       1
_symmetry_cell_setting            triclinic
loop_
_symmetry_equiv_pos_as_xyz
  x,y,z
_cell_length_a                    16.4540
_cell_length_b                    15.9660
_cell_length_c                    15.0969
_cell_angle_alpha                 105.9330
_cell_angle_beta                  106.1860
_cell_angle_gamma                 105.1470
loop_
_atom_site_label
_atom_site_type_symbol
_atom_site_fract_x
_atom_site_fract_y
_atom_site_fract_z
_atom_site_U_iso_or_equiv
_atom_site_adp_type
_atom_site_occupancy
C1     C     0.30924   0.14856   0.76774   0.00000  Uiso   1.00
C2     C     0.27170   0.17636   0.84836   0.00000  Uiso   1.00
C3     C     0.18042   0.15523   0.83352   0.00000  Uiso   1.00
C4     C     0.16002   0.18700   0.91687   0.00000  Uiso   1.00
C5     C     0.09132   0.22244   0.02764   0.00000  Uiso   1.00
C6     C     0.37470   0.23943   0.77401   0.00000  Uiso   1.00
C7     C     0.37002   0.27133   0.69665   0.00000  Uiso   1.00
C8     C     0.43633   0.35618   0.71741   0.00000  Uiso   1.00
C9     C     0.52758   0.48951   0.71272   0.00000  Uiso   1.00
C10    C     0.36771   0.09429   0.80039   0.00000  Uiso   1.00
C11    C     0.35718   0.00415   0.74520   0.00000  Uiso   1.00
C12    C     0.41763   0.96681   0.78817   0.00000  Uiso   1.00
C13    C     0.49803   0.87478   0.82443   0.00000  Uiso   1.00
C14    C     0.43532   0.24253   0.94216   0.00000  Uiso   1.00
C15    C     0.34019   0.22740   0.94310   0.00000  Uiso   1.00
C16    C     0.31992   0.25920   0.02650   0.00000  Uiso   1.00
C17    C     0.22863   0.23813   0.01179   0.00000  Uiso   1.00
C18    C     0.44318   0.29047   0.86874   0.00000  Uiso   1.00
C19    C     0.50952   0.37529   0.88963   0.00000  Uiso   1.00
C20    C     0.50494   0.40732   0.81232   0.00000  Uiso   1.00
C21    C     0.43620   0.14533   0.89513   0.00000  Uiso   1.00
C22    C     0.49668   0.10812   0.93818   0.00000  Uiso   1.00
C23    C     0.48624   0.01794   0.88308   0.00000  Uiso   1.00
H24    H     0.25592   0.10882   0.69398   0.00000  Uiso   1.00
H25    H     0.12744   0.11574   0.76019   0.00000  Uiso   1.00
H26    H     0.31702   0.23181   0.62334   0.00000  Uiso   1.00
H27    H     0.30418   0.96468   0.67189   0.00000  Uiso   1.00
H28    H     0.01521   0.14595   0.87537   0.00000  Uiso   1.00
H29    H     0.41496   0.39067   0.58680   0.00000  Uiso   1.00
H30    H     0.38788   0.82737   0.68917   0.00000  Uiso   1.00
H31    H     0.48864   0.28227   0.01593   0.00000  Uiso   1.00
H32    H     0.37293   0.29870   0.09981   0.00000  Uiso   1.00
H33    H     0.56251   0.41477   0.96295   0.00000  Uiso   1.00
H34    H     0.54967   0.14764   0.01150   0.00000  Uiso   1.00
H35    H     0.21445   0.29445   0.15101   0.00000  Uiso   1.00
H36    H     0.61421   0.53917   0.86244   0.00000  Uiso   1.00
H37    H     0.58713   0.97587   0.96482   0.00000  Uiso   1.00
O38    O     0.03451   0.22790   0.06255   0.00000  Uiso   1.00
O39    O     0.55898   0.54896   0.68395   0.00000  Uiso   1.00
O40    O     0.52345   0.80992   0.81827   0.00000  Uiso   1.00
N41    N     0.07798   0.17862   0.92873   0.00000  Uiso   1.00
N42    N     0.45171   0.40743   0.65894   0.00000  Uiso   1.00
N43    N     0.42641   0.88080   0.75464   0.00000  Uiso   1.00
N44    N     0.18519   0.25853   0.07706   0.00000  Uiso   1.00
N45    N     0.55892   0.48734   0.80726   0.00000  Uiso   1.00
N46    N     0.53362   0.96071   0.90296   0.00000  Uiso   1.00
C47    C     0.76792   0.30791   0.15240   0.00000  Uiso   1.00
C48    C     0.84193   0.26847   0.18137   0.00000  Uiso   1.00
C49    C     0.82869   0.17436   0.15838   0.00000  Uiso   1.00
C50    C     0.90513   0.15259   0.19166   0.00000  Uiso   1.00
C51    C     0.00688   0.08072   0.22842   0.00000  Uiso   1.00
C52    C     0.77393   0.37612   0.24933   0.00000  Uiso   1.00
C53    C     0.70351   0.37253   0.28348   0.00000  Uiso   1.00
C54    C     0.72272   0.44138   0.37397   0.00000  Uiso   1.00
C55    C     0.71887   0.53668   0.51621   0.00000  Uiso   1.00
C56    C     0.79709   0.36731   0.09502   0.00000  Uiso   1.00
C57    C     0.74613   0.35634   0.99943   0.00000  Uiso   1.00
C58    C     0.78483   0.41779   0.96001   0.00000  Uiso   1.00
C59    C     0.81694   0.49942   0.86266   0.00000  Uiso   1.00
C60    C     0.92724   0.43658   0.25237   0.00000  Uiso   1.00
C61    C     0.92846   0.33836   0.23567   0.00000  Uiso   1.00
C62    C     0.00495   0.31672   0.26899   0.00000  Uiso   1.00
C63    C     0.99183   0.22260   0.24605   0.00000  Uiso   1.00
C64    C     0.86046   0.44601   0.30363   0.00000  Uiso   1.00
C65    C     0.87977   0.51489   0.39409   0.00000  Uiso   1.00
C66    C     0.80940   0.51140   0.42837   0.00000  Uiso   1.00
C67    C     0.88362   0.43720   0.14932   0.00000  Uiso   1.00
C68    C     0.92240   0.49869   0.11004   0.00000  Uiso   1.00
C69    C     0.87152   0.48781   0.01441   0.00000  Uiso   1.00
H70    H     0.70055   0.25350   0.11013   0.00000  Uiso   1.00
H71    H     0.76171   0.12030   0.11637   0.00000  Uiso   1.00
H72    H     0.63655   0.31844   0.24144   0.00000  Uiso   1.00
H73    H     0.67917   0.30224   0.95743   0.00000  Uiso   1.00
H74    H     0.86767   0.00344   0.14726   0.00000  Uiso   1.00
H75    H     0.60375   0.42125   0.41096   0.00000  Uiso   1.00
H76    H     0.69363   0.38711   0.81208   0.00000  Uiso   1.00
H77    H     0.99461   0.49100   0.29465   0.00000  Uiso   1.00
H78    H     0.07191   0.37082   0.31101   0.00000  Uiso   1.00
H79    H     0.94674   0.56896   0.43608   0.00000  Uiso   1.00
H80    H     0.98937   0.55277   0.15208   0.00000  Uiso   1.00
H81    H     0.11944   0.20678   0.30524   0.00000  Uiso   1.00
H82    H     0.85552   0.62459   0.56895   0.00000  Uiso   1.00
H83    H     0.94540   0.59044   0.97007   0.00000  Uiso   1.00
O84    O     0.03909   0.02177   0.23371   0.00000  Uiso   1.00
O85    O     0.69284   0.56993   0.57967   0.00000  Uiso   1.00
O86    O     0.81075   0.52513   0.79396   0.00000  Uiso   1.00
N87    N     0.91632   0.06779   0.18218   0.00000  Uiso   1.00
N88    N     0.66958   0.45841   0.42873   0.00000  Uiso   1.00
N89    N     0.75359   0.42650   0.86884   0.00000  Uiso   1.00
N90    N     0.05179   0.17720   0.26718   0.00000  Uiso   1.00
N91    N     0.80505   0.56782   0.51374   0.00000  Uiso   1.00
N92    N     0.88906   0.53591   0.95385   0.00000  Uiso   1.00
C93    C     0.14606   0.76717   0.30433   0.00000  Uiso   1.00
C94    C     0.17189   0.84276   0.26283   0.00000  Uiso   1.00
C95    C     0.15033   0.82856   0.16287   0.00000  Uiso   1.00
C96    C     0.18020   0.90677   0.14013   0.00000  Uiso   1.00
C97    C     0.21279   0.01057   0.06433   0.00000  Uiso   1.00
C98    C     0.23502   0.77277   0.37645   0.00000  Uiso   1.00
C99    C     0.26654   0.69972   0.37203   0.00000  Uiso   1.00
C100   C     0.34955   0.71902   0.44494   0.00000  Uiso   1.00
C101   C     0.48012   0.71415   0.54559   0.00000  Uiso   1.00
C102   C     0.09391   0.79846   0.36785   0.00000  Uiso   1.00
C103   C     0.00678   0.74700   0.35622   0.00000  Uiso   1.00
C104   C     0.97099   0.78792   0.42190   0.00000  Uiso   1.00
C105   C     0.88246   0.82294   0.50919   0.00000  Uiso   1.00
C106   C     0.23744   0.93132   0.44167   0.00000  Uiso   1.00
C107   C     0.22153   0.93191   0.33743   0.00000  Uiso   1.00
C108   C     0.25143   0.01017   0.31483   0.00000  Uiso   1.00
C109   C     0.22992   0.99609   0.21486   0.00000  Uiso   1.00
C110   C     0.28466   0.86193   0.45104   0.00000  Uiso   1.00
C111   C     0.36764   0.88134   0.52398   0.00000  Uiso   1.00
C112   C     0.39927   0.80834   0.51967   0.00000  Uiso   1.00
C113   C     0.14354   0.88762   0.44244   0.00000  Uiso   1.00
C114   C     0.10788   0.92862   0.50816   0.00000  Uiso   1.00
C115   C     0.02071   0.87724   0.49664   0.00000  Uiso   1.00
H116   H     0.10742   0.69775   0.24626   0.00000  Uiso   1.00
H117   H     0.11193   0.75954   0.10517   0.00000  Uiso   1.00
H118   H     0.22811   0.63073   0.31430   0.00000  Uiso   1.00
H119   H     0.96839   0.67801   0.29848   0.00000  Uiso   1.00
H120   H     0.13883   0.86737   0.98164   0.00000  Uiso   1.00
H121   H     0.38379   0.59575   0.42263   0.00000  Uiso   1.00
H122   H     0.83613   0.69545   0.38928   0.00000  Uiso   1.00
H123   H     0.27609   0.00073   0.49975   0.00000  Uiso   1.00
H124   H     0.28984   0.07916   0.37257   0.00000  Uiso   1.00
H125   H     0.40603   0.95034   0.58170   0.00000  Uiso   1.00
H126   H     0.14631   0.99762   0.56588   0.00000  Uiso   1.00
H127   H     0.28324   0.12678   0.19867   0.00000  Uiso   1.00
H128   H     0.52820   0.85515   0.63966   0.00000  Uiso   1.00
H129   H     0.98054   0.95485   0.60631   0.00000  Uiso   1.00
O130   O     0.21707   0.04319   0.00192   0.00000  Uiso   1.00
O131   O     0.53843   0.68683   0.58048   0.00000  Uiso   1.00
O132   O     0.81991   0.81763   0.53672   0.00000  Uiso   1.00
N133   N     0.17092   0.91766   0.05017   0.00000  Uiso   1.00
N134   N     0.39995   0.66372   0.46246   0.00000  Uiso   1.00
N135   N     0.88794   0.75691   0.43130   0.00000  Uiso   1.00
N136   N     0.24862   0.05725   0.16695   0.00000  Uiso   1.00
N137   N     0.47765   0.80330   0.57924   0.00000  Uiso   1.00
N138   N     0.96564   0.89650   0.54808   0.00000  Uiso   1.00
C139   C     0.69076   0.85144   0.23226   0.00000  Uiso   1.00
C140   C     0.72830   0.82364   0.15164   0.00000  Uiso   1.00
C141   C     0.81958   0.84477   0.16648   0.00000  Uiso   1.00
C142   C     0.83998   0.81300   0.08313   0.00000  Uiso   1.00
C143   C     0.90867   0.77756   0.97236   0.00000  Uiso   1.00
C144   C     0.62530   0.76057   0.22599   0.00000  Uiso   1.00
C145   C     0.62998   0.72867   0.30335   0.00000  Uiso   1.00
C146   C     0.56367   0.64382   0.28259   0.00000  Uiso   1.00
C147   C     0.47242   0.51049   0.28728   0.00000  Uiso   1.00
C148   C     0.63229   0.90571   0.19961   0.00000  Uiso   1.00
C149   C     0.64282   0.99585   0.25480   0.00000  Uiso   1.00
C150   C     0.58237   0.03319   0.21183   0.00000  Uiso   1.00
C151   C     0.50197   0.12522   0.17557   0.00000  Uiso   1.00
C152   C     0.56468   0.75747   0.05784   0.00000  Uiso   1.00
C153   C     0.65981   0.77260   0.05690   0.00000  Uiso   1.00
C154   C     0.68008   0.74080   0.97350   0.00000  Uiso   1.00
C155   C     0.77137   0.76187   0.98821   0.00000  Uiso   1.00
C156   C     0.55682   0.70953   0.13126   0.00000  Uiso   1.00
C157   C     0.49048   0.62471   0.11037   0.00000  Uiso   1.00
C158   C     0.49506   0.59268   0.18768   0.00000  Uiso   1.00
C159   C     0.56380   0.85467   0.10487   0.00000  Uiso   1.00
C160   C     0.50332   0.89188   0.06182   0.00000  Uiso   1.00
C161   C     0.51376   0.98206   0.11692   0.00000  Uiso   1.00
H162   H     0.74408   0.89118   0.30602   0.00000  Uiso   1.00
H163   H     0.87256   0.88426   0.23981   0.00000  Uiso   1.00
H164   H     0.68298   0.76819   0.37666   0.00000  Uiso   1.00
H165   H     0.69582   0.03532   0.32811   0.00000  Uiso   1.00
H166   H     0.98479   0.85405   0.12463   0.00000  Uiso   1.00
H167   H     0.58504   0.60933   0.41320   0.00000  Uiso   1.00
H168   H     0.61212   0.17264   0.31083   0.00000  Uiso   1.00
H169   H     0.51136   0.71773   0.98407   0.00000  Uiso   1.00
H170   H     0.62707   0.70130   0.90019   0.00000  Uiso   1.00
H171   H     0.43749   0.58523   0.03705   0.00000  Uiso   1.00
H172   H     0.45033   0.85236   0.98850   0.00000  Uiso   1.00
H173   H     0.78555   0.70555   0.84899   0.00000  Uiso   1.00
H174   H     0.38579   0.46083   0.13756   0.00000  Uiso   1.00
H175   H     0.41287   0.02413   0.03518   0.00000  Uiso   1.00
O176   O     0.96548   0.77210   0.93745   0.00000  Uiso   1.00
O177   O     0.44102   0.45104   0.31605   0.00000  Uiso   1.00
O178   O     0.47655   0.19008   0.18173   0.00000  Uiso   1.00
N179   N     0.92202   0.82138   0.07127   0.00000  Uiso   1.00
N180   N     0.54829   0.59257   0.34106   0.00000  Uiso   1.00
N181   N     0.57359   0.11920   0.24536   0.00000  Uiso   1.00
N182   N     0.81481   0.74147   0.92294   0.00000  Uiso   1.00
N183   N     0.44108   0.51266   0.19274   0.00000  Uiso   1.00
N184   N     0.46638   0.03929   0.09704   0.00000  Uiso   1.00
C185   C     0.23208   0.69209   0.84760   0.00000  Uiso   1.00
C186   C     0.15807   0.73153   0.81863   0.00000  Uiso   1.00
C187   C     0.17131   0.82564   0.84162   0.00000  Uiso   1.00
C188   C     0.09487   0.84741   0.80834   0.00000  Uiso   1.00
C189   C     0.99312   0.91928   0.77158   0.00000  Uiso   1.00
C190   C     0.22607   0.62388   0.75067   0.00000  Uiso   1.00
C191   C     0.29649   0.62747   0.71652   0.00000  Uiso   1.00
C192   C     0.27728   0.55862   0.62603   0.00000  Uiso   1.00
C193   C     0.28113   0.46332   0.48379   0.00000  Uiso   1.00
C194   C     0.20291   0.63269   0.90498   0.00000  Uiso   1.00
C195   C     0.25387   0.64366   0.00057   0.00000  Uiso   1.00
C196   C     0.21517   0.58221   0.03999   0.00000  Uiso   1.00
C197   C     0.18306   0.50058   0.13734   0.00000  Uiso   1.00
C198   C     0.07276   0.56342   0.74763   0.00000  Uiso   1.00
C199   C     0.07154   0.66164   0.76433   0.00000  Uiso   1.00
C200   C     0.99505   0.68328   0.73101   0.00000  Uiso   1.00
C201   C     0.00817   0.77740   0.75395   0.00000  Uiso   1.00
C202   C     0.13954   0.55399   0.69637   0.00000  Uiso   1.00
C203   C     0.12023   0.48511   0.60591   0.00000  Uiso   1.00
C204   C     0.19060   0.48860   0.57163   0.00000  Uiso   1.00
C205   C     0.11638   0.56280   0.85068   0.00000  Uiso   1.00
C206   C     0.07760   0.50131   0.88996   0.00000  Uiso   1.00
C207   C     0.12848   0.51219   0.98559   0.00000  Uiso   1.00
H208   H     0.29945   0.74650   0.88987   0.00000  Uiso   1.00
H209   H     0.23829   0.87970   0.88363   0.00000  Uiso   1.00
H210   H     0.36345   0.68156   0.75856   0.00000  Uiso   1.00
H211   H     0.32083   0.69776   0.04257   0.00000  Uiso   1.00
H212   H     0.13233   0.99656   0.85274   0.00000  Uiso   1.00
H213   H     0.39625   0.57875   0.58904   0.00000  Uiso   1.00
H214   H     0.30637   0.61289   0.18792   0.00000  Uiso   1.00
H215   H     0.00539   0.50900   0.70535   0.00000  Uiso   1.00
H216   H     0.92809   0.62918   0.68899   0.00000  Uiso   1.00
H217   H     0.05326   0.43104   0.56392   0.00000  Uiso   1.00
H218   H     0.01063   0.44723   0.84792   0.00000  Uiso   1.00
H219   H     0.88056   0.79322   0.69476   0.00000  Uiso   1.00
H220   H     0.14448   0.37541   0.43105   0.00000  Uiso   1.00
H221   H     0.05460   0.40956   0.02993   0.00000  Uiso   1.00
O222   O     0.96091   0.97823   0.76629   0.00000  Uiso   1.00
O223   O     0.30716   0.43007   0.42033   0.00000  Uiso   1.00
O224   O     0.18925   0.47487   0.20604   0.00000  Uiso   1.00
N225   N     0.08368   0.93221   0.81782   0.00000  Uiso   1.00
N226   N     0.33042   0.54159   0.57127   0.00000  Uiso   1.00
N227   N     0.24641   0.57350   0.13116   0.00000  Uiso   1.00
N228   N     0.94821   0.82280   0.73282   0.00000  Uiso   1.00
N229   N     0.19495   0.43218   0.48626   0.00000  Uiso   1.00
N230   N     0.11094   0.46409   0.04615   0.00000  Uiso   1.00
C231   C     0.85394   0.23283   0.69567   0.00000  Uiso   1.00
C232   C     0.82811   0.15724   0.73717   0.00000  Uiso   1.00
C233   C     0.84967   0.17144   0.83713   0.00000  Uiso   1.00
C234   C     0.81980   0.09323   0.85987   0.00000  Uiso   1.00
C235   C     0.78721   0.98943   0.93567   0.00000  Uiso   1.00
C236   C     0.76498   0.22723   0.62355   0.00000  Uiso   1.00
C237   C     0.73346   0.30028   0.62797   0.00000  Uiso   1.00
C238   C     0.65045   0.28098   0.55506   0.00000  Uiso   1.00
C239   C     0.51988   0.28585   0.45441   0.00000  Uiso   1.00
C240   C     0.90609   0.20154   0.63215   0.00000  Uiso   1.00
C241   C     0.99322   0.25300   0.64378   0.00000  Uiso   1.00
C242   C     0.02901   0.21208   0.57810   0.00000  Uiso   1.00
C243   C     0.11754   0.17706   0.49081   0.00000  Uiso   1.00
C244   C     0.76256   0.06868   0.55833   0.00000  Uiso   1.00
C245   C     0.77847   0.06809   0.66257   0.00000  Uiso   1.00
C246   C     0.74857   0.98983   0.68518   0.00000  Uiso   1.00
C247   C     0.77008   0.00391   0.78514   0.00000  Uiso   1.00
C248   C     0.71534   0.13807   0.54896   0.00000  Uiso   1.00
C249   C     0.63236   0.11866   0.47602   0.00000  Uiso   1.00
C250   C     0.60073   0.19166   0.48033   0.00000  Uiso   1.00
C251   C     0.85646   0.11238   0.55756   0.00000  Uiso   1.00
C252   C     0.89212   0.07138   0.49184   0.00000  Uiso   1.00
C253   C     0.97929   0.12276   0.50336   0.00000  Uiso   1.00
H254   H     0.89257   0.30225   0.75374   0.00000  Uiso   1.00
H255   H     0.88807   0.24046   0.89483   0.00000  Uiso   1.00
H256   H     0.77189   0.36927   0.68570   0.00000  Uiso   1.00
H257   H     0.03161   0.32199   0.70152   0.00000  Uiso   1.00
H258   H     0.86117   0.13263   0.01836   0.00000  Uiso   1.00
H259   H     0.61621   0.40425   0.57737   0.00000  Uiso   1.00
H260   H     0.16387   0.30455   0.61072   0.00000  Uiso   1.00
H261   H     0.72391   0.99927   0.50025   0.00000  Uiso   1.00
H262   H     0.71016   0.92084   0.62743   0.00000  Uiso   1.00
H263   H     0.59397   0.04966   0.41830   0.00000  Uiso   1.00
H264   H     0.85369   0.00238   0.43412   0.00000  Uiso   1.00
H265   H     0.71676   0.87322   0.80133   0.00000  Uiso   1.00
H266   H     0.47180   0.14485   0.36034   0.00000  Uiso   1.00
H267   H     0.01946   0.04515   0.39369   0.00000  Uiso   1.00
O268   O     0.78293   0.95681   0.99808   0.00000  Uiso   1.00
O269   O     0.46157   0.31317   0.41952   0.00000  Uiso   1.00
O270   O     0.18009   0.18237   0.46328   0.00000  Uiso   1.00
N271   N     0.82908   0.08234   0.94983   0.00000  Uiso   1.00
N272   N     0.60005   0.33628   0.53754   0.00000  Uiso   1.00
N273   N     0.11206   0.24309   0.56870   0.00000  Uiso   1.00
N274   N     0.75138   0.94275   0.83305   0.00000  Uiso   1.00
N275   N     0.52235   0.19670   0.42076   0.00000  Uiso   1.00
N276   N     0.03436   0.10350   0.45192   0.00000  Uiso   1.00
