data_job_03447
_audit_creation_date              2018-12-19
_audit_creation_method            'Materials Studio'
_symmetry_space_group_name_H-M    'P1'
_symmetry_Int_Tables_number       1
_symmetry_cell_setting            triclinic
loop_
_symmetry_equiv_pos_as_xyz
  x,y,z
_cell_length_a                    12.7064
_cell_length_b                    12.7064
_cell_length_c                    30.3300
_cell_angle_alpha                 90.0000
_cell_angle_beta                  90.0000
_cell_angle_gamma                 120.0000
loop_
_atom_site_label
_atom_site_type_symbol
_atom_site_fract_x
_atom_site_fract_y
_atom_site_fract_z
_atom_site_U_iso_or_equiv
_atom_site_adp_type
_atom_site_occupancy
C1     C     0.46637   0.78334   0.78514   0.00000  Uiso   1.00
C2     C     0.50451   0.75995   0.83009   0.00000  Uiso   1.00
C3     C     0.45872   0.76956   0.87049   0.00000  Uiso   1.00
C4     C     0.50544   0.74440   0.90784   0.00000  Uiso   1.00
C5     C     0.55112   0.71324   0.97808   0.00000  Uiso   1.00
C6     C     0.58251   0.88035   0.76309   0.00000  Uiso   1.00
C7     C     0.60229   0.99118   0.74716   0.00000  Uiso   1.00
C8     C     0.71467   0.06736   0.72810   0.00000  Uiso   1.00
C9     C     0.88141   0.22309   0.69430   0.00000  Uiso   1.00
C10    C     0.42476   0.66740   0.75848   0.00000  Uiso   1.00
C11    C     0.31191   0.59920   0.73865   0.00000  Uiso   1.00
C12    C     0.29148   0.49611   0.71569   0.00000  Uiso   1.00
C13    C     0.21329   0.32120   0.67473   0.00000  Uiso   1.00
C14    C     0.63076   0.72155   0.77963   0.00000  Uiso   1.00
C15    C     0.59380   0.72639   0.82709   0.00000  Uiso   1.00
C16    C     0.64060   0.70120   0.86439   0.00000  Uiso   1.00
C17    C     0.59489   0.71077   0.90484   0.00000  Uiso   1.00
C18    C     0.67180   0.84679   0.76010   0.00000  Uiso   1.00
C19    C     0.78417   0.92282   0.74106   0.00000  Uiso   1.00
C20    C     0.80412   0.03374   0.72510   0.00000  Uiso   1.00
C21    C     0.51405   0.63383   0.75548   0.00000  Uiso   1.00
C22    C     0.49379   0.53083   0.73255   0.00000  Uiso   1.00
C23    C     0.38094   0.46249   0.71269   0.00000  Uiso   1.00
H24    H     0.39686   0.80947   0.78747   0.00000  Uiso   1.00
H25    H     0.38963   0.79555   0.87279   0.00000  Uiso   1.00
H26    H     0.53317   0.01712   0.74948   0.00000  Uiso   1.00
H27    H     0.24283   0.62520   0.74097   0.00000  Uiso   1.00
H28    H     0.42102   0.76535   0.96606   0.00000  Uiso   1.00
H29    H     0.72367   0.23254   0.70603   0.00000  Uiso   1.00
H30    H     0.11144   0.40609   0.68809   0.00000  Uiso   1.00
H31    H     0.70028   0.69542   0.77730   0.00000  Uiso   1.00
H32    H     0.70970   0.67523   0.86206   0.00000  Uiso   1.00
H33    H     0.85325   0.89681   0.73875   0.00000  Uiso   1.00
H34    H     0.56291   0.50489   0.73024   0.00000  Uiso   1.00
H35    H     0.68081   0.66770   0.95735   0.00000  Uiso   1.00
H36    H     0.98346   0.13489   0.69732   0.00000  Uiso   1.00
H37    H     0.37123   0.30844   0.67939   0.00000  Uiso   1.00
O38    O     0.55167   0.70534   0.01765   0.00000  Uiso   1.00
O39    O     0.94872   0.31826   0.67649   0.00000  Uiso   1.00
O40    O     0.14549   0.23398   0.65296   0.00000  Uiso   1.00
N41    N     0.48085   0.74511   0.95238   0.00000  Uiso   1.00
N42    N     0.76382   0.18192   0.70927   0.00000  Uiso   1.00
N43    N     0.19145   0.40927   0.69249   0.00000  Uiso   1.00
N44    N     0.62064   0.69257   0.94769   0.00000  Uiso   1.00
N45    N     0.90361   0.12937   0.70459   0.00000  Uiso   1.00
N46    N     0.33124   0.35673   0.68781   0.00000  Uiso   1.00
C47    C     0.21666   0.68303   0.45181   0.00000  Uiso   1.00
C48    C     0.24005   0.74456   0.49676   0.00000  Uiso   1.00
C49    C     0.23044   0.68916   0.53715   0.00000  Uiso   1.00
C50    C     0.25560   0.76104   0.57450   0.00000  Uiso   1.00
C51    C     0.28676   0.83788   0.64475   0.00000  Uiso   1.00
C52    C     0.11965   0.70216   0.42976   0.00000  Uiso   1.00
C53    C     0.00882   0.61111   0.41382   0.00000  Uiso   1.00
C54    C     0.93264   0.64731   0.39477   0.00000  Uiso   1.00
C55    C     0.77691   0.65833   0.36097   0.00000  Uiso   1.00
C56    C     0.33260   0.75736   0.42514   0.00000  Uiso   1.00
C57    C     0.40080   0.71271   0.40531   0.00000  Uiso   1.00
C58    C     0.50389   0.79537   0.38236   0.00000  Uiso   1.00
C59    C     0.67880   0.89209   0.34139   0.00000  Uiso   1.00
C60    C     0.27845   0.90921   0.44630   0.00000  Uiso   1.00
C61    C     0.27361   0.86741   0.49376   0.00000  Uiso   1.00
C62    C     0.29880   0.93940   0.53106   0.00000  Uiso   1.00
C63    C     0.28923   0.88412   0.57150   0.00000  Uiso   1.00
C64    C     0.15321   0.82501   0.42676   0.00000  Uiso   1.00
C65    C     0.07718   0.86135   0.40773   0.00000  Uiso   1.00
C66    C     0.96626   0.77038   0.39177   0.00000  Uiso   1.00
C67    C     0.36617   0.88021   0.42215   0.00000  Uiso   1.00
C68    C     0.46917   0.96296   0.39922   0.00000  Uiso   1.00
C69    C     0.53751   0.91845   0.37936   0.00000  Uiso   1.00
H70    H     0.19053   0.58738   0.45414   0.00000  Uiso   1.00
H71    H     0.20445   0.59408   0.53946   0.00000  Uiso   1.00
H72    H     0.98288   0.51605   0.41614   0.00000  Uiso   1.00
H73    H     0.37480   0.61764   0.40764   0.00000  Uiso   1.00
H74    H     0.23465   0.65567   0.63273   0.00000  Uiso   1.00
H75    H     0.76746   0.49114   0.37270   0.00000  Uiso   1.00
H76    H     0.59391   0.70535   0.35476   0.00000  Uiso   1.00
H77    H     0.30458   0.00486   0.44397   0.00000  Uiso   1.00
H78    H     0.32477   0.03447   0.52873   0.00000  Uiso   1.00
H79    H     0.10319   0.95643   0.40541   0.00000  Uiso   1.00
H80    H     0.49511   0.05802   0.39691   0.00000  Uiso   1.00
H81    H     0.33230   0.01311   0.62402   0.00000  Uiso   1.00
H82    H     0.86511   0.84857   0.36399   0.00000  Uiso   1.00
H83    H     0.69156   0.06279   0.34605   0.00000  Uiso   1.00
O84    O     0.29466   0.84633   0.68432   0.00000  Uiso   1.00
O85    O     0.68174   0.63046   0.34316   0.00000  Uiso   1.00
O86    O     0.76602   0.91151   0.31963   0.00000  Uiso   1.00
N87    N     0.25489   0.73574   0.61905   0.00000  Uiso   1.00
N88    N     0.81808   0.58190   0.37594   0.00000  Uiso   1.00
N89    N     0.59073   0.78217   0.35916   0.00000  Uiso   1.00
N90    N     0.30743   0.92807   0.61436   0.00000  Uiso   1.00
N91    N     0.87063   0.77424   0.37125   0.00000  Uiso   1.00
N92    N     0.64327   0.97451   0.35447   0.00000  Uiso   1.00
C93    C     0.31697   0.53363   0.11848   0.00000  Uiso   1.00
C94    C     0.25544   0.49549   0.16342   0.00000  Uiso   1.00
C95    C     0.31084   0.54128   0.20382   0.00000  Uiso   1.00
C96    C     0.23896   0.49456   0.24117   0.00000  Uiso   1.00
C97    C     0.16212   0.44888   0.31141   0.00000  Uiso   1.00
C98    C     0.29784   0.41749   0.09643   0.00000  Uiso   1.00
C99    C     0.38889   0.39771   0.08049   0.00000  Uiso   1.00
C100   C     0.35269   0.28533   0.06144   0.00000  Uiso   1.00
C101   C     0.34167   0.11859   0.02764   0.00000  Uiso   1.00
C102   C     0.24264   0.57524   0.09181   0.00000  Uiso   1.00
C103   C     0.28729   0.68809   0.07198   0.00000  Uiso   1.00
C104   C     0.20463   0.70852   0.04903   0.00000  Uiso   1.00
C105   C     0.10791   0.78671   0.00806   0.00000  Uiso   1.00
C106   C     0.09079   0.36924   0.11296   0.00000  Uiso   1.00
C107   C     0.13259   0.40620   0.16043   0.00000  Uiso   1.00
C108   C     0.06060   0.35940   0.19772   0.00000  Uiso   1.00
C109   C     0.11588   0.40511   0.23817   0.00000  Uiso   1.00
C110   C     0.17499   0.32820   0.09343   0.00000  Uiso   1.00
C111   C     0.13865   0.21583   0.07439   0.00000  Uiso   1.00
C112   C     0.22962   0.19588   0.05844   0.00000  Uiso   1.00
C113   C     0.11979   0.48595   0.08881   0.00000  Uiso   1.00
C114   C     0.03704   0.50621   0.06588   0.00000  Uiso   1.00
C115   C     0.08155   0.61906   0.04603   0.00000  Uiso   1.00
H116   H     0.41262   0.60314   0.12081   0.00000  Uiso   1.00
H117   H     0.40592   0.61037   0.20612   0.00000  Uiso   1.00
H118   H     0.48395   0.46683   0.08281   0.00000  Uiso   1.00
H119   H     0.38236   0.75717   0.07430   0.00000  Uiso   1.00
H120   H     0.34433   0.57898   0.29940   0.00000  Uiso   1.00
H121   H     0.50886   0.27633   0.03936   0.00000  Uiso   1.00
H122   H     0.29465   0.88856   0.02143   0.00000  Uiso   1.00
H123   H     0.99514   0.29972   0.11063   0.00000  Uiso   1.00
H124   H     0.96553   0.29030   0.19540   0.00000  Uiso   1.00
H125   H     0.04357   0.14675   0.07208   0.00000  Uiso   1.00
H126   H     0.94198   0.43709   0.06357   0.00000  Uiso   1.00
H127   H     0.98689   0.31919   0.29069   0.00000  Uiso   1.00
H128   H     0.15143   0.01654   0.03065   0.00000  Uiso   1.00
H129   H     0.93721   0.62877   0.01272   0.00000  Uiso   1.00
O130   O     0.15367   0.44833   0.35098   0.00000  Uiso   1.00
O131   O     0.36954   0.05128   0.00983   0.00000  Uiso   1.00
O132   O     0.08849   0.85451   0.98630   0.00000  Uiso   1.00
N133   N     0.26426   0.51915   0.28571   0.00000  Uiso   1.00
N134   N     0.41810   0.23618   0.04261   0.00000  Uiso   1.00
N135   N     0.21783   0.80855   0.02583   0.00000  Uiso   1.00
N136   N     0.07193   0.37936   0.28103   0.00000  Uiso   1.00
N137   N     0.22576   0.09639   0.03792   0.00000  Uiso   1.00
N138   N     0.02549   0.66876   0.02114   0.00000  Uiso   1.00
C139   C     0.78334   0.46637   0.21486   0.00000  Uiso   1.00
C140   C     0.75995   0.50451   0.16991   0.00000  Uiso   1.00
C141   C     0.76956   0.45872   0.12951   0.00000  Uiso   1.00
C142   C     0.74440   0.50544   0.09216   0.00000  Uiso   1.00
C143   C     0.71324   0.55112   0.02192   0.00000  Uiso   1.00
C144   C     0.88035   0.58251   0.23691   0.00000  Uiso   1.00
C145   C     0.99118   0.60229   0.25284   0.00000  Uiso   1.00
C146   C     0.06736   0.71467   0.27190   0.00000  Uiso   1.00
C147   C     0.22309   0.88141   0.30570   0.00000  Uiso   1.00
C148   C     0.66740   0.42476   0.24152   0.00000  Uiso   1.00
C149   C     0.59920   0.31191   0.26135   0.00000  Uiso   1.00
C150   C     0.49611   0.29148   0.28431   0.00000  Uiso   1.00
C151   C     0.32120   0.21329   0.32527   0.00000  Uiso   1.00
C152   C     0.72155   0.63076   0.22037   0.00000  Uiso   1.00
C153   C     0.72639   0.59380   0.17291   0.00000  Uiso   1.00
C154   C     0.70120   0.64060   0.13561   0.00000  Uiso   1.00
C155   C     0.71077   0.59489   0.09516   0.00000  Uiso   1.00
C156   C     0.84679   0.67180   0.23990   0.00000  Uiso   1.00
C157   C     0.92282   0.78417   0.25894   0.00000  Uiso   1.00
C158   C     0.03374   0.80412   0.27490   0.00000  Uiso   1.00
C159   C     0.63383   0.51405   0.24452   0.00000  Uiso   1.00
C160   C     0.53083   0.49379   0.26745   0.00000  Uiso   1.00
C161   C     0.46249   0.38094   0.28731   0.00000  Uiso   1.00
H162   H     0.80947   0.39686   0.21253   0.00000  Uiso   1.00
H163   H     0.79555   0.38963   0.12721   0.00000  Uiso   1.00
H164   H     0.01712   0.53317   0.25052   0.00000  Uiso   1.00
H165   H     0.62520   0.24283   0.25903   0.00000  Uiso   1.00
H166   H     0.76535   0.42102   0.03394   0.00000  Uiso   1.00
H167   H     0.23254   0.72367   0.29397   0.00000  Uiso   1.00
H168   H     0.40609   0.11144   0.31191   0.00000  Uiso   1.00
H169   H     0.69542   0.70028   0.22270   0.00000  Uiso   1.00
H170   H     0.67523   0.70970   0.13794   0.00000  Uiso   1.00
H171   H     0.89681   0.85325   0.26125   0.00000  Uiso   1.00
H172   H     0.50489   0.56291   0.26976   0.00000  Uiso   1.00
H173   H     0.66770   0.68081   0.04265   0.00000  Uiso   1.00
H174   H     0.13489   0.98346   0.30268   0.00000  Uiso   1.00
H175   H     0.30844   0.37123   0.32061   0.00000  Uiso   1.00
O176   O     0.70534   0.55167   0.98235   0.00000  Uiso   1.00
O177   O     0.31826   0.94872   0.32351   0.00000  Uiso   1.00
O178   O     0.23398   0.14549   0.34704   0.00000  Uiso   1.00
N179   N     0.74511   0.48085   0.04762   0.00000  Uiso   1.00
N180   N     0.18192   0.76382   0.29073   0.00000  Uiso   1.00
N181   N     0.40927   0.19145   0.30751   0.00000  Uiso   1.00
N182   N     0.69257   0.62064   0.05231   0.00000  Uiso   1.00
N183   N     0.12937   0.90361   0.29541   0.00000  Uiso   1.00
N184   N     0.35673   0.33124   0.31219   0.00000  Uiso   1.00
C185   C     0.68303   0.21666   0.54819   0.00000  Uiso   1.00
C186   C     0.74456   0.24005   0.50324   0.00000  Uiso   1.00
C187   C     0.68916   0.23044   0.46285   0.00000  Uiso   1.00
C188   C     0.76104   0.25560   0.42550   0.00000  Uiso   1.00
C189   C     0.83788   0.28676   0.35525   0.00000  Uiso   1.00
C190   C     0.70216   0.11965   0.57024   0.00000  Uiso   1.00
C191   C     0.61111   0.00882   0.58618   0.00000  Uiso   1.00
C192   C     0.64731   0.93264   0.60523   0.00000  Uiso   1.00
C193   C     0.65833   0.77691   0.63903   0.00000  Uiso   1.00
C194   C     0.75736   0.33260   0.57486   0.00000  Uiso   1.00
C195   C     0.71271   0.40080   0.59469   0.00000  Uiso   1.00
C196   C     0.79537   0.50389   0.61764   0.00000  Uiso   1.00
C197   C     0.89209   0.67880   0.65861   0.00000  Uiso   1.00
C198   C     0.90921   0.27845   0.55370   0.00000  Uiso   1.00
C199   C     0.86741   0.27361   0.50624   0.00000  Uiso   1.00
C200   C     0.93940   0.29880   0.46894   0.00000  Uiso   1.00
C201   C     0.88412   0.28923   0.42850   0.00000  Uiso   1.00
C202   C     0.82501   0.15321   0.57324   0.00000  Uiso   1.00
C203   C     0.86135   0.07718   0.59227   0.00000  Uiso   1.00
C204   C     0.77038   0.96626   0.60823   0.00000  Uiso   1.00
C205   C     0.88021   0.36617   0.57785   0.00000  Uiso   1.00
C206   C     0.96296   0.46917   0.60078   0.00000  Uiso   1.00
C207   C     0.91845   0.53751   0.62064   0.00000  Uiso   1.00
H208   H     0.58738   0.19053   0.54586   0.00000  Uiso   1.00
H209   H     0.59408   0.20445   0.46054   0.00000  Uiso   1.00
H210   H     0.51605   0.98288   0.58386   0.00000  Uiso   1.00
H211   H     0.61764   0.37480   0.59236   0.00000  Uiso   1.00
H212   H     0.65567   0.23465   0.36727   0.00000  Uiso   1.00
H213   H     0.49114   0.76746   0.62730   0.00000  Uiso   1.00
H214   H     0.70535   0.59391   0.64524   0.00000  Uiso   1.00
H215   H     0.00486   0.30458   0.55603   0.00000  Uiso   1.00
H216   H     0.03447   0.32477   0.47127   0.00000  Uiso   1.00
H217   H     0.95643   0.10319   0.59459   0.00000  Uiso   1.00
H218   H     0.05802   0.49511   0.60309   0.00000  Uiso   1.00
H219   H     0.01311   0.33230   0.37598   0.00000  Uiso   1.00
H220   H     0.84857   0.86511   0.63601   0.00000  Uiso   1.00
H221   H     0.06279   0.69156   0.65395   0.00000  Uiso   1.00
O222   O     0.84633   0.29466   0.31568   0.00000  Uiso   1.00
O223   O     0.63046   0.68174   0.65684   0.00000  Uiso   1.00
O224   O     0.91151   0.76602   0.68037   0.00000  Uiso   1.00
N225   N     0.73574   0.25489   0.38095   0.00000  Uiso   1.00
N226   N     0.58190   0.81808   0.62406   0.00000  Uiso   1.00
N227   N     0.78217   0.59073   0.64084   0.00000  Uiso   1.00
N228   N     0.92807   0.30743   0.38564   0.00000  Uiso   1.00
N229   N     0.77424   0.87063   0.62875   0.00000  Uiso   1.00
N230   N     0.97451   0.64327   0.64553   0.00000  Uiso   1.00
C231   C     0.53363   0.31697   0.88152   0.00000  Uiso   1.00
C232   C     0.49549   0.25544   0.83658   0.00000  Uiso   1.00
C233   C     0.54128   0.31084   0.79618   0.00000  Uiso   1.00
C234   C     0.49456   0.23896   0.75883   0.00000  Uiso   1.00
C235   C     0.44888   0.16212   0.68859   0.00000  Uiso   1.00
C236   C     0.41749   0.29784   0.90357   0.00000  Uiso   1.00
C237   C     0.39771   0.38889   0.91951   0.00000  Uiso   1.00
C238   C     0.28533   0.35269   0.93856   0.00000  Uiso   1.00
C239   C     0.11859   0.34167   0.97236   0.00000  Uiso   1.00
C240   C     0.57524   0.24264   0.90819   0.00000  Uiso   1.00
C241   C     0.68809   0.28729   0.92802   0.00000  Uiso   1.00
C242   C     0.70852   0.20463   0.95097   0.00000  Uiso   1.00
C243   C     0.78671   0.10791   0.99194   0.00000  Uiso   1.00
C244   C     0.36924   0.09079   0.88704   0.00000  Uiso   1.00
C245   C     0.40620   0.13259   0.83957   0.00000  Uiso   1.00
C246   C     0.35940   0.06060   0.80228   0.00000  Uiso   1.00
C247   C     0.40511   0.11588   0.76183   0.00000  Uiso   1.00
C248   C     0.32820   0.17499   0.90657   0.00000  Uiso   1.00
C249   C     0.21583   0.13865   0.92561   0.00000  Uiso   1.00
C250   C     0.19588   0.22962   0.94156   0.00000  Uiso   1.00
C251   C     0.48595   0.11979   0.91119   0.00000  Uiso   1.00
C252   C     0.50621   0.03704   0.93412   0.00000  Uiso   1.00
C253   C     0.61906   0.08155   0.95397   0.00000  Uiso   1.00
H254   H     0.60314   0.41262   0.87919   0.00000  Uiso   1.00
H255   H     0.61037   0.40592   0.79388   0.00000  Uiso   1.00
H256   H     0.46683   0.48395   0.91719   0.00000  Uiso   1.00
H257   H     0.75717   0.38236   0.92570   0.00000  Uiso   1.00
H258   H     0.57898   0.34433   0.70060   0.00000  Uiso   1.00
H259   H     0.27633   0.50886   0.96064   0.00000  Uiso   1.00
H260   H     0.88856   0.29465   0.97857   0.00000  Uiso   1.00
H261   H     0.29972   0.99514   0.88937   0.00000  Uiso   1.00
H262   H     0.29030   0.96553   0.80460   0.00000  Uiso   1.00
H263   H     0.14675   0.04357   0.92792   0.00000  Uiso   1.00
H264   H     0.43709   0.94198   0.93643   0.00000  Uiso   1.00
H265   H     0.31919   0.98689   0.70931   0.00000  Uiso   1.00
H266   H     0.01654   0.15143   0.96935   0.00000  Uiso   1.00
H267   H     0.62877   0.93721   0.98728   0.00000  Uiso   1.00
O268   O     0.44833   0.15367   0.64902   0.00000  Uiso   1.00
O269   O     0.05128   0.36954   0.99017   0.00000  Uiso   1.00
O270   O     0.85451   0.08849   0.01370   0.00000  Uiso   1.00
N271   N     0.51915   0.26426   0.71429   0.00000  Uiso   1.00
N272   N     0.23618   0.41810   0.95739   0.00000  Uiso   1.00
N273   N     0.80855   0.21783   0.97417   0.00000  Uiso   1.00
N274   N     0.37936   0.07193   0.71897   0.00000  Uiso   1.00
N275   N     0.09639   0.22576   0.96208   0.00000  Uiso   1.00
N276   N     0.66876   0.02549   0.97886   0.00000  Uiso   1.00
