data_job_01972
_audit_creation_date              2018-12-19
_audit_creation_method            'Materials Studio'
_symmetry_space_group_name_H-M    'P1'
_symmetry_Int_Tables_number       1
_symmetry_cell_setting            triclinic
loop_
_symmetry_equiv_pos_as_xyz
  x,y,z
_cell_length_a                    12.8647
_cell_length_b                    13.3722
_cell_length_c                    16.4370
_cell_angle_alpha                 90.0000
_cell_angle_beta                  119.3440
_cell_angle_gamma                 90.0000
loop_
_atom_site_label
_atom_site_type_symbol
_atom_site_fract_x
_atom_site_fract_y
_atom_site_fract_z
_atom_site_U_iso_or_equiv
_atom_site_adp_type
_atom_site_occupancy
C1     C     0.82463   0.50783   0.19199   0.00000  Uiso   1.00
C2     C     0.72274   0.56899   0.18896   0.00000  Uiso   1.00
C3     C     0.62143   0.53042   0.18705   0.00000  Uiso   1.00
C4     C     0.53857   0.59878   0.18435   0.00000  Uiso   1.00
C5     C     0.37761   0.67806   0.17970   0.00000  Uiso   1.00
C6     C     0.83613   0.54124   0.10805   0.00000  Uiso   1.00
C7     C     0.83017   0.47932   0.03813   0.00000  Uiso   1.00
C8     C     0.84279   0.52433   0.96733   0.00000  Uiso   1.00
C9     C     0.85796   0.56051   0.83711   0.00000  Uiso   1.00
C10    C     0.93764   0.54347   0.27801   0.00000  Uiso   1.00
C11    C     0.01704   0.48342   0.35099   0.00000  Uiso   1.00
C12    C     0.11514   0.53030   0.42328   0.00000  Uiso   1.00
C13    C     0.28791   0.56993   0.55695   0.00000  Uiso   1.00
C14    C     0.85766   0.69785   0.19061   0.00000  Uiso   1.00
C15    C     0.74068   0.67221   0.18820   0.00000  Uiso   1.00
C16    C     0.65797   0.74066   0.18552   0.00000  Uiso   1.00
C17    C     0.55655   0.70219   0.18360   0.00000  Uiso   1.00
C18    C     0.85407   0.64445   0.10730   0.00000  Uiso   1.00
C19    C     0.86671   0.68956   0.03660   0.00000  Uiso   1.00
C20    C     0.86076   0.62773   0.96658   0.00000  Uiso   1.00
C21    C     0.95558   0.64668   0.27727   0.00000  Uiso   1.00
C22    C     0.05358   0.69366   0.34946   0.00000  Uiso   1.00
C23    C     0.13311   0.63370   0.42253   0.00000  Uiso   1.00
H24    H     0.81066   0.42747   0.19257   0.00000  Uiso   1.00
H25    H     0.60757   0.45053   0.18762   0.00000  Uiso   1.00
H26    H     0.81630   0.39945   0.03873   0.00000  Uiso   1.00
H27    H     0.00313   0.40355   0.35154   0.00000  Uiso   1.00
H28    H     0.39029   0.52162   0.18176   0.00000  Uiso   1.00
H29    H     0.83044   0.41390   0.86784   0.00000  Uiso   1.00
H30    H     0.22443   0.42254   0.52746   0.00000  Uiso   1.00
H31    H     0.87163   0.77821   0.19003   0.00000  Uiso   1.00
H32    H     0.67188   0.82053   0.18494   0.00000  Uiso   1.00
H33    H     0.88060   0.76944   0.03604   0.00000  Uiso   1.00
H34    H     0.06743   0.77354   0.34885   0.00000  Uiso   1.00
H35    H     0.44248   0.82192   0.17958   0.00000  Uiso   1.00
H36    H     0.88264   0.71420   0.86565   0.00000  Uiso   1.00
H37    H     0.27662   0.72284   0.52528   0.00000  Uiso   1.00
O38    O     0.28387   0.69327   0.17733   0.00000  Uiso   1.00
O39    O     0.86135   0.55195   0.76549   0.00000  Uiso   1.00
O40    O     0.37824   0.56329   0.63090   0.00000  Uiso   1.00
N41    N     0.43000   0.58649   0.18196   0.00000  Uiso   1.00
N42    N     0.84150   0.48578   0.88845   0.00000  Uiso   1.00
N43    N     0.20986   0.49385   0.50514   0.00000  Uiso   1.00
N44    N     0.45809   0.74808   0.18079   0.00000  Uiso   1.00
N45    N     0.86958   0.64737   0.88728   0.00000  Uiso   1.00
N46    N     0.23794   0.65544   0.50396   0.00000  Uiso   1.00
C47    C     0.17537   0.00783   0.30801   0.00000  Uiso   1.00
C48    C     0.27726   0.06899   0.31104   0.00000  Uiso   1.00
C49    C     0.37857   0.03042   0.31295   0.00000  Uiso   1.00
C50    C     0.46143   0.09878   0.31565   0.00000  Uiso   1.00
C51    C     0.62239   0.17806   0.32030   0.00000  Uiso   1.00
C52    C     0.16387   0.04124   0.39195   0.00000  Uiso   1.00
C53    C     0.16983   0.97932   0.46187   0.00000  Uiso   1.00
C54    C     0.15721   0.02433   0.53267   0.00000  Uiso   1.00
C55    C     0.14204   0.06051   0.66289   0.00000  Uiso   1.00
C56    C     0.06236   0.04347   0.22199   0.00000  Uiso   1.00
C57    C     0.98296   0.98342   0.14901   0.00000  Uiso   1.00
C58    C     0.88486   0.03030   0.07672   0.00000  Uiso   1.00
C59    C     0.71209   0.06993   0.94305   0.00000  Uiso   1.00
C60    C     0.14234   0.19785   0.30939   0.00000  Uiso   1.00
C61    C     0.25932   0.17221   0.31180   0.00000  Uiso   1.00
C62    C     0.34203   0.24066   0.31448   0.00000  Uiso   1.00
C63    C     0.44345   0.20219   0.31640   0.00000  Uiso   1.00
C64    C     0.14593   0.14445   0.39270   0.00000  Uiso   1.00
C65    C     0.13329   0.18956   0.46340   0.00000  Uiso   1.00
C66    C     0.13924   0.12773   0.53342   0.00000  Uiso   1.00
C67    C     0.04442   0.14668   0.22273   0.00000  Uiso   1.00
C68    C     0.94642   0.19366   0.15054   0.00000  Uiso   1.00
C69    C     0.86689   0.13370   0.07747   0.00000  Uiso   1.00
H70    H     0.18934   0.92747   0.30743   0.00000  Uiso   1.00
H71    H     0.39243   0.95053   0.31238   0.00000  Uiso   1.00
H72    H     0.18370   0.89945   0.46127   0.00000  Uiso   1.00
H73    H     0.99687   0.90355   0.14846   0.00000  Uiso   1.00
H74    H     0.60971   0.02162   0.31824   0.00000  Uiso   1.00
H75    H     0.16956   0.91390   0.63216   0.00000  Uiso   1.00
H76    H     0.77557   0.92254   0.97254   0.00000  Uiso   1.00
H77    H     0.12837   0.27821   0.30997   0.00000  Uiso   1.00
H78    H     0.32812   0.32053   0.31506   0.00000  Uiso   1.00
H79    H     0.11940   0.26944   0.46396   0.00000  Uiso   1.00
H80    H     0.93257   0.27354   0.15115   0.00000  Uiso   1.00
H81    H     0.55752   0.32192   0.32042   0.00000  Uiso   1.00
H82    H     0.11736   0.21420   0.63435   0.00000  Uiso   1.00
H83    H     0.72338   0.22284   0.97472   0.00000  Uiso   1.00
O84    O     0.71613   0.19327   0.32267   0.00000  Uiso   1.00
O85    O     0.13865   0.05195   0.73451   0.00000  Uiso   1.00
O86    O     0.62176   0.06329   0.86910   0.00000  Uiso   1.00
N87    N     0.57000   0.08649   0.31804   0.00000  Uiso   1.00
N88    N     0.15850   0.98578   0.61155   0.00000  Uiso   1.00
N89    N     0.79014   0.99385   0.99486   0.00000  Uiso   1.00
N90    N     0.54191   0.24808   0.31921   0.00000  Uiso   1.00
N91    N     0.13042   0.14737   0.61272   0.00000  Uiso   1.00
N92    N     0.76206   0.15544   0.99604   0.00000  Uiso   1.00
C93    C     0.17537   0.49217   0.80801   0.00000  Uiso   1.00
C94    C     0.27726   0.43101   0.81104   0.00000  Uiso   1.00
C95    C     0.37857   0.46958   0.81295   0.00000  Uiso   1.00
C96    C     0.46143   0.40122   0.81565   0.00000  Uiso   1.00
C97    C     0.62239   0.32194   0.82030   0.00000  Uiso   1.00
C98    C     0.16387   0.45876   0.89195   0.00000  Uiso   1.00
C99    C     0.16983   0.52068   0.96187   0.00000  Uiso   1.00
C100   C     0.15721   0.47567   0.03267   0.00000  Uiso   1.00
C101   C     0.14204   0.43949   0.16289   0.00000  Uiso   1.00
C102   C     0.06236   0.45653   0.72199   0.00000  Uiso   1.00
C103   C     0.98296   0.51658   0.64901   0.00000  Uiso   1.00
C104   C     0.88486   0.46970   0.57672   0.00000  Uiso   1.00
C105   C     0.71209   0.43007   0.44305   0.00000  Uiso   1.00
C106   C     0.14234   0.30215   0.80939   0.00000  Uiso   1.00
C107   C     0.25932   0.32779   0.81180   0.00000  Uiso   1.00
C108   C     0.34203   0.25934   0.81448   0.00000  Uiso   1.00
C109   C     0.44345   0.29781   0.81640   0.00000  Uiso   1.00
C110   C     0.14593   0.35555   0.89270   0.00000  Uiso   1.00
C111   C     0.13329   0.31044   0.96340   0.00000  Uiso   1.00
C112   C     0.13924   0.37227   0.03342   0.00000  Uiso   1.00
C113   C     0.04442   0.35332   0.72273   0.00000  Uiso   1.00
C114   C     0.94642   0.30634   0.65054   0.00000  Uiso   1.00
C115   C     0.86689   0.36630   0.57747   0.00000  Uiso   1.00
H116   H     0.18934   0.57253   0.80743   0.00000  Uiso   1.00
H117   H     0.39243   0.54947   0.81238   0.00000  Uiso   1.00
H118   H     0.18370   0.60055   0.96127   0.00000  Uiso   1.00
H119   H     0.99687   0.59645   0.64846   0.00000  Uiso   1.00
H120   H     0.60971   0.47838   0.81824   0.00000  Uiso   1.00
H121   H     0.16956   0.58610   0.13216   0.00000  Uiso   1.00
H122   H     0.77557   0.57746   0.47254   0.00000  Uiso   1.00
H123   H     0.12837   0.22179   0.80997   0.00000  Uiso   1.00
H124   H     0.32812   0.17947   0.81506   0.00000  Uiso   1.00
H125   H     0.11940   0.23056   0.96396   0.00000  Uiso   1.00
H126   H     0.93257   0.22646   0.65115   0.00000  Uiso   1.00
H127   H     0.55752   0.17808   0.82042   0.00000  Uiso   1.00
H128   H     0.11736   0.28580   0.13435   0.00000  Uiso   1.00
H129   H     0.72338   0.27716   0.47472   0.00000  Uiso   1.00
O130   O     0.71613   0.30673   0.82267   0.00000  Uiso   1.00
O131   O     0.13865   0.44805   0.23451   0.00000  Uiso   1.00
O132   O     0.62176   0.43671   0.36910   0.00000  Uiso   1.00
N133   N     0.57000   0.41351   0.81804   0.00000  Uiso   1.00
N134   N     0.15850   0.51422   0.11155   0.00000  Uiso   1.00
N135   N     0.79014   0.50615   0.49486   0.00000  Uiso   1.00
N136   N     0.54191   0.25192   0.81921   0.00000  Uiso   1.00
N137   N     0.13042   0.35263   0.11272   0.00000  Uiso   1.00
N138   N     0.76206   0.34456   0.49604   0.00000  Uiso   1.00
C139   C     0.82463   0.99217   0.69199   0.00000  Uiso   1.00
C140   C     0.72274   0.93101   0.68896   0.00000  Uiso   1.00
C141   C     0.62143   0.96958   0.68705   0.00000  Uiso   1.00
C142   C     0.53857   0.90122   0.68435   0.00000  Uiso   1.00
C143   C     0.37761   0.82194   0.67970   0.00000  Uiso   1.00
C144   C     0.83613   0.95876   0.60805   0.00000  Uiso   1.00
C145   C     0.83017   0.02068   0.53813   0.00000  Uiso   1.00
C146   C     0.84279   0.97567   0.46733   0.00000  Uiso   1.00
C147   C     0.85796   0.93949   0.33711   0.00000  Uiso   1.00
C148   C     0.93764   0.95653   0.77801   0.00000  Uiso   1.00
C149   C     0.01704   0.01658   0.85099   0.00000  Uiso   1.00
C150   C     0.11514   0.96970   0.92328   0.00000  Uiso   1.00
C151   C     0.28791   0.93007   0.05695   0.00000  Uiso   1.00
C152   C     0.85766   0.80215   0.69061   0.00000  Uiso   1.00
C153   C     0.74068   0.82779   0.68820   0.00000  Uiso   1.00
C154   C     0.65797   0.75934   0.68552   0.00000  Uiso   1.00
C155   C     0.55655   0.79781   0.68360   0.00000  Uiso   1.00
C156   C     0.85407   0.85555   0.60730   0.00000  Uiso   1.00
C157   C     0.86671   0.81044   0.53660   0.00000  Uiso   1.00
C158   C     0.86076   0.87227   0.46658   0.00000  Uiso   1.00
C159   C     0.95558   0.85332   0.77727   0.00000  Uiso   1.00
C160   C     0.05358   0.80634   0.84946   0.00000  Uiso   1.00
C161   C     0.13311   0.86630   0.92253   0.00000  Uiso   1.00
H162   H     0.81066   0.07253   0.69257   0.00000  Uiso   1.00
H163   H     0.60757   0.04947   0.68762   0.00000  Uiso   1.00
H164   H     0.81630   0.10055   0.53873   0.00000  Uiso   1.00
H165   H     0.00313   0.09645   0.85154   0.00000  Uiso   1.00
H166   H     0.39029   0.97838   0.68176   0.00000  Uiso   1.00
H167   H     0.83044   0.08610   0.36784   0.00000  Uiso   1.00
H168   H     0.22443   0.07746   0.02746   0.00000  Uiso   1.00
H169   H     0.87163   0.72179   0.69003   0.00000  Uiso   1.00
H170   H     0.67188   0.67947   0.68494   0.00000  Uiso   1.00
H171   H     0.88060   0.73056   0.53604   0.00000  Uiso   1.00
H172   H     0.06743   0.72646   0.84885   0.00000  Uiso   1.00
H173   H     0.44248   0.67808   0.67958   0.00000  Uiso   1.00
H174   H     0.88264   0.78580   0.36565   0.00000  Uiso   1.00
H175   H     0.27662   0.77716   0.02528   0.00000  Uiso   1.00
O176   O     0.28387   0.80673   0.67733   0.00000  Uiso   1.00
O177   O     0.86135   0.94805   0.26549   0.00000  Uiso   1.00
O178   O     0.37824   0.93671   0.13090   0.00000  Uiso   1.00
N179   N     0.43000   0.91351   0.68196   0.00000  Uiso   1.00
N180   N     0.84150   0.01422   0.38845   0.00000  Uiso   1.00
N181   N     0.20986   0.00615   0.00514   0.00000  Uiso   1.00
N182   N     0.45809   0.75192   0.68079   0.00000  Uiso   1.00
N183   N     0.86958   0.85263   0.38728   0.00000  Uiso   1.00
N184   N     0.23794   0.84456   0.00396   0.00000  Uiso   1.00
