data_job_03039
_audit_creation_date              2018-12-19
_audit_creation_method            'Materials Studio'
_symmetry_space_group_name_H-M    'P1'
_symmetry_Int_Tables_number       1
_symmetry_cell_setting            triclinic
loop_
_symmetry_equiv_pos_as_xyz
  x,y,z
_cell_length_a                    18.2457
_cell_length_b                    23.4002
_cell_length_c                    12.6371
_cell_angle_alpha                 90.0000
_cell_angle_beta                  90.0000
_cell_angle_gamma                 90.0000
loop_
_atom_site_label
_atom_site_type_symbol
_atom_site_fract_x
_atom_site_fract_y
_atom_site_fract_z
_atom_site_U_iso_or_equiv
_atom_site_adp_type
_atom_site_occupancy
C1     C     0.96451   0.08073   0.48966   0.00000  Uiso   1.00
C2     C     0.04046   0.10770   0.48319   0.00000  Uiso   1.00
C3     C     0.10626   0.08023   0.50433   0.00000  Uiso   1.00
C4     C     0.16984   0.11234   0.49392   0.00000  Uiso   1.00
C5     C     0.28810   0.14548   0.48855   0.00000  Uiso   1.00
C6     C     0.92064   0.11771   0.56620   0.00000  Uiso   1.00
C7     C     0.88568   0.09865   0.65713   0.00000  Uiso   1.00
C8     C     0.84837   0.13919   0.71659   0.00000  Uiso   1.00
C9     C     0.78056   0.18787   0.84006   0.00000  Uiso   1.00
C10    C     0.92963   0.08934   0.38117   0.00000  Uiso   1.00
C11    C     0.90222   0.04642   0.31653   0.00000  Uiso   1.00
C12    C     0.87248   0.06308   0.22021   0.00000  Uiso   1.00
C13    C     0.81863   0.06769   0.05640   0.00000  Uiso   1.00
C14    C     0.96042   0.18662   0.43357   0.00000  Uiso   1.00
C15    C     0.03824   0.16522   0.45273   0.00000  Uiso   1.00
C16    C     0.10173   0.19738   0.44227   0.00000  Uiso   1.00
C17    C     0.16761   0.16996   0.46339   0.00000  Uiso   1.00
C18    C     0.91841   0.17523   0.53574   0.00000  Uiso   1.00
C19    C     0.88115   0.21581   0.59507   0.00000  Uiso   1.00
C20    C     0.84614   0.19681   0.68607   0.00000  Uiso   1.00
C21    C     0.92741   0.14685   0.35070   0.00000  Uiso   1.00
C22    C     0.89770   0.16358   0.25447   0.00000  Uiso   1.00
C23    C     0.87025   0.12069   0.18970   0.00000  Uiso   1.00
H24    H     0.96624   0.03595   0.51339   0.00000  Uiso   1.00
H25    H     0.10796   0.03572   0.52791   0.00000  Uiso   1.00
H26    H     0.88740   0.05414   0.68068   0.00000  Uiso   1.00
H27    H     0.90395   0.00192   0.34013   0.00000  Uiso   1.00
H28    H     0.26409   0.06083   0.53062   0.00000  Uiso   1.00
H29    H     0.79902   0.09967   0.85272   0.00000  Uiso   1.00
H30    H     0.83391   0.98955   0.13461   0.00000  Uiso   1.00
H31    H     0.95869   0.23140   0.40986   0.00000  Uiso   1.00
H32    H     0.09999   0.24189   0.41870   0.00000  Uiso   1.00
H33    H     0.87943   0.26031   0.57147   0.00000  Uiso   1.00
H34    H     0.89598   0.20809   0.23092   0.00000  Uiso   1.00
H35    H     0.25763   0.22817   0.44198   0.00000  Uiso   1.00
H36    H     0.79255   0.26700   0.76408   0.00000  Uiso   1.00
H37    H     0.82744   0.15688   0.04597   0.00000  Uiso   1.00
O38    O     0.35395   0.14788   0.49402   0.00000  Uiso   1.00
O39    O     0.74378   0.19883   0.91659   0.00000  Uiso   1.00
O40    O     0.78956   0.05435   0.97445   0.00000  Uiso   1.00
N41    N     0.24318   0.09877   0.50852   0.00000  Uiso   1.00
N42    N     0.80837   0.13508   0.80968   0.00000  Uiso   1.00
N43    N     0.84097   0.03213   0.13832   0.00000  Uiso   1.00
N44    N     0.23970   0.18881   0.46083   0.00000  Uiso   1.00
N45    N     0.80489   0.22512   0.76198   0.00000  Uiso   1.00
N46    N     0.83750   0.12217   0.09062   0.00000  Uiso   1.00
C47    C     0.96451   0.58073   0.98966   0.00000  Uiso   1.00
C48    C     0.04046   0.60770   0.98319   0.00000  Uiso   1.00
C49    C     0.10626   0.58023   0.00433   0.00000  Uiso   1.00
C50    C     0.16984   0.61234   0.99392   0.00000  Uiso   1.00
C51    C     0.28810   0.64548   0.98855   0.00000  Uiso   1.00
C52    C     0.92064   0.61771   0.06620   0.00000  Uiso   1.00
C53    C     0.88568   0.59865   0.15713   0.00000  Uiso   1.00
C54    C     0.84837   0.63919   0.21659   0.00000  Uiso   1.00
C55    C     0.78056   0.68787   0.34006   0.00000  Uiso   1.00
C56    C     0.92963   0.58934   0.88117   0.00000  Uiso   1.00
C57    C     0.90222   0.54642   0.81653   0.00000  Uiso   1.00
C58    C     0.87248   0.56308   0.72021   0.00000  Uiso   1.00
C59    C     0.81863   0.56769   0.55640   0.00000  Uiso   1.00
C60    C     0.96042   0.68662   0.93357   0.00000  Uiso   1.00
C61    C     0.03824   0.66522   0.95273   0.00000  Uiso   1.00
C62    C     0.10173   0.69738   0.94227   0.00000  Uiso   1.00
C63    C     0.16761   0.66996   0.96339   0.00000  Uiso   1.00
C64    C     0.91841   0.67523   0.03574   0.00000  Uiso   1.00
C65    C     0.88115   0.71581   0.09507   0.00000  Uiso   1.00
C66    C     0.84614   0.69681   0.18607   0.00000  Uiso   1.00
C67    C     0.92741   0.64685   0.85070   0.00000  Uiso   1.00
C68    C     0.89770   0.66358   0.75447   0.00000  Uiso   1.00
C69    C     0.87025   0.62069   0.68970   0.00000  Uiso   1.00
H70    H     0.96624   0.53595   0.01339   0.00000  Uiso   1.00
H71    H     0.10796   0.53572   0.02791   0.00000  Uiso   1.00
H72    H     0.88740   0.55414   0.18068   0.00000  Uiso   1.00
H73    H     0.90395   0.50192   0.84013   0.00000  Uiso   1.00
H74    H     0.26409   0.56083   0.03062   0.00000  Uiso   1.00
H75    H     0.79902   0.59967   0.35272   0.00000  Uiso   1.00
H76    H     0.83391   0.48955   0.63461   0.00000  Uiso   1.00
H77    H     0.95869   0.73140   0.90986   0.00000  Uiso   1.00
H78    H     0.09999   0.74189   0.91870   0.00000  Uiso   1.00
H79    H     0.87943   0.76031   0.07147   0.00000  Uiso   1.00
H80    H     0.89598   0.70809   0.73092   0.00000  Uiso   1.00
H81    H     0.25763   0.72817   0.94198   0.00000  Uiso   1.00
H82    H     0.79255   0.76700   0.26408   0.00000  Uiso   1.00
H83    H     0.82744   0.65688   0.54597   0.00000  Uiso   1.00
O84    O     0.35395   0.64788   0.99402   0.00000  Uiso   1.00
O85    O     0.74378   0.69883   0.41659   0.00000  Uiso   1.00
O86    O     0.78956   0.55435   0.47445   0.00000  Uiso   1.00
N87    N     0.24318   0.59877   0.00852   0.00000  Uiso   1.00
N88    N     0.80837   0.63508   0.30968   0.00000  Uiso   1.00
N89    N     0.84097   0.53213   0.63832   0.00000  Uiso   1.00
N90    N     0.23970   0.68881   0.96083   0.00000  Uiso   1.00
N91    N     0.80489   0.72512   0.26198   0.00000  Uiso   1.00
N92    N     0.83750   0.62217   0.59062   0.00000  Uiso   1.00
C93    C     0.03549   0.91927   0.48966   0.00000  Uiso   1.00
C94    C     0.95954   0.89230   0.48319   0.00000  Uiso   1.00
C95    C     0.89374   0.91977   0.50433   0.00000  Uiso   1.00
C96    C     0.83016   0.88766   0.49392   0.00000  Uiso   1.00
C97    C     0.71190   0.85452   0.48855   0.00000  Uiso   1.00
C98    C     0.07936   0.88229   0.56620   0.00000  Uiso   1.00
C99    C     0.11432   0.90135   0.65713   0.00000  Uiso   1.00
C100   C     0.15163   0.86081   0.71659   0.00000  Uiso   1.00
C101   C     0.21944   0.81213   0.84006   0.00000  Uiso   1.00
C102   C     0.07037   0.91066   0.38117   0.00000  Uiso   1.00
C103   C     0.09778   0.95358   0.31653   0.00000  Uiso   1.00
C104   C     0.12752   0.93692   0.22021   0.00000  Uiso   1.00
C105   C     0.18137   0.93231   0.05640   0.00000  Uiso   1.00
C106   C     0.03958   0.81338   0.43357   0.00000  Uiso   1.00
C107   C     0.96176   0.83478   0.45273   0.00000  Uiso   1.00
C108   C     0.89827   0.80262   0.44227   0.00000  Uiso   1.00
C109   C     0.83239   0.83004   0.46339   0.00000  Uiso   1.00
C110   C     0.08159   0.82477   0.53574   0.00000  Uiso   1.00
C111   C     0.11885   0.78419   0.59507   0.00000  Uiso   1.00
C112   C     0.15386   0.80319   0.68607   0.00000  Uiso   1.00
C113   C     0.07259   0.85315   0.35070   0.00000  Uiso   1.00
C114   C     0.10230   0.83642   0.25447   0.00000  Uiso   1.00
C115   C     0.12975   0.87931   0.18970   0.00000  Uiso   1.00
H116   H     0.03376   0.96405   0.51339   0.00000  Uiso   1.00
H117   H     0.89204   0.96428   0.52791   0.00000  Uiso   1.00
H118   H     0.11260   0.94586   0.68068   0.00000  Uiso   1.00
H119   H     0.09605   0.99808   0.34013   0.00000  Uiso   1.00
H120   H     0.73591   0.93917   0.53062   0.00000  Uiso   1.00
H121   H     0.20098   0.90033   0.85272   0.00000  Uiso   1.00
H122   H     0.16609   0.01045   0.13461   0.00000  Uiso   1.00
H123   H     0.04131   0.76860   0.40986   0.00000  Uiso   1.00
H124   H     0.90001   0.75811   0.41870   0.00000  Uiso   1.00
H125   H     0.12057   0.73969   0.57147   0.00000  Uiso   1.00
H126   H     0.10402   0.79191   0.23092   0.00000  Uiso   1.00
H127   H     0.74237   0.77183   0.44198   0.00000  Uiso   1.00
H128   H     0.20745   0.73300   0.76408   0.00000  Uiso   1.00
H129   H     0.17256   0.84312   0.04597   0.00000  Uiso   1.00
O130   O     0.64605   0.85212   0.49402   0.00000  Uiso   1.00
O131   O     0.25622   0.80117   0.91659   0.00000  Uiso   1.00
O132   O     0.21044   0.94565   0.97445   0.00000  Uiso   1.00
N133   N     0.75682   0.90123   0.50852   0.00000  Uiso   1.00
N134   N     0.19163   0.86492   0.80968   0.00000  Uiso   1.00
N135   N     0.15903   0.96787   0.13832   0.00000  Uiso   1.00
N136   N     0.76030   0.81119   0.46083   0.00000  Uiso   1.00
N137   N     0.19511   0.77488   0.76198   0.00000  Uiso   1.00
N138   N     0.16250   0.87783   0.09062   0.00000  Uiso   1.00
C139   C     0.03549   0.41927   0.98966   0.00000  Uiso   1.00
C140   C     0.95954   0.39230   0.98319   0.00000  Uiso   1.00
C141   C     0.89374   0.41977   0.00433   0.00000  Uiso   1.00
C142   C     0.83016   0.38766   0.99392   0.00000  Uiso   1.00
C143   C     0.71190   0.35452   0.98855   0.00000  Uiso   1.00
C144   C     0.07936   0.38229   0.06620   0.00000  Uiso   1.00
C145   C     0.11432   0.40135   0.15713   0.00000  Uiso   1.00
C146   C     0.15163   0.36081   0.21659   0.00000  Uiso   1.00
C147   C     0.21944   0.31213   0.34006   0.00000  Uiso   1.00
C148   C     0.07037   0.41066   0.88117   0.00000  Uiso   1.00
C149   C     0.09778   0.45358   0.81653   0.00000  Uiso   1.00
C150   C     0.12752   0.43692   0.72021   0.00000  Uiso   1.00
C151   C     0.18137   0.43231   0.55640   0.00000  Uiso   1.00
C152   C     0.03958   0.31338   0.93357   0.00000  Uiso   1.00
C153   C     0.96176   0.33478   0.95273   0.00000  Uiso   1.00
C154   C     0.89827   0.30262   0.94227   0.00000  Uiso   1.00
C155   C     0.83239   0.33004   0.96339   0.00000  Uiso   1.00
C156   C     0.08159   0.32477   0.03574   0.00000  Uiso   1.00
C157   C     0.11885   0.28419   0.09507   0.00000  Uiso   1.00
C158   C     0.15386   0.30319   0.18607   0.00000  Uiso   1.00
C159   C     0.07259   0.35315   0.85070   0.00000  Uiso   1.00
C160   C     0.10230   0.33642   0.75447   0.00000  Uiso   1.00
C161   C     0.12975   0.37931   0.68970   0.00000  Uiso   1.00
H162   H     0.03376   0.46405   0.01339   0.00000  Uiso   1.00
H163   H     0.89204   0.46428   0.02791   0.00000  Uiso   1.00
H164   H     0.11260   0.44586   0.18068   0.00000  Uiso   1.00
H165   H     0.09605   0.49808   0.84013   0.00000  Uiso   1.00
H166   H     0.73591   0.43917   0.03062   0.00000  Uiso   1.00
H167   H     0.20098   0.40033   0.35272   0.00000  Uiso   1.00
H168   H     0.16609   0.51045   0.63461   0.00000  Uiso   1.00
H169   H     0.04131   0.26860   0.90986   0.00000  Uiso   1.00
H170   H     0.90001   0.25811   0.91870   0.00000  Uiso   1.00
H171   H     0.12057   0.23969   0.07147   0.00000  Uiso   1.00
H172   H     0.10402   0.29191   0.73092   0.00000  Uiso   1.00
H173   H     0.74237   0.27183   0.94198   0.00000  Uiso   1.00
H174   H     0.20745   0.23300   0.26408   0.00000  Uiso   1.00
H175   H     0.17256   0.34312   0.54597   0.00000  Uiso   1.00
O176   O     0.64605   0.35212   0.99402   0.00000  Uiso   1.00
O177   O     0.25622   0.30117   0.41659   0.00000  Uiso   1.00
O178   O     0.21044   0.44565   0.47445   0.00000  Uiso   1.00
N179   N     0.75682   0.40123   0.00852   0.00000  Uiso   1.00
N180   N     0.19163   0.36492   0.30968   0.00000  Uiso   1.00
N181   N     0.15903   0.46787   0.63832   0.00000  Uiso   1.00
N182   N     0.76030   0.31119   0.96083   0.00000  Uiso   1.00
N183   N     0.19511   0.27488   0.26198   0.00000  Uiso   1.00
N184   N     0.16250   0.37783   0.59062   0.00000  Uiso   1.00
C185   C     0.46451   0.41927   0.48966   0.00000  Uiso   1.00
C186   C     0.54046   0.39230   0.48319   0.00000  Uiso   1.00
C187   C     0.60626   0.41977   0.50433   0.00000  Uiso   1.00
C188   C     0.66984   0.38766   0.49392   0.00000  Uiso   1.00
C189   C     0.78810   0.35452   0.48855   0.00000  Uiso   1.00
C190   C     0.42064   0.38229   0.56620   0.00000  Uiso   1.00
C191   C     0.38568   0.40135   0.65713   0.00000  Uiso   1.00
C192   C     0.34837   0.36081   0.71659   0.00000  Uiso   1.00
C193   C     0.28056   0.31213   0.84006   0.00000  Uiso   1.00
C194   C     0.42963   0.41066   0.38117   0.00000  Uiso   1.00
C195   C     0.40222   0.45358   0.31653   0.00000  Uiso   1.00
C196   C     0.37248   0.43692   0.22021   0.00000  Uiso   1.00
C197   C     0.31863   0.43231   0.05640   0.00000  Uiso   1.00
C198   C     0.46042   0.31338   0.43357   0.00000  Uiso   1.00
C199   C     0.53824   0.33478   0.45273   0.00000  Uiso   1.00
C200   C     0.60173   0.30262   0.44227   0.00000  Uiso   1.00
C201   C     0.66761   0.33004   0.46339   0.00000  Uiso   1.00
C202   C     0.41841   0.32477   0.53574   0.00000  Uiso   1.00
C203   C     0.38115   0.28419   0.59507   0.00000  Uiso   1.00
C204   C     0.34614   0.30319   0.68607   0.00000  Uiso   1.00
C205   C     0.42741   0.35315   0.35070   0.00000  Uiso   1.00
C206   C     0.39770   0.33642   0.25447   0.00000  Uiso   1.00
C207   C     0.37025   0.37931   0.18970   0.00000  Uiso   1.00
H208   H     0.46624   0.46405   0.51339   0.00000  Uiso   1.00
H209   H     0.60796   0.46428   0.52791   0.00000  Uiso   1.00
H210   H     0.38740   0.44586   0.68068   0.00000  Uiso   1.00
H211   H     0.40395   0.49808   0.34013   0.00000  Uiso   1.00
H212   H     0.76409   0.43917   0.53062   0.00000  Uiso   1.00
H213   H     0.29902   0.40033   0.85272   0.00000  Uiso   1.00
H214   H     0.33391   0.51045   0.13461   0.00000  Uiso   1.00
H215   H     0.45869   0.26860   0.40986   0.00000  Uiso   1.00
H216   H     0.59999   0.25811   0.41870   0.00000  Uiso   1.00
H217   H     0.37943   0.23969   0.57147   0.00000  Uiso   1.00
H218   H     0.39598   0.29191   0.23092   0.00000  Uiso   1.00
H219   H     0.75763   0.27183   0.44198   0.00000  Uiso   1.00
H220   H     0.29255   0.23300   0.76408   0.00000  Uiso   1.00
H221   H     0.32744   0.34312   0.04597   0.00000  Uiso   1.00
O222   O     0.85395   0.35212   0.49402   0.00000  Uiso   1.00
O223   O     0.24378   0.30117   0.91659   0.00000  Uiso   1.00
O224   O     0.28956   0.44565   0.97445   0.00000  Uiso   1.00
N225   N     0.74318   0.40123   0.50852   0.00000  Uiso   1.00
N226   N     0.30837   0.36492   0.80968   0.00000  Uiso   1.00
N227   N     0.34097   0.46787   0.13832   0.00000  Uiso   1.00
N228   N     0.73970   0.31119   0.46083   0.00000  Uiso   1.00
N229   N     0.30489   0.27488   0.76198   0.00000  Uiso   1.00
N230   N     0.33750   0.37783   0.09062   0.00000  Uiso   1.00
C231   C     0.46451   0.91927   0.98966   0.00000  Uiso   1.00
C232   C     0.54046   0.89230   0.98319   0.00000  Uiso   1.00
C233   C     0.60626   0.91977   0.00433   0.00000  Uiso   1.00
C234   C     0.66984   0.88766   0.99392   0.00000  Uiso   1.00
C235   C     0.78810   0.85452   0.98855   0.00000  Uiso   1.00
C236   C     0.42064   0.88229   0.06620   0.00000  Uiso   1.00
C237   C     0.38568   0.90135   0.15713   0.00000  Uiso   1.00
C238   C     0.34837   0.86081   0.21659   0.00000  Uiso   1.00
C239   C     0.28056   0.81213   0.34006   0.00000  Uiso   1.00
C240   C     0.42963   0.91066   0.88117   0.00000  Uiso   1.00
C241   C     0.40222   0.95358   0.81653   0.00000  Uiso   1.00
C242   C     0.37248   0.93692   0.72021   0.00000  Uiso   1.00
C243   C     0.31863   0.93231   0.55640   0.00000  Uiso   1.00
C244   C     0.46042   0.81338   0.93357   0.00000  Uiso   1.00
C245   C     0.53824   0.83478   0.95273   0.00000  Uiso   1.00
C246   C     0.60173   0.80262   0.94227   0.00000  Uiso   1.00
C247   C     0.66761   0.83004   0.96339   0.00000  Uiso   1.00
C248   C     0.41841   0.82477   0.03574   0.00000  Uiso   1.00
C249   C     0.38115   0.78419   0.09507   0.00000  Uiso   1.00
C250   C     0.34614   0.80319   0.18607   0.00000  Uiso   1.00
C251   C     0.42741   0.85315   0.85070   0.00000  Uiso   1.00
C252   C     0.39770   0.83642   0.75447   0.00000  Uiso   1.00
C253   C     0.37025   0.87931   0.68970   0.00000  Uiso   1.00
H254   H     0.46624   0.96405   0.01339   0.00000  Uiso   1.00
H255   H     0.60796   0.96428   0.02791   0.00000  Uiso   1.00
H256   H     0.38740   0.94586   0.18068   0.00000  Uiso   1.00
H257   H     0.40395   0.99808   0.84013   0.00000  Uiso   1.00
H258   H     0.76409   0.93917   0.03062   0.00000  Uiso   1.00
H259   H     0.29902   0.90033   0.35272   0.00000  Uiso   1.00
H260   H     0.33391   0.01045   0.63461   0.00000  Uiso   1.00
H261   H     0.45869   0.76860   0.90986   0.00000  Uiso   1.00
H262   H     0.59999   0.75811   0.91870   0.00000  Uiso   1.00
H263   H     0.37943   0.73969   0.07147   0.00000  Uiso   1.00
H264   H     0.39598   0.79191   0.73092   0.00000  Uiso   1.00
H265   H     0.75763   0.77183   0.94198   0.00000  Uiso   1.00
H266   H     0.29255   0.73300   0.26408   0.00000  Uiso   1.00
H267   H     0.32744   0.84312   0.54597   0.00000  Uiso   1.00
O268   O     0.85395   0.85212   0.99402   0.00000  Uiso   1.00
O269   O     0.24378   0.80117   0.41659   0.00000  Uiso   1.00
O270   O     0.28956   0.94565   0.47445   0.00000  Uiso   1.00
N271   N     0.74318   0.90123   0.00852   0.00000  Uiso   1.00
N272   N     0.30837   0.86492   0.30968   0.00000  Uiso   1.00
N273   N     0.34097   0.96787   0.63832   0.00000  Uiso   1.00
N274   N     0.73970   0.81119   0.96083   0.00000  Uiso   1.00
N275   N     0.30489   0.77488   0.26198   0.00000  Uiso   1.00
N276   N     0.33750   0.87783   0.59062   0.00000  Uiso   1.00
C277   C     0.53549   0.58073   0.48966   0.00000  Uiso   1.00
C278   C     0.45954   0.60770   0.48319   0.00000  Uiso   1.00
C279   C     0.39374   0.58023   0.50433   0.00000  Uiso   1.00
C280   C     0.33016   0.61234   0.49392   0.00000  Uiso   1.00
C281   C     0.21190   0.64548   0.48855   0.00000  Uiso   1.00
C282   C     0.57936   0.61771   0.56620   0.00000  Uiso   1.00
C283   C     0.61432   0.59865   0.65713   0.00000  Uiso   1.00
C284   C     0.65163   0.63919   0.71659   0.00000  Uiso   1.00
C285   C     0.71944   0.68787   0.84006   0.00000  Uiso   1.00
C286   C     0.57037   0.58934   0.38117   0.00000  Uiso   1.00
C287   C     0.59778   0.54642   0.31653   0.00000  Uiso   1.00
C288   C     0.62752   0.56308   0.22021   0.00000  Uiso   1.00
C289   C     0.68137   0.56769   0.05640   0.00000  Uiso   1.00
C290   C     0.53958   0.68662   0.43357   0.00000  Uiso   1.00
C291   C     0.46176   0.66522   0.45273   0.00000  Uiso   1.00
C292   C     0.39827   0.69738   0.44227   0.00000  Uiso   1.00
C293   C     0.33239   0.66996   0.46339   0.00000  Uiso   1.00
C294   C     0.58159   0.67523   0.53574   0.00000  Uiso   1.00
C295   C     0.61885   0.71581   0.59507   0.00000  Uiso   1.00
C296   C     0.65386   0.69681   0.68607   0.00000  Uiso   1.00
C297   C     0.57259   0.64685   0.35070   0.00000  Uiso   1.00
C298   C     0.60230   0.66358   0.25447   0.00000  Uiso   1.00
C299   C     0.62975   0.62069   0.18970   0.00000  Uiso   1.00
H300   H     0.53376   0.53595   0.51339   0.00000  Uiso   1.00
H301   H     0.39204   0.53572   0.52791   0.00000  Uiso   1.00
H302   H     0.61260   0.55414   0.68068   0.00000  Uiso   1.00
H303   H     0.59605   0.50192   0.34013   0.00000  Uiso   1.00
H304   H     0.23591   0.56083   0.53062   0.00000  Uiso   1.00
H305   H     0.70098   0.59967   0.85272   0.00000  Uiso   1.00
H306   H     0.66609   0.48955   0.13461   0.00000  Uiso   1.00
H307   H     0.54131   0.73140   0.40986   0.00000  Uiso   1.00
H308   H     0.40001   0.74189   0.41870   0.00000  Uiso   1.00
H309   H     0.62057   0.76031   0.57147   0.00000  Uiso   1.00
H310   H     0.60402   0.70809   0.23092   0.00000  Uiso   1.00
H311   H     0.24237   0.72817   0.44198   0.00000  Uiso   1.00
H312   H     0.70745   0.76700   0.76408   0.00000  Uiso   1.00
H313   H     0.67256   0.65688   0.04597   0.00000  Uiso   1.00
O314   O     0.14605   0.64788   0.49402   0.00000  Uiso   1.00
O315   O     0.75622   0.69883   0.91659   0.00000  Uiso   1.00
O316   O     0.71044   0.55435   0.97445   0.00000  Uiso   1.00
N317   N     0.25682   0.59877   0.50852   0.00000  Uiso   1.00
N318   N     0.69163   0.63508   0.80968   0.00000  Uiso   1.00
N319   N     0.65903   0.53213   0.13832   0.00000  Uiso   1.00
N320   N     0.26030   0.68881   0.46083   0.00000  Uiso   1.00
N321   N     0.69511   0.72512   0.76198   0.00000  Uiso   1.00
N322   N     0.66250   0.62217   0.09062   0.00000  Uiso   1.00
C323   C     0.53549   0.08073   0.98966   0.00000  Uiso   1.00
C324   C     0.45954   0.10770   0.98319   0.00000  Uiso   1.00
C325   C     0.39374   0.08023   0.00433   0.00000  Uiso   1.00
C326   C     0.33016   0.11234   0.99392   0.00000  Uiso   1.00
C327   C     0.21190   0.14548   0.98855   0.00000  Uiso   1.00
C328   C     0.57936   0.11771   0.06620   0.00000  Uiso   1.00
C329   C     0.61432   0.09865   0.15713   0.00000  Uiso   1.00
C330   C     0.65163   0.13919   0.21659   0.00000  Uiso   1.00
C331   C     0.71944   0.18787   0.34006   0.00000  Uiso   1.00
C332   C     0.57037   0.08934   0.88117   0.00000  Uiso   1.00
C333   C     0.59778   0.04642   0.81653   0.00000  Uiso   1.00
C334   C     0.62752   0.06308   0.72021   0.00000  Uiso   1.00
C335   C     0.68137   0.06769   0.55640   0.00000  Uiso   1.00
C336   C     0.53958   0.18662   0.93357   0.00000  Uiso   1.00
C337   C     0.46176   0.16522   0.95273   0.00000  Uiso   1.00
C338   C     0.39827   0.19738   0.94227   0.00000  Uiso   1.00
C339   C     0.33239   0.16996   0.96339   0.00000  Uiso   1.00
C340   C     0.58159   0.17523   0.03574   0.00000  Uiso   1.00
C341   C     0.61885   0.21581   0.09507   0.00000  Uiso   1.00
C342   C     0.65386   0.19681   0.18607   0.00000  Uiso   1.00
C343   C     0.57259   0.14685   0.85070   0.00000  Uiso   1.00
C344   C     0.60230   0.16358   0.75447   0.00000  Uiso   1.00
C345   C     0.62975   0.12069   0.68970   0.00000  Uiso   1.00
H346   H     0.53376   0.03595   0.01339   0.00000  Uiso   1.00
H347   H     0.39204   0.03572   0.02791   0.00000  Uiso   1.00
H348   H     0.61260   0.05414   0.18068   0.00000  Uiso   1.00
H349   H     0.59605   0.00192   0.84013   0.00000  Uiso   1.00
H350   H     0.23591   0.06083   0.03062   0.00000  Uiso   1.00
H351   H     0.70098   0.09967   0.35272   0.00000  Uiso   1.00
H352   H     0.66609   0.98955   0.63461   0.00000  Uiso   1.00
H353   H     0.54131   0.23140   0.90986   0.00000  Uiso   1.00
H354   H     0.40001   0.24189   0.91870   0.00000  Uiso   1.00
H355   H     0.62057   0.26031   0.07147   0.00000  Uiso   1.00
H356   H     0.60402   0.20809   0.73092   0.00000  Uiso   1.00
H357   H     0.24237   0.22817   0.94198   0.00000  Uiso   1.00
H358   H     0.70745   0.26700   0.26408   0.00000  Uiso   1.00
H359   H     0.67256   0.15688   0.54597   0.00000  Uiso   1.00
O360   O     0.14605   0.14788   0.99402   0.00000  Uiso   1.00
O361   O     0.75622   0.19883   0.41659   0.00000  Uiso   1.00
O362   O     0.71044   0.05435   0.47445   0.00000  Uiso   1.00
N363   N     0.25682   0.09877   0.00852   0.00000  Uiso   1.00
N364   N     0.69163   0.13508   0.30968   0.00000  Uiso   1.00
N365   N     0.65903   0.03213   0.63832   0.00000  Uiso   1.00
N366   N     0.26030   0.18881   0.96083   0.00000  Uiso   1.00
N367   N     0.69511   0.22512   0.26198   0.00000  Uiso   1.00
N368   N     0.66250   0.12217   0.59062   0.00000  Uiso   1.00
