data_job_05453
_audit_creation_date              2018-12-19
_audit_creation_method            'Materials Studio'
_symmetry_space_group_name_H-M    'P1'
_symmetry_Int_Tables_number       1
_symmetry_cell_setting            triclinic
loop_
_symmetry_equiv_pos_as_xyz
  x,y,z
_cell_length_a                    12.8027
_cell_length_b                    12.8027
_cell_length_c                    11.4797
_cell_angle_alpha                 90.0000
_cell_angle_beta                  90.0000
_cell_angle_gamma                 120.0000
loop_
_atom_site_label
_atom_site_type_symbol
_atom_site_fract_x
_atom_site_fract_y
_atom_site_fract_z
_atom_site_U_iso_or_equiv
_atom_site_adp_type
_atom_site_occupancy
C1     C     0.34183   0.39046   0.49019   0.00000  Uiso   1.00
C2     C     0.31369   0.39580   0.36198   0.00000  Uiso   1.00
C3     C     0.36371   0.49876   0.29327   0.00000  Uiso   1.00
C4     C     0.32619   0.48480   0.17801   0.00000  Uiso   1.00
C5     C     0.29530   0.51027   0.98576   0.00000  Uiso   1.00
C6     C     0.22119   0.33472   0.55377   0.00000  Uiso   1.00
C7     C     0.19345   0.38633   0.64632   0.00000  Uiso   1.00
C8     C     0.07806   0.32094   0.69252   0.00000  Uiso   1.00
C9     C     0.90359   0.25155   0.79809   0.00000  Uiso   1.00
C10    C     0.38398   0.29840   0.49829   0.00000  Uiso   1.00
C11    C     0.49311   0.31945   0.54423   0.00000  Uiso   1.00
C12    C     0.51477   0.22347   0.54374   0.00000  Uiso   1.00
C13    C     0.59307   0.09768   0.56317   0.00000  Uiso   1.00
C14    C     0.18624   0.18256   0.40769   0.00000  Uiso   1.00
C15    C     0.22918   0.28287   0.31717   0.00000  Uiso   1.00
C16    C     0.19157   0.26875   0.20198   0.00000  Uiso   1.00
C17    C     0.24153   0.37167   0.13311   0.00000  Uiso   1.00
C18    C     0.13668   0.22180   0.50896   0.00000  Uiso   1.00
C19    C     0.02131   0.15631   0.55504   0.00000  Uiso   1.00
C20    C     0.99339   0.20781   0.64763   0.00000  Uiso   1.00
C21    C     0.29948   0.18547   0.45348   0.00000  Uiso   1.00
C22    C     0.32097   0.08944   0.45294   0.00000  Uiso   1.00
C23    C     0.43011   0.11034   0.49885   0.00000  Uiso   1.00
H24    H     0.40762   0.47838   0.52509   0.00000  Uiso   1.00
H25    H     0.42911   0.58614   0.32798   0.00000  Uiso   1.00
H26    H     0.25887   0.47371   0.68099   0.00000  Uiso   1.00
H27    H     0.55849   0.40685   0.57890   0.00000  Uiso   1.00
H28    H     0.41562   0.65582   0.08970   0.00000  Uiso   1.00
H29    H     0.05668   0.41875   0.83406   0.00000  Uiso   1.00
H30    H     0.68849   0.27775   0.61879   0.00000  Uiso   1.00
H31    H     0.12044   0.09464   0.37280   0.00000  Uiso   1.00
H32    H     0.12617   0.18135   0.16733   0.00000  Uiso   1.00
H33    H     0.95593   0.06893   0.52034   0.00000  Uiso   1.00
H34    H     0.25555   0.00206   0.41825   0.00000  Uiso   1.00
H35    H     0.16974   0.32728   0.95931   0.00000  Uiso   1.00
H36    H     0.81081   0.09021   0.70368   0.00000  Uiso   1.00
H37    H     0.44261   0.94921   0.48840   0.00000  Uiso   1.00
O38    O     0.30160   0.55552   0.89210   0.00000  Uiso   1.00
O39    O     0.83070   0.24448   0.86869   0.00000  Uiso   1.00
O40    O     0.65961   0.05950   0.58625   0.00000  Uiso   1.00
N41    N     0.35699   0.56660   0.08720   0.00000  Uiso   1.00
N42    N     0.02139   0.34496   0.78313   0.00000  Uiso   1.00
N43    N     0.61206   0.21313   0.58189   0.00000  Uiso   1.00
N44    N     0.22468   0.38981   0.01704   0.00000  Uiso   1.00
N45    N     0.88909   0.16817   0.71297   0.00000  Uiso   1.00
N46    N     0.47976   0.03634   0.51173   0.00000  Uiso   1.00
C47    C     0.60954   0.95137   0.15686   0.00000  Uiso   1.00
C48    C     0.60420   0.91789   0.02865   0.00000  Uiso   1.00
C49    C     0.50124   0.86495   0.95993   0.00000  Uiso   1.00
C50    C     0.51520   0.84139   0.84467   0.00000  Uiso   1.00
C51    C     0.48973   0.78503   0.65242   0.00000  Uiso   1.00
C52    C     0.66528   0.88647   0.22044   0.00000  Uiso   1.00
C53    C     0.61367   0.80712   0.31299   0.00000  Uiso   1.00
C54    C     0.67906   0.75712   0.35919   0.00000  Uiso   1.00
C55    C     0.74845   0.65204   0.46475   0.00000  Uiso   1.00
C56    C     0.70160   0.08558   0.16496   0.00000  Uiso   1.00
C57    C     0.68055   0.17366   0.21089   0.00000  Uiso   1.00
C58    C     0.77653   0.29131   0.21041   0.00000  Uiso   1.00
C59    C     0.90232   0.49539   0.22983   0.00000  Uiso   1.00
C60    C     0.81744   0.00368   0.07436   0.00000  Uiso   1.00
C61    C     0.71713   0.94630   0.98384   0.00000  Uiso   1.00
C62    C     0.73125   0.92283   0.86865   0.00000  Uiso   1.00
C63    C     0.62833   0.86986   0.79977   0.00000  Uiso   1.00
C64    C     0.77820   0.91487   0.17563   0.00000  Uiso   1.00
C65    C     0.84369   0.86499   0.22171   0.00000  Uiso   1.00
C66    C     0.79219   0.78558   0.31430   0.00000  Uiso   1.00
C67    C     0.81453   0.11400   0.12015   0.00000  Uiso   1.00
C68    C     0.91056   0.23153   0.11960   0.00000  Uiso   1.00
C69    C     0.88966   0.31977   0.16552   0.00000  Uiso   1.00
H70    H     0.52162   0.92924   0.19176   0.00000  Uiso   1.00
H71    H     0.41386   0.84296   0.99465   0.00000  Uiso   1.00
H72    H     0.52629   0.78516   0.34766   0.00000  Uiso   1.00
H73    H     0.59315   0.15164   0.24556   0.00000  Uiso   1.00
H74    H     0.34418   0.75980   0.75637   0.00000  Uiso   1.00
H75    H     0.58125   0.63793   0.50073   0.00000  Uiso   1.00
H76    H     0.72225   0.41074   0.28546   0.00000  Uiso   1.00
H77    H     0.90536   0.02580   0.03947   0.00000  Uiso   1.00
H78    H     0.81865   0.94482   0.83400   0.00000  Uiso   1.00
H79    H     0.93107   0.88701   0.18701   0.00000  Uiso   1.00
H80    H     0.99794   0.25349   0.08492   0.00000  Uiso   1.00
H81    H     0.67272   0.84246   0.62598   0.00000  Uiso   1.00
H82    H     0.90979   0.72060   0.37035   0.00000  Uiso   1.00
H83    H     0.05079   0.49340   0.15507   0.00000  Uiso   1.00
O84    O     0.44448   0.74608   0.55877   0.00000  Uiso   1.00
O85    O     0.75552   0.58622   0.53535   0.00000  Uiso   1.00
O86    O     0.94050   0.60011   0.25291   0.00000  Uiso   1.00
N87    N     0.43340   0.79039   0.75387   0.00000  Uiso   1.00
N88    N     0.65504   0.67644   0.44979   0.00000  Uiso   1.00
N89    N     0.78687   0.39894   0.24856   0.00000  Uiso   1.00
N90    N     0.61019   0.83487   0.68371   0.00000  Uiso   1.00
N91    N     0.83183   0.72092   0.37963   0.00000  Uiso   1.00
N92    N     0.96366   0.44342   0.17840   0.00000  Uiso   1.00
C93    C     0.04863   0.65817   0.82353   0.00000  Uiso   1.00
C94    C     0.08211   0.68631   0.69532   0.00000  Uiso   1.00
C95    C     0.13505   0.63629   0.62660   0.00000  Uiso   1.00
C96    C     0.15861   0.67381   0.51134   0.00000  Uiso   1.00
C97    C     0.21497   0.70470   0.31909   0.00000  Uiso   1.00
C98    C     0.11353   0.77881   0.88711   0.00000  Uiso   1.00
C99    C     0.19288   0.80655   0.97966   0.00000  Uiso   1.00
C100   C     0.24288   0.92194   0.02585   0.00000  Uiso   1.00
C101   C     0.34796   0.09641   0.13142   0.00000  Uiso   1.00
C102   C     0.91442   0.61602   0.83163   0.00000  Uiso   1.00
C103   C     0.82634   0.50689   0.87756   0.00000  Uiso   1.00
C104   C     0.70869   0.48523   0.87707   0.00000  Uiso   1.00
C105   C     0.50461   0.40693   0.89650   0.00000  Uiso   1.00
C106   C     0.99632   0.81376   0.74102   0.00000  Uiso   1.00
C107   C     0.05370   0.77082   0.65051   0.00000  Uiso   1.00
C108   C     0.07717   0.80843   0.53532   0.00000  Uiso   1.00
C109   C     0.13014   0.75847   0.46644   0.00000  Uiso   1.00
C110   C     0.08513   0.86332   0.84230   0.00000  Uiso   1.00
C111   C     0.13501   0.97869   0.88837   0.00000  Uiso   1.00
C112   C     0.21442   0.00661   0.98096   0.00000  Uiso   1.00
C113   C     0.88600   0.70052   0.78681   0.00000  Uiso   1.00
C114   C     0.76847   0.67903   0.78627   0.00000  Uiso   1.00
C115   C     0.68023   0.56989   0.83218   0.00000  Uiso   1.00
H116   H     0.07076   0.59238   0.85842   0.00000  Uiso   1.00
H117   H     0.15704   0.57089   0.66132   0.00000  Uiso   1.00
H118   H     0.21484   0.74113   0.01432   0.00000  Uiso   1.00
H119   H     0.84836   0.44151   0.91223   0.00000  Uiso   1.00
H120   H     0.24020   0.58438   0.42303   0.00000  Uiso   1.00
H121   H     0.36207   0.94332   0.16739   0.00000  Uiso   1.00
H122   H     0.58926   0.31151   0.95212   0.00000  Uiso   1.00
H123   H     0.97420   0.87956   0.70614   0.00000  Uiso   1.00
H124   H     0.05518   0.87383   0.50066   0.00000  Uiso   1.00
H125   H     0.11299   0.04407   0.85368   0.00000  Uiso   1.00
H126   H     0.74651   0.74445   0.75158   0.00000  Uiso   1.00
H127   H     0.15754   0.83026   0.29264   0.00000  Uiso   1.00
H128   H     0.27940   0.18919   0.03701   0.00000  Uiso   1.00
H129   H     0.50660   0.55739   0.82173   0.00000  Uiso   1.00
O130   O     0.25392   0.69840   0.22543   0.00000  Uiso   1.00
O131   O     0.41378   0.16930   0.20202   0.00000  Uiso   1.00
O132   O     0.39989   0.34039   0.91958   0.00000  Uiso   1.00
N133   N     0.20961   0.64301   0.42054   0.00000  Uiso   1.00
N134   N     0.32356   0.97861   0.11646   0.00000  Uiso   1.00
N135   N     0.60106   0.38794   0.91523   0.00000  Uiso   1.00
N136   N     0.16513   0.77532   0.35038   0.00000  Uiso   1.00
N137   N     0.27908   0.11091   0.04630   0.00000  Uiso   1.00
N138   N     0.55658   0.52024   0.84507   0.00000  Uiso   1.00
