data_job_04207
_audit_creation_date              2018-12-19
_audit_creation_method            'Materials Studio'
_symmetry_space_group_name_H-M    'P1'
_symmetry_Int_Tables_number       1
_symmetry_cell_setting            triclinic
loop_
_symmetry_equiv_pos_as_xyz
  x,y,z
_cell_length_a                    12.4285
_cell_length_b                    12.4285
_cell_length_c                    64.4303
_cell_angle_alpha                 90.0000
_cell_angle_beta                  90.0000
_cell_angle_gamma                 120.0000
loop_
_atom_site_label
_atom_site_type_symbol
_atom_site_fract_x
_atom_site_fract_y
_atom_site_fract_z
_atom_site_U_iso_or_equiv
_atom_site_adp_type
_atom_site_occupancy
C1     C     0.03941   0.79564   0.00986   0.00000  Uiso   1.00
C2     C     0.17321   0.82715   0.01360   0.00000  Uiso   1.00
C3     C     0.26301   0.93058   0.02416   0.00000  Uiso   1.00
C4     C     0.37991   0.94270   0.02592   0.00000  Uiso   1.00
C5     C     0.58372   0.00507   0.03301   0.00000  Uiso   1.00
C6     C     0.02020   0.78247   0.98642   0.00000  Uiso   1.00
C7     C     0.98134   0.84832   0.97412   0.00000  Uiso   1.00
C8     C     0.96943   0.82281   0.95300   0.00000  Uiso   1.00
C9     C     0.93561   0.81575   0.91790   0.00000  Uiso   1.00
C10    C     0.95766   0.66602   0.01883   0.00000  Uiso   1.00
C11    C     0.86619   0.63394   0.03379   0.00000  Uiso   1.00
C12    C     0.80160   0.51037   0.03995   0.00000  Uiso   1.00
C13    C     0.67067   0.32250   0.05517   0.00000  Uiso   1.00
C14    C     0.08732   0.63323   0.99421   0.00000  Uiso   1.00
C15    C     0.19923   0.73893   0.00510   0.00000  Uiso   1.00
C16    C     0.31602   0.75089   0.00685   0.00000  Uiso   1.00
C17    C     0.40598   0.85432   0.01740   0.00000  Uiso   1.00
C18    C     0.04622   0.69426   0.97792   0.00000  Uiso   1.00
C19    C     0.03435   0.66863   0.95681   0.00000  Uiso   1.00
C20    C     0.99550   0.73443   0.94449   0.00000  Uiso   1.00
C21    C     0.98368   0.57779   0.01034   0.00000  Uiso   1.00
C22    C     0.91921   0.45425   0.01648   0.00000  Uiso   1.00
C23    C     0.82767   0.42199   0.03143   0.00000  Uiso   1.00
H24    H     0.01915   0.86433   0.01648   0.00000  Uiso   1.00
H25    H     0.24284   0.99884   0.03073   0.00000  Uiso   1.00
H26    H     0.96120   0.91658   0.98071   0.00000  Uiso   1.00
H27    H     0.84608   0.70223   0.04036   0.00000  Uiso   1.00
H28    H     0.50233   0.10909   0.04278   0.00000  Uiso   1.00
H29    H     0.90845   0.93561   0.93730   0.00000  Uiso   1.00
H30    H     0.66568   0.48362   0.06309   0.00000  Uiso   1.00
H31    H     0.10758   0.56454   0.98760   0.00000  Uiso   1.00
H32    H     0.33613   0.68260   0.00027   0.00000  Uiso   1.00
H33    H     0.05450   0.60035   0.95024   0.00000  Uiso   1.00
H34    H     0.93937   0.38600   0.00990   0.00000  Uiso   1.00
H35    H     0.57805   0.85243   0.01805   0.00000  Uiso   1.00
H36    H     0.98416   0.67895   0.91257   0.00000  Uiso   1.00
H37    H     0.74140   0.22695   0.03836   0.00000  Uiso   1.00
O38    O     0.68895   0.06386   0.03927   0.00000  Uiso   1.00
O39    O     0.90978   0.83624   0.90088   0.00000  Uiso   1.00
O40    O     0.59128   0.24324   0.06592   0.00000  Uiso   1.00
N41    N     0.48878   0.03247   0.03523   0.00000  Uiso   1.00
N42    N     0.93355   0.87029   0.93661   0.00000  Uiso   1.00
N43    N     0.70656   0.44771   0.05421   0.00000  Uiso   1.00
N44    N     0.52952   0.89436   0.02192   0.00000  Uiso   1.00
N45    N     0.97430   0.73218   0.92330   0.00000  Uiso   1.00
N46    N     0.74731   0.30960   0.04090   0.00000  Uiso   1.00
C47    C     0.20436   0.24377   0.67653   0.00000  Uiso   1.00
C48    C     0.17285   0.34605   0.68027   0.00000  Uiso   1.00
C49    C     0.06942   0.33243   0.69082   0.00000  Uiso   1.00
C50    C     0.05730   0.43721   0.69258   0.00000  Uiso   1.00
C51    C     0.99493   0.57865   0.69968   0.00000  Uiso   1.00
C52    C     0.21753   0.23773   0.65309   0.00000  Uiso   1.00
C53    C     0.15168   0.13302   0.64079   0.00000  Uiso   1.00
C54    C     0.17719   0.14662   0.61967   0.00000  Uiso   1.00
C55    C     0.18425   0.11986   0.58457   0.00000  Uiso   1.00
C56    C     0.33398   0.29164   0.68550   0.00000  Uiso   1.00
C57    C     0.36606   0.23225   0.70045   0.00000  Uiso   1.00
C58    C     0.48963   0.29123   0.70661   0.00000  Uiso   1.00
C59    C     0.67750   0.34818   0.72184   0.00000  Uiso   1.00
C60    C     0.36677   0.45409   0.66088   0.00000  Uiso   1.00
C61    C     0.26107   0.46029   0.67177   0.00000  Uiso   1.00
C62    C     0.24911   0.56513   0.67351   0.00000  Uiso   1.00
C63    C     0.14568   0.55166   0.68407   0.00000  Uiso   1.00
C64    C     0.30574   0.35197   0.64459   0.00000  Uiso   1.00
C65    C     0.33137   0.36573   0.62348   0.00000  Uiso   1.00
C66    C     0.26557   0.26107   0.61115   0.00000  Uiso   1.00
C67    C     0.42221   0.40589   0.67700   0.00000  Uiso   1.00
C68    C     0.54575   0.46496   0.68314   0.00000  Uiso   1.00
C69    C     0.57801   0.40568   0.69810   0.00000  Uiso   1.00
H70    H     0.13567   0.15482   0.68314   0.00000  Uiso   1.00
H71    H     0.00116   0.24400   0.69740   0.00000  Uiso   1.00
H72    H     0.08342   0.04462   0.64737   0.00000  Uiso   1.00
H73    H     0.29777   0.14385   0.70703   0.00000  Uiso   1.00
H74    H     0.89091   0.39324   0.70945   0.00000  Uiso   1.00
H75    H     0.06439   0.97283   0.60397   0.00000  Uiso   1.00
H76    H     0.51638   0.18206   0.72976   0.00000  Uiso   1.00
H77    H     0.43546   0.54304   0.65426   0.00000  Uiso   1.00
H78    H     0.31740   0.65353   0.66693   0.00000  Uiso   1.00
H79    H     0.39965   0.45415   0.61691   0.00000  Uiso   1.00
H80    H     0.61400   0.55337   0.67656   0.00000  Uiso   1.00
H81    H     0.14757   0.72562   0.68472   0.00000  Uiso   1.00
H82    H     0.32105   0.30522   0.57924   0.00000  Uiso   1.00
H83    H     0.77305   0.51445   0.70503   0.00000  Uiso   1.00
O84    O     0.93614   0.62509   0.70593   0.00000  Uiso   1.00
O85    O     0.16376   0.07354   0.56755   0.00000  Uiso   1.00
O86    O     0.75676   0.34804   0.73258   0.00000  Uiso   1.00
N87    N     0.96753   0.45631   0.70189   0.00000  Uiso   1.00
N88    N     0.12971   0.06326   0.60328   0.00000  Uiso   1.00
N89    N     0.55229   0.25885   0.72087   0.00000  Uiso   1.00
N90    N     0.10564   0.63516   0.68859   0.00000  Uiso   1.00
N91    N     0.26782   0.24212   0.58997   0.00000  Uiso   1.00
N92    N     0.69040   0.43771   0.70757   0.00000  Uiso   1.00
C93    C     0.75623   0.96059   0.34319   0.00000  Uiso   1.00
C94    C     0.65395   0.82679   0.34694   0.00000  Uiso   1.00
C95    C     0.66757   0.73699   0.35749   0.00000  Uiso   1.00
C96    C     0.56279   0.62009   0.35925   0.00000  Uiso   1.00
C97    C     0.42135   0.41628   0.36634   0.00000  Uiso   1.00
C98    C     0.76227   0.97980   0.31976   0.00000  Uiso   1.00
C99    C     0.86698   0.01866   0.30746   0.00000  Uiso   1.00
C100   C     0.85338   0.03057   0.28633   0.00000  Uiso   1.00
C101   C     0.88014   0.06439   0.25123   0.00000  Uiso   1.00
C102   C     0.70836   0.04234   0.35217   0.00000  Uiso   1.00
C103   C     0.76775   0.13381   0.36712   0.00000  Uiso   1.00
C104   C     0.70877   0.19840   0.37328   0.00000  Uiso   1.00
C105   C     0.65182   0.32933   0.38850   0.00000  Uiso   1.00
C106   C     0.54591   0.91268   0.32755   0.00000  Uiso   1.00
C107   C     0.53971   0.80077   0.33844   0.00000  Uiso   1.00
C108   C     0.43487   0.68398   0.34018   0.00000  Uiso   1.00
C109   C     0.44834   0.59402   0.35074   0.00000  Uiso   1.00
C110   C     0.64803   0.95378   0.31126   0.00000  Uiso   1.00
C111   C     0.63427   0.96565   0.29015   0.00000  Uiso   1.00
C112   C     0.73893   0.00450   0.27782   0.00000  Uiso   1.00
C113   C     0.59411   0.01632   0.34367   0.00000  Uiso   1.00
C114   C     0.53504   0.08079   0.34981   0.00000  Uiso   1.00
C115   C     0.59432   0.17233   0.36477   0.00000  Uiso   1.00
H116   H     0.84518   0.98085   0.34981   0.00000  Uiso   1.00
H117   H     0.75600   0.75716   0.36406   0.00000  Uiso   1.00
H118   H     0.95538   0.03880   0.31404   0.00000  Uiso   1.00
H119   H     0.85615   0.15392   0.37369   0.00000  Uiso   1.00
H120   H     0.60676   0.49767   0.37611   0.00000  Uiso   1.00
H121   H     0.02717   0.09155   0.27063   0.00000  Uiso   1.00
H122   H     0.81794   0.33432   0.39642   0.00000  Uiso   1.00
H123   H     0.45696   0.89242   0.32093   0.00000  Uiso   1.00
H124   H     0.34647   0.66387   0.33360   0.00000  Uiso   1.00
H125   H     0.54585   0.94550   0.28358   0.00000  Uiso   1.00
H126   H     0.44663   0.06063   0.34323   0.00000  Uiso   1.00
H127   H     0.27438   0.42195   0.35139   0.00000  Uiso   1.00
H128   H     0.69478   0.01584   0.24591   0.00000  Uiso   1.00
H129   H     0.48555   0.25860   0.37170   0.00000  Uiso   1.00
O130   O     0.37491   0.31105   0.37260   0.00000  Uiso   1.00
O131   O     0.92646   0.09022   0.23422   0.00000  Uiso   1.00
O132   O     0.65196   0.40872   0.39925   0.00000  Uiso   1.00
N133   N     0.54369   0.51122   0.36856   0.00000  Uiso   1.00
N134   N     0.93674   0.06645   0.26994   0.00000  Uiso   1.00
N135   N     0.74115   0.29344   0.38754   0.00000  Uiso   1.00
N136   N     0.36484   0.47048   0.35525   0.00000  Uiso   1.00
N137   N     0.75788   0.02570   0.25664   0.00000  Uiso   1.00
N138   N     0.56229   0.25269   0.37424   0.00000  Uiso   1.00
C139   C     0.96059   0.20436   0.50986   0.00000  Uiso   1.00
C140   C     0.82679   0.17285   0.51360   0.00000  Uiso   1.00
C141   C     0.73699   0.06942   0.52416   0.00000  Uiso   1.00
C142   C     0.62009   0.05730   0.52592   0.00000  Uiso   1.00
C143   C     0.41628   0.99493   0.53301   0.00000  Uiso   1.00
C144   C     0.97980   0.21753   0.48642   0.00000  Uiso   1.00
C145   C     0.01866   0.15168   0.47412   0.00000  Uiso   1.00
C146   C     0.03057   0.17719   0.45300   0.00000  Uiso   1.00
C147   C     0.06439   0.18425   0.41790   0.00000  Uiso   1.00
C148   C     0.04234   0.33398   0.51883   0.00000  Uiso   1.00
C149   C     0.13381   0.36606   0.53379   0.00000  Uiso   1.00
C150   C     0.19840   0.48963   0.53995   0.00000  Uiso   1.00
C151   C     0.32933   0.67750   0.55517   0.00000  Uiso   1.00
C152   C     0.91268   0.36677   0.49421   0.00000  Uiso   1.00
C153   C     0.80077   0.26107   0.50510   0.00000  Uiso   1.00
C154   C     0.68398   0.24911   0.50685   0.00000  Uiso   1.00
C155   C     0.59402   0.14568   0.51740   0.00000  Uiso   1.00
C156   C     0.95378   0.30574   0.47792   0.00000  Uiso   1.00
C157   C     0.96565   0.33137   0.45681   0.00000  Uiso   1.00
C158   C     0.00450   0.26557   0.44449   0.00000  Uiso   1.00
C159   C     0.01632   0.42221   0.51034   0.00000  Uiso   1.00
C160   C     0.08079   0.54575   0.51648   0.00000  Uiso   1.00
C161   C     0.17233   0.57801   0.53143   0.00000  Uiso   1.00
H162   H     0.98085   0.13567   0.51648   0.00000  Uiso   1.00
H163   H     0.75716   0.00116   0.53073   0.00000  Uiso   1.00
H164   H     0.03880   0.08342   0.48071   0.00000  Uiso   1.00
H165   H     0.15392   0.29777   0.54036   0.00000  Uiso   1.00
H166   H     0.49767   0.89091   0.54278   0.00000  Uiso   1.00
H167   H     0.09155   0.06439   0.43730   0.00000  Uiso   1.00
H168   H     0.33432   0.51638   0.56309   0.00000  Uiso   1.00
H169   H     0.89242   0.43546   0.48760   0.00000  Uiso   1.00
H170   H     0.66387   0.31740   0.50027   0.00000  Uiso   1.00
H171   H     0.94550   0.39965   0.45024   0.00000  Uiso   1.00
H172   H     0.06063   0.61400   0.50990   0.00000  Uiso   1.00
H173   H     0.42195   0.14757   0.51805   0.00000  Uiso   1.00
H174   H     0.01584   0.32105   0.41257   0.00000  Uiso   1.00
H175   H     0.25860   0.77305   0.53836   0.00000  Uiso   1.00
O176   O     0.31105   0.93614   0.53927   0.00000  Uiso   1.00
O177   O     0.09022   0.16376   0.40088   0.00000  Uiso   1.00
O178   O     0.40872   0.75676   0.56592   0.00000  Uiso   1.00
N179   N     0.51122   0.96753   0.53523   0.00000  Uiso   1.00
N180   N     0.06645   0.12971   0.43661   0.00000  Uiso   1.00
N181   N     0.29344   0.55229   0.55421   0.00000  Uiso   1.00
N182   N     0.47048   0.10564   0.52192   0.00000  Uiso   1.00
N183   N     0.02570   0.26782   0.42330   0.00000  Uiso   1.00
N184   N     0.25269   0.69040   0.54090   0.00000  Uiso   1.00
C185   C     0.79564   0.75623   0.17653   0.00000  Uiso   1.00
C186   C     0.82715   0.65395   0.18027   0.00000  Uiso   1.00
C187   C     0.93058   0.66757   0.19082   0.00000  Uiso   1.00
C188   C     0.94270   0.56279   0.19258   0.00000  Uiso   1.00
C189   C     0.00507   0.42135   0.19968   0.00000  Uiso   1.00
C190   C     0.78247   0.76227   0.15309   0.00000  Uiso   1.00
C191   C     0.84832   0.86698   0.14079   0.00000  Uiso   1.00
C192   C     0.82281   0.85338   0.11967   0.00000  Uiso   1.00
C193   C     0.81575   0.88014   0.08457   0.00000  Uiso   1.00
C194   C     0.66602   0.70836   0.18550   0.00000  Uiso   1.00
C195   C     0.63394   0.76775   0.20045   0.00000  Uiso   1.00
C196   C     0.51037   0.70877   0.20661   0.00000  Uiso   1.00
C197   C     0.32250   0.65182   0.22184   0.00000  Uiso   1.00
C198   C     0.63323   0.54591   0.16088   0.00000  Uiso   1.00
C199   C     0.73893   0.53971   0.17177   0.00000  Uiso   1.00
C200   C     0.75089   0.43487   0.17351   0.00000  Uiso   1.00
C201   C     0.85432   0.44834   0.18407   0.00000  Uiso   1.00
C202   C     0.69426   0.64803   0.14459   0.00000  Uiso   1.00
C203   C     0.66863   0.63427   0.12348   0.00000  Uiso   1.00
C204   C     0.73443   0.73893   0.11115   0.00000  Uiso   1.00
C205   C     0.57779   0.59411   0.17700   0.00000  Uiso   1.00
C206   C     0.45425   0.53504   0.18314   0.00000  Uiso   1.00
C207   C     0.42199   0.59432   0.19810   0.00000  Uiso   1.00
H208   H     0.86433   0.84518   0.18314   0.00000  Uiso   1.00
H209   H     0.99884   0.75600   0.19740   0.00000  Uiso   1.00
H210   H     0.91658   0.95538   0.14737   0.00000  Uiso   1.00
H211   H     0.70223   0.85615   0.20703   0.00000  Uiso   1.00
H212   H     0.10909   0.60676   0.20945   0.00000  Uiso   1.00
H213   H     0.93561   0.02717   0.10397   0.00000  Uiso   1.00
H214   H     0.48362   0.81794   0.22976   0.00000  Uiso   1.00
H215   H     0.56454   0.45696   0.15426   0.00000  Uiso   1.00
H216   H     0.68260   0.34647   0.16693   0.00000  Uiso   1.00
H217   H     0.60035   0.54585   0.11691   0.00000  Uiso   1.00
H218   H     0.38600   0.44663   0.17656   0.00000  Uiso   1.00
H219   H     0.85243   0.27438   0.18472   0.00000  Uiso   1.00
H220   H     0.67895   0.69478   0.07924   0.00000  Uiso   1.00
H221   H     0.22695   0.48555   0.20503   0.00000  Uiso   1.00
O222   O     0.06386   0.37491   0.20593   0.00000  Uiso   1.00
O223   O     0.83624   0.92646   0.06755   0.00000  Uiso   1.00
O224   O     0.24324   0.65196   0.23258   0.00000  Uiso   1.00
N225   N     0.03247   0.54369   0.20189   0.00000  Uiso   1.00
N226   N     0.87029   0.93674   0.10328   0.00000  Uiso   1.00
N227   N     0.44771   0.74115   0.22087   0.00000  Uiso   1.00
N228   N     0.89436   0.36484   0.18859   0.00000  Uiso   1.00
N229   N     0.73218   0.75788   0.08997   0.00000  Uiso   1.00
N230   N     0.30960   0.56229   0.20757   0.00000  Uiso   1.00
C231   C     0.24377   0.03941   0.84319   0.00000  Uiso   1.00
C232   C     0.34605   0.17321   0.84694   0.00000  Uiso   1.00
C233   C     0.33243   0.26301   0.85749   0.00000  Uiso   1.00
C234   C     0.43721   0.37991   0.85925   0.00000  Uiso   1.00
C235   C     0.57865   0.58372   0.86634   0.00000  Uiso   1.00
C236   C     0.23773   0.02020   0.81976   0.00000  Uiso   1.00
C237   C     0.13302   0.98134   0.80746   0.00000  Uiso   1.00
C238   C     0.14662   0.96943   0.78633   0.00000  Uiso   1.00
C239   C     0.11986   0.93561   0.75123   0.00000  Uiso   1.00
C240   C     0.29164   0.95766   0.85217   0.00000  Uiso   1.00
C241   C     0.23225   0.86619   0.86712   0.00000  Uiso   1.00
C242   C     0.29123   0.80160   0.87328   0.00000  Uiso   1.00
C243   C     0.34818   0.67067   0.88850   0.00000  Uiso   1.00
C244   C     0.45409   0.08732   0.82755   0.00000  Uiso   1.00
C245   C     0.46029   0.19923   0.83844   0.00000  Uiso   1.00
C246   C     0.56513   0.31602   0.84018   0.00000  Uiso   1.00
C247   C     0.55166   0.40598   0.85074   0.00000  Uiso   1.00
C248   C     0.35197   0.04622   0.81126   0.00000  Uiso   1.00
C249   C     0.36573   0.03435   0.79015   0.00000  Uiso   1.00
C250   C     0.26107   0.99550   0.77782   0.00000  Uiso   1.00
C251   C     0.40589   0.98368   0.84367   0.00000  Uiso   1.00
C252   C     0.46496   0.91921   0.84981   0.00000  Uiso   1.00
C253   C     0.40568   0.82767   0.86477   0.00000  Uiso   1.00
H254   H     0.15482   0.01915   0.84981   0.00000  Uiso   1.00
H255   H     0.24400   0.24284   0.86406   0.00000  Uiso   1.00
H256   H     0.04462   0.96120   0.81404   0.00000  Uiso   1.00
H257   H     0.14385   0.84608   0.87369   0.00000  Uiso   1.00
H258   H     0.39324   0.50233   0.87611   0.00000  Uiso   1.00
H259   H     0.97283   0.90845   0.77063   0.00000  Uiso   1.00
H260   H     0.18206   0.66568   0.89642   0.00000  Uiso   1.00
H261   H     0.54304   0.10758   0.82093   0.00000  Uiso   1.00
H262   H     0.65353   0.33613   0.83360   0.00000  Uiso   1.00
H263   H     0.45415   0.05450   0.78358   0.00000  Uiso   1.00
H264   H     0.55337   0.93937   0.84323   0.00000  Uiso   1.00
H265   H     0.72562   0.57805   0.85139   0.00000  Uiso   1.00
H266   H     0.30522   0.98416   0.74591   0.00000  Uiso   1.00
H267   H     0.51445   0.74140   0.87170   0.00000  Uiso   1.00
O268   O     0.62509   0.68895   0.87260   0.00000  Uiso   1.00
O269   O     0.07354   0.90978   0.73422   0.00000  Uiso   1.00
O270   O     0.34804   0.59128   0.89925   0.00000  Uiso   1.00
N271   N     0.45631   0.48878   0.86856   0.00000  Uiso   1.00
N272   N     0.06326   0.93355   0.76994   0.00000  Uiso   1.00
N273   N     0.25885   0.70656   0.88754   0.00000  Uiso   1.00
N274   N     0.63516   0.52952   0.85525   0.00000  Uiso   1.00
N275   N     0.24212   0.97430   0.75664   0.00000  Uiso   1.00
N276   N     0.43771   0.74731   0.87424   0.00000  Uiso   1.00
C277   C     0.79564   0.03941   0.65681   0.00000  Uiso   1.00
C278   C     0.82715   0.17321   0.65306   0.00000  Uiso   1.00
C279   C     0.93058   0.26301   0.64251   0.00000  Uiso   1.00
C280   C     0.94270   0.37991   0.64075   0.00000  Uiso   1.00
C281   C     0.00507   0.58372   0.63366   0.00000  Uiso   1.00
C282   C     0.78247   0.02020   0.68024   0.00000  Uiso   1.00
C283   C     0.84832   0.98134   0.69254   0.00000  Uiso   1.00
C284   C     0.82281   0.96943   0.71367   0.00000  Uiso   1.00
C285   C     0.81575   0.93561   0.74877   0.00000  Uiso   1.00
C286   C     0.66602   0.95766   0.64783   0.00000  Uiso   1.00
C287   C     0.63394   0.86619   0.63288   0.00000  Uiso   1.00
C288   C     0.51037   0.80160   0.62672   0.00000  Uiso   1.00
C289   C     0.32250   0.67067   0.61150   0.00000  Uiso   1.00
C290   C     0.63323   0.08732   0.67245   0.00000  Uiso   1.00
C291   C     0.73893   0.19923   0.66156   0.00000  Uiso   1.00
C292   C     0.75089   0.31602   0.65982   0.00000  Uiso   1.00
C293   C     0.85432   0.40598   0.64926   0.00000  Uiso   1.00
C294   C     0.69426   0.04622   0.68874   0.00000  Uiso   1.00
C295   C     0.66863   0.03435   0.70985   0.00000  Uiso   1.00
C296   C     0.73443   0.99550   0.72218   0.00000  Uiso   1.00
C297   C     0.57779   0.98368   0.65633   0.00000  Uiso   1.00
C298   C     0.45425   0.91921   0.65019   0.00000  Uiso   1.00
C299   C     0.42199   0.82767   0.63523   0.00000  Uiso   1.00
H300   H     0.86433   0.01915   0.65019   0.00000  Uiso   1.00
H301   H     0.99884   0.24284   0.63594   0.00000  Uiso   1.00
H302   H     0.91658   0.96120   0.68596   0.00000  Uiso   1.00
H303   H     0.70223   0.84608   0.62631   0.00000  Uiso   1.00
H304   H     0.10909   0.50233   0.62389   0.00000  Uiso   1.00
H305   H     0.93561   0.90845   0.72937   0.00000  Uiso   1.00
H306   H     0.48362   0.66568   0.60358   0.00000  Uiso   1.00
H307   H     0.56454   0.10758   0.67907   0.00000  Uiso   1.00
H308   H     0.68260   0.33613   0.66640   0.00000  Uiso   1.00
H309   H     0.60035   0.05450   0.71642   0.00000  Uiso   1.00
H310   H     0.38600   0.93937   0.65677   0.00000  Uiso   1.00
H311   H     0.85243   0.57805   0.64861   0.00000  Uiso   1.00
H312   H     0.67895   0.98416   0.75409   0.00000  Uiso   1.00
H313   H     0.22695   0.74140   0.62830   0.00000  Uiso   1.00
O314   O     0.06386   0.68895   0.62740   0.00000  Uiso   1.00
O315   O     0.83624   0.90978   0.76578   0.00000  Uiso   1.00
O316   O     0.24324   0.59128   0.60075   0.00000  Uiso   1.00
N317   N     0.03247   0.48878   0.63144   0.00000  Uiso   1.00
N318   N     0.87029   0.93355   0.73006   0.00000  Uiso   1.00
N319   N     0.44771   0.70656   0.61246   0.00000  Uiso   1.00
N320   N     0.89436   0.52952   0.64475   0.00000  Uiso   1.00
N321   N     0.73218   0.97430   0.74336   0.00000  Uiso   1.00
N322   N     0.30960   0.74731   0.62576   0.00000  Uiso   1.00
C323   C     0.24377   0.20436   0.99014   0.00000  Uiso   1.00
C324   C     0.34605   0.17285   0.98640   0.00000  Uiso   1.00
C325   C     0.33243   0.06942   0.97584   0.00000  Uiso   1.00
C326   C     0.43721   0.05730   0.97408   0.00000  Uiso   1.00
C327   C     0.57865   0.99493   0.96699   0.00000  Uiso   1.00
C328   C     0.23773   0.21753   0.01358   0.00000  Uiso   1.00
C329   C     0.13302   0.15168   0.02588   0.00000  Uiso   1.00
C330   C     0.14662   0.17719   0.04700   0.00000  Uiso   1.00
C331   C     0.11986   0.18425   0.08210   0.00000  Uiso   1.00
C332   C     0.29164   0.33398   0.98117   0.00000  Uiso   1.00
C333   C     0.23225   0.36606   0.96621   0.00000  Uiso   1.00
C334   C     0.29123   0.48963   0.96005   0.00000  Uiso   1.00
C335   C     0.34818   0.67750   0.94483   0.00000  Uiso   1.00
C336   C     0.45409   0.36677   0.00579   0.00000  Uiso   1.00
C337   C     0.46029   0.26107   0.99490   0.00000  Uiso   1.00
C338   C     0.56513   0.24911   0.99315   0.00000  Uiso   1.00
C339   C     0.55166   0.14568   0.98260   0.00000  Uiso   1.00
C340   C     0.35197   0.30574   0.02208   0.00000  Uiso   1.00
C341   C     0.36573   0.33137   0.04319   0.00000  Uiso   1.00
C342   C     0.26107   0.26557   0.05551   0.00000  Uiso   1.00
C343   C     0.40589   0.42221   0.98966   0.00000  Uiso   1.00
C344   C     0.46496   0.54575   0.98352   0.00000  Uiso   1.00
C345   C     0.40568   0.57801   0.96857   0.00000  Uiso   1.00
H346   H     0.15482   0.13567   0.98352   0.00000  Uiso   1.00
H347   H     0.24400   0.00116   0.96927   0.00000  Uiso   1.00
H348   H     0.04462   0.08342   0.01929   0.00000  Uiso   1.00
H349   H     0.14385   0.29777   0.95964   0.00000  Uiso   1.00
H350   H     0.39324   0.89091   0.95722   0.00000  Uiso   1.00
H351   H     0.97283   0.06439   0.06270   0.00000  Uiso   1.00
H352   H     0.18206   0.51638   0.93691   0.00000  Uiso   1.00
H353   H     0.54304   0.43546   0.01240   0.00000  Uiso   1.00
H354   H     0.65353   0.31740   0.99973   0.00000  Uiso   1.00
H355   H     0.45415   0.39965   0.04976   0.00000  Uiso   1.00
H356   H     0.55337   0.61400   0.99010   0.00000  Uiso   1.00
H357   H     0.72562   0.14757   0.98195   0.00000  Uiso   1.00
H358   H     0.30522   0.32105   0.08743   0.00000  Uiso   1.00
H359   H     0.51445   0.77305   0.96164   0.00000  Uiso   1.00
O360   O     0.62509   0.93614   0.96073   0.00000  Uiso   1.00
O361   O     0.07354   0.16376   0.09912   0.00000  Uiso   1.00
O362   O     0.34804   0.75676   0.93408   0.00000  Uiso   1.00
N363   N     0.45631   0.96753   0.96477   0.00000  Uiso   1.00
N364   N     0.06326   0.12971   0.06339   0.00000  Uiso   1.00
N365   N     0.25885   0.55229   0.94579   0.00000  Uiso   1.00
N366   N     0.63516   0.10564   0.97808   0.00000  Uiso   1.00
N367   N     0.24212   0.26782   0.07670   0.00000  Uiso   1.00
N368   N     0.43771   0.69040   0.95910   0.00000  Uiso   1.00
C369   C     0.96059   0.75623   0.32347   0.00000  Uiso   1.00
C370   C     0.82679   0.65395   0.31973   0.00000  Uiso   1.00
C371   C     0.73699   0.66757   0.30918   0.00000  Uiso   1.00
C372   C     0.62009   0.56279   0.30742   0.00000  Uiso   1.00
C373   C     0.41628   0.42135   0.30032   0.00000  Uiso   1.00
C374   C     0.97980   0.76227   0.34691   0.00000  Uiso   1.00
C375   C     0.01866   0.86698   0.35921   0.00000  Uiso   1.00
C376   C     0.03057   0.85338   0.38033   0.00000  Uiso   1.00
C377   C     0.06439   0.88014   0.41543   0.00000  Uiso   1.00
C378   C     0.04234   0.70836   0.31450   0.00000  Uiso   1.00
C379   C     0.13381   0.76775   0.29955   0.00000  Uiso   1.00
C380   C     0.19840   0.70877   0.29339   0.00000  Uiso   1.00
C381   C     0.32933   0.65182   0.27816   0.00000  Uiso   1.00
C382   C     0.91268   0.54591   0.33912   0.00000  Uiso   1.00
C383   C     0.80077   0.53971   0.32823   0.00000  Uiso   1.00
C384   C     0.68398   0.43487   0.32649   0.00000  Uiso   1.00
C385   C     0.59402   0.44834   0.31593   0.00000  Uiso   1.00
C386   C     0.95378   0.64803   0.35541   0.00000  Uiso   1.00
C387   C     0.96565   0.63427   0.37652   0.00000  Uiso   1.00
C388   C     0.00450   0.73893   0.38885   0.00000  Uiso   1.00
C389   C     0.01632   0.59411   0.32300   0.00000  Uiso   1.00
C390   C     0.08079   0.53504   0.31686   0.00000  Uiso   1.00
C391   C     0.17233   0.59432   0.30190   0.00000  Uiso   1.00
H392   H     0.98085   0.84518   0.31686   0.00000  Uiso   1.00
H393   H     0.75716   0.75600   0.30260   0.00000  Uiso   1.00
H394   H     0.03880   0.95538   0.35263   0.00000  Uiso   1.00
H395   H     0.15392   0.85615   0.29297   0.00000  Uiso   1.00
H396   H     0.49767   0.60676   0.29055   0.00000  Uiso   1.00
H397   H     0.09155   0.02717   0.39603   0.00000  Uiso   1.00
H398   H     0.33432   0.81794   0.27024   0.00000  Uiso   1.00
H399   H     0.89242   0.45696   0.34574   0.00000  Uiso   1.00
H400   H     0.66387   0.34647   0.33307   0.00000  Uiso   1.00
H401   H     0.94550   0.54585   0.38309   0.00000  Uiso   1.00
H402   H     0.06063   0.44663   0.32344   0.00000  Uiso   1.00
H403   H     0.42195   0.27438   0.31528   0.00000  Uiso   1.00
H404   H     0.01584   0.69478   0.42076   0.00000  Uiso   1.00
H405   H     0.25860   0.48555   0.29497   0.00000  Uiso   1.00
O406   O     0.31105   0.37491   0.29407   0.00000  Uiso   1.00
O407   O     0.09022   0.92646   0.43245   0.00000  Uiso   1.00
O408   O     0.40872   0.65196   0.26742   0.00000  Uiso   1.00
N409   N     0.51122   0.54369   0.29811   0.00000  Uiso   1.00
N410   N     0.06645   0.93674   0.39672   0.00000  Uiso   1.00
N411   N     0.29344   0.74115   0.27913   0.00000  Uiso   1.00
N412   N     0.47048   0.36484   0.31141   0.00000  Uiso   1.00
N413   N     0.02570   0.75788   0.41003   0.00000  Uiso   1.00
N414   N     0.25269   0.56229   0.29243   0.00000  Uiso   1.00
C415   C     0.20436   0.96059   0.15681   0.00000  Uiso   1.00
C416   C     0.17285   0.82679   0.15306   0.00000  Uiso   1.00
C417   C     0.06942   0.73699   0.14251   0.00000  Uiso   1.00
C418   C     0.05730   0.62009   0.14075   0.00000  Uiso   1.00
C419   C     0.99493   0.41628   0.13366   0.00000  Uiso   1.00
C420   C     0.21753   0.97980   0.18024   0.00000  Uiso   1.00
C421   C     0.15168   0.01866   0.19254   0.00000  Uiso   1.00
C422   C     0.17719   0.03057   0.21367   0.00000  Uiso   1.00
C423   C     0.18425   0.06439   0.24877   0.00000  Uiso   1.00
C424   C     0.33398   0.04234   0.14783   0.00000  Uiso   1.00
C425   C     0.36606   0.13381   0.13288   0.00000  Uiso   1.00
C426   C     0.48963   0.19840   0.12672   0.00000  Uiso   1.00
C427   C     0.67750   0.32933   0.11150   0.00000  Uiso   1.00
C428   C     0.36677   0.91268   0.17245   0.00000  Uiso   1.00
C429   C     0.26107   0.80077   0.16156   0.00000  Uiso   1.00
C430   C     0.24911   0.68398   0.15982   0.00000  Uiso   1.00
C431   C     0.14568   0.59402   0.14926   0.00000  Uiso   1.00
C432   C     0.30574   0.95378   0.18874   0.00000  Uiso   1.00
C433   C     0.33137   0.96565   0.20985   0.00000  Uiso   1.00
C434   C     0.26557   0.00450   0.22218   0.00000  Uiso   1.00
C435   C     0.42221   0.01632   0.15633   0.00000  Uiso   1.00
C436   C     0.54575   0.08079   0.15019   0.00000  Uiso   1.00
C437   C     0.57801   0.17233   0.13523   0.00000  Uiso   1.00
H438   H     0.13567   0.98085   0.15019   0.00000  Uiso   1.00
H439   H     0.00116   0.75716   0.13594   0.00000  Uiso   1.00
H440   H     0.08342   0.03880   0.18596   0.00000  Uiso   1.00
H441   H     0.29777   0.15392   0.12631   0.00000  Uiso   1.00
H442   H     0.89091   0.49767   0.12389   0.00000  Uiso   1.00
H443   H     0.06439   0.09155   0.22937   0.00000  Uiso   1.00
H444   H     0.51638   0.33432   0.10358   0.00000  Uiso   1.00
H445   H     0.43546   0.89242   0.17907   0.00000  Uiso   1.00
H446   H     0.31740   0.66387   0.16640   0.00000  Uiso   1.00
H447   H     0.39965   0.94550   0.21642   0.00000  Uiso   1.00
H448   H     0.61400   0.06063   0.15677   0.00000  Uiso   1.00
H449   H     0.14757   0.42195   0.14861   0.00000  Uiso   1.00
H450   H     0.32105   0.01584   0.25409   0.00000  Uiso   1.00
H451   H     0.77305   0.25860   0.12830   0.00000  Uiso   1.00
O452   O     0.93614   0.31105   0.12740   0.00000  Uiso   1.00
O453   O     0.16376   0.09022   0.26578   0.00000  Uiso   1.00
O454   O     0.75676   0.40872   0.10075   0.00000  Uiso   1.00
N455   N     0.96753   0.51122   0.13144   0.00000  Uiso   1.00
N456   N     0.12971   0.06645   0.23006   0.00000  Uiso   1.00
N457   N     0.55229   0.29344   0.11246   0.00000  Uiso   1.00
N458   N     0.10564   0.47048   0.14475   0.00000  Uiso   1.00
N459   N     0.26782   0.02570   0.24336   0.00000  Uiso   1.00
N460   N     0.69040   0.25269   0.12576   0.00000  Uiso   1.00
C461   C     0.75623   0.79564   0.49014   0.00000  Uiso   1.00
C462   C     0.65395   0.82715   0.48640   0.00000  Uiso   1.00
C463   C     0.66757   0.93058   0.47584   0.00000  Uiso   1.00
C464   C     0.56279   0.94270   0.47408   0.00000  Uiso   1.00
C465   C     0.42135   0.00507   0.46699   0.00000  Uiso   1.00
C466   C     0.76227   0.78247   0.51358   0.00000  Uiso   1.00
C467   C     0.86698   0.84832   0.52588   0.00000  Uiso   1.00
C468   C     0.85338   0.82281   0.54700   0.00000  Uiso   1.00
C469   C     0.88014   0.81575   0.58210   0.00000  Uiso   1.00
C470   C     0.70836   0.66602   0.48117   0.00000  Uiso   1.00
C471   C     0.76775   0.63394   0.46621   0.00000  Uiso   1.00
C472   C     0.70877   0.51037   0.46005   0.00000  Uiso   1.00
C473   C     0.65182   0.32250   0.44483   0.00000  Uiso   1.00
C474   C     0.54591   0.63323   0.50579   0.00000  Uiso   1.00
C475   C     0.53971   0.73893   0.49490   0.00000  Uiso   1.00
C476   C     0.43487   0.75089   0.49315   0.00000  Uiso   1.00
C477   C     0.44834   0.85432   0.48260   0.00000  Uiso   1.00
C478   C     0.64803   0.69426   0.52208   0.00000  Uiso   1.00
C479   C     0.63427   0.66863   0.54319   0.00000  Uiso   1.00
C480   C     0.73893   0.73443   0.55551   0.00000  Uiso   1.00
C481   C     0.59411   0.57779   0.48966   0.00000  Uiso   1.00
C482   C     0.53504   0.45425   0.48352   0.00000  Uiso   1.00
C483   C     0.59432   0.42199   0.46857   0.00000  Uiso   1.00
H484   H     0.84518   0.86433   0.48352   0.00000  Uiso   1.00
H485   H     0.75600   0.99884   0.46927   0.00000  Uiso   1.00
H486   H     0.95538   0.91658   0.51929   0.00000  Uiso   1.00
H487   H     0.85615   0.70223   0.45964   0.00000  Uiso   1.00
H488   H     0.60676   0.10909   0.45722   0.00000  Uiso   1.00
H489   H     0.02717   0.93561   0.56270   0.00000  Uiso   1.00
H490   H     0.81794   0.48362   0.43691   0.00000  Uiso   1.00
H491   H     0.45696   0.56454   0.51240   0.00000  Uiso   1.00
H492   H     0.34647   0.68260   0.49973   0.00000  Uiso   1.00
H493   H     0.54585   0.60035   0.54976   0.00000  Uiso   1.00
H494   H     0.44663   0.38600   0.49010   0.00000  Uiso   1.00
H495   H     0.27438   0.85243   0.48195   0.00000  Uiso   1.00
H496   H     0.69478   0.67895   0.58743   0.00000  Uiso   1.00
H497   H     0.48555   0.22695   0.46164   0.00000  Uiso   1.00
O498   O     0.37491   0.06386   0.46073   0.00000  Uiso   1.00
O499   O     0.92646   0.83624   0.59912   0.00000  Uiso   1.00
O500   O     0.65196   0.24324   0.43408   0.00000  Uiso   1.00
N501   N     0.54369   0.03247   0.46477   0.00000  Uiso   1.00
N502   N     0.93674   0.87029   0.56339   0.00000  Uiso   1.00
N503   N     0.74115   0.44771   0.44579   0.00000  Uiso   1.00
N504   N     0.36484   0.89436   0.47808   0.00000  Uiso   1.00
N505   N     0.75788   0.73218   0.57670   0.00000  Uiso   1.00
N506   N     0.56229   0.30960   0.45910   0.00000  Uiso   1.00
C507   C     0.03941   0.24377   0.82347   0.00000  Uiso   1.00
C508   C     0.17321   0.34605   0.81973   0.00000  Uiso   1.00
C509   C     0.26301   0.33243   0.80918   0.00000  Uiso   1.00
C510   C     0.37991   0.43721   0.80742   0.00000  Uiso   1.00
C511   C     0.58372   0.57865   0.80032   0.00000  Uiso   1.00
C512   C     0.02020   0.23773   0.84691   0.00000  Uiso   1.00
C513   C     0.98134   0.13302   0.85921   0.00000  Uiso   1.00
C514   C     0.96943   0.14662   0.88033   0.00000  Uiso   1.00
C515   C     0.93561   0.11986   0.91543   0.00000  Uiso   1.00
C516   C     0.95766   0.29164   0.81450   0.00000  Uiso   1.00
C517   C     0.86619   0.23225   0.79955   0.00000  Uiso   1.00
C518   C     0.80160   0.29123   0.79339   0.00000  Uiso   1.00
C519   C     0.67067   0.34818   0.77816   0.00000  Uiso   1.00
C520   C     0.08732   0.45409   0.83912   0.00000  Uiso   1.00
C521   C     0.19923   0.46029   0.82823   0.00000  Uiso   1.00
C522   C     0.31602   0.56513   0.82649   0.00000  Uiso   1.00
C523   C     0.40598   0.55166   0.81593   0.00000  Uiso   1.00
C524   C     0.04622   0.35197   0.85541   0.00000  Uiso   1.00
C525   C     0.03435   0.36573   0.87652   0.00000  Uiso   1.00
C526   C     0.99550   0.26107   0.88885   0.00000  Uiso   1.00
C527   C     0.98368   0.40589   0.82300   0.00000  Uiso   1.00
C528   C     0.91921   0.46496   0.81686   0.00000  Uiso   1.00
C529   C     0.82767   0.40568   0.80190   0.00000  Uiso   1.00
H530   H     0.01915   0.15482   0.81686   0.00000  Uiso   1.00
H531   H     0.24284   0.24400   0.80260   0.00000  Uiso   1.00
H532   H     0.96120   0.04462   0.85263   0.00000  Uiso   1.00
H533   H     0.84608   0.14385   0.79297   0.00000  Uiso   1.00
H534   H     0.50233   0.39324   0.79055   0.00000  Uiso   1.00
H535   H     0.90845   0.97283   0.89603   0.00000  Uiso   1.00
H536   H     0.66568   0.18206   0.77024   0.00000  Uiso   1.00
H537   H     0.10758   0.54304   0.84574   0.00000  Uiso   1.00
H538   H     0.33613   0.65353   0.83307   0.00000  Uiso   1.00
H539   H     0.05450   0.45415   0.88309   0.00000  Uiso   1.00
H540   H     0.93937   0.55337   0.82344   0.00000  Uiso   1.00
H541   H     0.57805   0.72562   0.81528   0.00000  Uiso   1.00
H542   H     0.98416   0.30522   0.92076   0.00000  Uiso   1.00
H543   H     0.74140   0.51445   0.79497   0.00000  Uiso   1.00
O544   O     0.68895   0.62509   0.79407   0.00000  Uiso   1.00
O545   O     0.90978   0.07354   0.93245   0.00000  Uiso   1.00
O546   O     0.59128   0.34804   0.76742   0.00000  Uiso   1.00
N547   N     0.48878   0.45631   0.79811   0.00000  Uiso   1.00
N548   N     0.93355   0.06326   0.89672   0.00000  Uiso   1.00
N549   N     0.70656   0.25885   0.77913   0.00000  Uiso   1.00
N550   N     0.52952   0.63516   0.81141   0.00000  Uiso   1.00
N551   N     0.97430   0.24212   0.91003   0.00000  Uiso   1.00
N552   N     0.74731   0.43771   0.79243   0.00000  Uiso   1.00
