data_job_01784
_audit_creation_date              2018-12-19
_audit_creation_method            'Materials Studio'
_symmetry_space_group_name_H-M    'P1'
_symmetry_Int_Tables_number       1
_symmetry_cell_setting            triclinic
loop_
_symmetry_equiv_pos_as_xyz
  x,y,z
_cell_length_a                    19.1014
_cell_length_b                    13.0974
_cell_length_c                    24.0332
_cell_angle_alpha                 90.0000
_cell_angle_beta                  110.4950
_cell_angle_gamma                 90.0000
loop_
_atom_site_label
_atom_site_type_symbol
_atom_site_fract_x
_atom_site_fract_y
_atom_site_fract_z
_atom_site_U_iso_or_equiv
_atom_site_adp_type
_atom_site_occupancy
C1     C     0.71724   0.66945   0.63715   0.00000  Uiso   1.00
C2     C     0.64057   0.61881   0.61825   0.00000  Uiso   1.00
C3     C     0.62342   0.52185   0.59400   0.00000  Uiso   1.00
C4     C     0.54999   0.48942   0.57964   0.00000  Uiso   1.00
C5     C     0.43918   0.40131   0.54881   0.00000  Uiso   1.00
C6     C     0.70610   0.76984   0.60299   0.00000  Uiso   1.00
C7     C     0.74406   0.79986   0.56593   0.00000  Uiso   1.00
C8     C     0.72580   0.89457   0.53874   0.00000  Uiso   1.00
C9     C     0.71677   0.04098   0.48426   0.00000  Uiso   1.00
C10    C     0.73660   0.69839   0.70228   0.00000  Uiso   1.00
C11    C     0.80022   0.66837   0.74869   0.00000  Uiso   1.00
C12    C     0.80765   0.70296   0.80509   0.00000  Uiso   1.00
C13    C     0.84598   0.73843   0.90477   0.00000  Uiso   1.00
C14    C     0.61735   0.78426   0.65478   0.00000  Uiso   1.00
C15    C     0.58631   0.68117   0.62782   0.00000  Uiso   1.00
C16    C     0.51290   0.64888   0.61351   0.00000  Uiso   1.00
C17    C     0.49564   0.55189   0.58924   0.00000  Uiso   1.00
C18    C     0.65185   0.83220   0.61257   0.00000  Uiso   1.00
C19    C     0.63354   0.92689   0.58543   0.00000  Uiso   1.00
C20    C     0.67145   0.95705   0.54833   0.00000  Uiso   1.00
C21    C     0.68235   0.76075   0.71186   0.00000  Uiso   1.00
C22    C     0.68969   0.79540   0.76820   0.00000  Uiso   1.00
C23    C     0.75330   0.76543   0.81468   0.00000  Uiso   1.00
H24    H     0.75949   0.62090   0.62969   0.00000  Uiso   1.00
H25    H     0.66542   0.47362   0.58659   0.00000  Uiso   1.00
H26    H     0.78604   0.75159   0.55853   0.00000  Uiso   1.00
H27    H     0.84219   0.62012   0.74126   0.00000  Uiso   1.00
H28    H     0.53720   0.33784   0.54301   0.00000  Uiso   1.00
H29    H     0.79156   0.92398   0.48385   0.00000  Uiso   1.00
H30    H     0.90996   0.64674   0.86919   0.00000  Uiso   1.00
H31    H     0.57511   0.83282   0.66223   0.00000  Uiso   1.00
H32    H     0.47092   0.69715   0.62092   0.00000  Uiso   1.00
H33    H     0.59155   0.97513   0.59286   0.00000  Uiso   1.00
H34    H     0.64770   0.84365   0.77559   0.00000  Uiso   1.00
H35    H     0.37933   0.51927   0.57087   0.00000  Uiso   1.00
H36    H     0.63370   0.10541   0.51172   0.00000  Uiso   1.00
H37    H     0.75210   0.82817   0.89705   0.00000  Uiso   1.00
O38    O     0.39305   0.33550   0.52915   0.00000  Uiso   1.00
O39    O     0.72677   0.10450   0.45156   0.00000  Uiso   1.00
O40    O     0.88211   0.74076   0.95710   0.00000  Uiso   1.00
N41    N     0.51434   0.39915   0.55525   0.00000  Uiso   1.00
N42    N     0.75215   0.94715   0.49993   0.00000  Uiso   1.00
N43    N     0.86285   0.68797   0.86018   0.00000  Uiso   1.00
N44    N     0.42940   0.49677   0.57024   0.00000  Uiso   1.00
N45    N     0.66721   0.04477   0.51492   0.00000  Uiso   1.00
N46    N     0.77791   0.78560   0.87518   0.00000  Uiso   1.00
C47    C     0.21724   0.16945   0.63715   0.00000  Uiso   1.00
C48    C     0.14057   0.11881   0.61825   0.00000  Uiso   1.00
C49    C     0.12342   0.02185   0.59400   0.00000  Uiso   1.00
C50    C     0.04999   0.98942   0.57964   0.00000  Uiso   1.00
C51    C     0.93918   0.90131   0.54881   0.00000  Uiso   1.00
C52    C     0.20610   0.26984   0.60299   0.00000  Uiso   1.00
C53    C     0.24406   0.29986   0.56593   0.00000  Uiso   1.00
C54    C     0.22580   0.39457   0.53874   0.00000  Uiso   1.00
C55    C     0.21677   0.54098   0.48426   0.00000  Uiso   1.00
C56    C     0.23660   0.19839   0.70228   0.00000  Uiso   1.00
C57    C     0.30022   0.16837   0.74869   0.00000  Uiso   1.00
C58    C     0.30765   0.20296   0.80509   0.00000  Uiso   1.00
C59    C     0.34598   0.23843   0.90477   0.00000  Uiso   1.00
C60    C     0.11735   0.28426   0.65478   0.00000  Uiso   1.00
C61    C     0.08631   0.18117   0.62782   0.00000  Uiso   1.00
C62    C     0.01290   0.14888   0.61351   0.00000  Uiso   1.00
C63    C     0.99564   0.05189   0.58924   0.00000  Uiso   1.00
C64    C     0.15185   0.33220   0.61257   0.00000  Uiso   1.00
C65    C     0.13354   0.42689   0.58543   0.00000  Uiso   1.00
C66    C     0.17145   0.45705   0.54833   0.00000  Uiso   1.00
C67    C     0.18235   0.26075   0.71186   0.00000  Uiso   1.00
C68    C     0.18969   0.29540   0.76820   0.00000  Uiso   1.00
C69    C     0.25330   0.26543   0.81468   0.00000  Uiso   1.00
H70    H     0.25949   0.12090   0.62969   0.00000  Uiso   1.00
H71    H     0.16542   0.97362   0.58659   0.00000  Uiso   1.00
H72    H     0.28604   0.25159   0.55853   0.00000  Uiso   1.00
H73    H     0.34219   0.12012   0.74126   0.00000  Uiso   1.00
H74    H     0.03720   0.83784   0.54301   0.00000  Uiso   1.00
H75    H     0.29156   0.42398   0.48385   0.00000  Uiso   1.00
H76    H     0.40996   0.14674   0.86919   0.00000  Uiso   1.00
H77    H     0.07511   0.33282   0.66223   0.00000  Uiso   1.00
H78    H     0.97092   0.19715   0.62092   0.00000  Uiso   1.00
H79    H     0.09155   0.47513   0.59286   0.00000  Uiso   1.00
H80    H     0.14770   0.34365   0.77559   0.00000  Uiso   1.00
H81    H     0.87933   0.01927   0.57087   0.00000  Uiso   1.00
H82    H     0.13370   0.60541   0.51172   0.00000  Uiso   1.00
H83    H     0.25210   0.32817   0.89705   0.00000  Uiso   1.00
O84    O     0.89305   0.83550   0.52915   0.00000  Uiso   1.00
O85    O     0.22677   0.60450   0.45156   0.00000  Uiso   1.00
O86    O     0.38211   0.24076   0.95710   0.00000  Uiso   1.00
N87    N     0.01434   0.89915   0.55525   0.00000  Uiso   1.00
N88    N     0.25215   0.44715   0.49993   0.00000  Uiso   1.00
N89    N     0.36285   0.18797   0.86018   0.00000  Uiso   1.00
N90    N     0.92940   0.99677   0.57024   0.00000  Uiso   1.00
N91    N     0.16721   0.54477   0.51492   0.00000  Uiso   1.00
N92    N     0.27791   0.28560   0.87518   0.00000  Uiso   1.00
C93    C     0.28276   0.66945   0.86285   0.00000  Uiso   1.00
C94    C     0.35943   0.61881   0.88175   0.00000  Uiso   1.00
C95    C     0.37658   0.52185   0.90600   0.00000  Uiso   1.00
C96    C     0.45001   0.48942   0.92036   0.00000  Uiso   1.00
C97    C     0.56082   0.40131   0.95119   0.00000  Uiso   1.00
C98    C     0.29390   0.76984   0.89701   0.00000  Uiso   1.00
C99    C     0.25594   0.79986   0.93407   0.00000  Uiso   1.00
C100   C     0.27420   0.89457   0.96126   0.00000  Uiso   1.00
C101   C     0.28323   0.04098   0.01574   0.00000  Uiso   1.00
C102   C     0.26340   0.69839   0.79772   0.00000  Uiso   1.00
C103   C     0.19978   0.66837   0.75131   0.00000  Uiso   1.00
C104   C     0.19235   0.70296   0.69491   0.00000  Uiso   1.00
C105   C     0.15402   0.73843   0.59523   0.00000  Uiso   1.00
C106   C     0.38265   0.78426   0.84522   0.00000  Uiso   1.00
C107   C     0.41369   0.68117   0.87218   0.00000  Uiso   1.00
C108   C     0.48710   0.64888   0.88649   0.00000  Uiso   1.00
C109   C     0.50436   0.55189   0.91076   0.00000  Uiso   1.00
C110   C     0.34815   0.83220   0.88743   0.00000  Uiso   1.00
C111   C     0.36646   0.92689   0.91457   0.00000  Uiso   1.00
C112   C     0.32855   0.95705   0.95167   0.00000  Uiso   1.00
C113   C     0.31765   0.76075   0.78814   0.00000  Uiso   1.00
C114   C     0.31031   0.79540   0.73180   0.00000  Uiso   1.00
C115   C     0.24670   0.76543   0.68532   0.00000  Uiso   1.00
H116   H     0.24051   0.62090   0.87031   0.00000  Uiso   1.00
H117   H     0.33458   0.47362   0.91341   0.00000  Uiso   1.00
H118   H     0.21396   0.75159   0.94147   0.00000  Uiso   1.00
H119   H     0.15781   0.62012   0.75874   0.00000  Uiso   1.00
H120   H     0.46280   0.33784   0.95699   0.00000  Uiso   1.00
H121   H     0.20844   0.92398   0.01615   0.00000  Uiso   1.00
H122   H     0.09004   0.64674   0.63081   0.00000  Uiso   1.00
H123   H     0.42489   0.83282   0.83777   0.00000  Uiso   1.00
H124   H     0.52908   0.69715   0.87908   0.00000  Uiso   1.00
H125   H     0.40845   0.97513   0.90714   0.00000  Uiso   1.00
H126   H     0.35230   0.84365   0.72441   0.00000  Uiso   1.00
H127   H     0.62067   0.51927   0.92913   0.00000  Uiso   1.00
H128   H     0.36630   0.10541   0.98828   0.00000  Uiso   1.00
H129   H     0.24790   0.82817   0.60295   0.00000  Uiso   1.00
O130   O     0.60695   0.33550   0.97085   0.00000  Uiso   1.00
O131   O     0.27323   0.10450   0.04844   0.00000  Uiso   1.00
O132   O     0.11789   0.74076   0.54290   0.00000  Uiso   1.00
N133   N     0.48566   0.39915   0.94475   0.00000  Uiso   1.00
N134   N     0.24785   0.94715   0.00007   0.00000  Uiso   1.00
N135   N     0.13715   0.68797   0.63982   0.00000  Uiso   1.00
N136   N     0.57060   0.49677   0.92976   0.00000  Uiso   1.00
N137   N     0.33279   0.04477   0.98508   0.00000  Uiso   1.00
N138   N     0.22209   0.78560   0.62482   0.00000  Uiso   1.00
C139   C     0.78276   0.16945   0.86285   0.00000  Uiso   1.00
C140   C     0.85943   0.11881   0.88175   0.00000  Uiso   1.00
C141   C     0.87658   0.02185   0.90600   0.00000  Uiso   1.00
C142   C     0.95001   0.98942   0.92036   0.00000  Uiso   1.00
C143   C     0.06082   0.90131   0.95119   0.00000  Uiso   1.00
C144   C     0.79390   0.26984   0.89701   0.00000  Uiso   1.00
C145   C     0.75594   0.29986   0.93407   0.00000  Uiso   1.00
C146   C     0.77420   0.39457   0.96126   0.00000  Uiso   1.00
C147   C     0.78323   0.54098   0.01574   0.00000  Uiso   1.00
C148   C     0.76340   0.19839   0.79772   0.00000  Uiso   1.00
C149   C     0.69978   0.16837   0.75131   0.00000  Uiso   1.00
C150   C     0.69235   0.20296   0.69491   0.00000  Uiso   1.00
C151   C     0.65402   0.23843   0.59523   0.00000  Uiso   1.00
C152   C     0.88265   0.28426   0.84522   0.00000  Uiso   1.00
C153   C     0.91369   0.18117   0.87218   0.00000  Uiso   1.00
C154   C     0.98710   0.14888   0.88649   0.00000  Uiso   1.00
C155   C     0.00436   0.05189   0.91076   0.00000  Uiso   1.00
C156   C     0.84815   0.33220   0.88743   0.00000  Uiso   1.00
C157   C     0.86646   0.42689   0.91457   0.00000  Uiso   1.00
C158   C     0.82855   0.45705   0.95167   0.00000  Uiso   1.00
C159   C     0.81765   0.26075   0.78814   0.00000  Uiso   1.00
C160   C     0.81031   0.29540   0.73180   0.00000  Uiso   1.00
C161   C     0.74670   0.26543   0.68532   0.00000  Uiso   1.00
H162   H     0.74051   0.12090   0.87031   0.00000  Uiso   1.00
H163   H     0.83458   0.97362   0.91341   0.00000  Uiso   1.00
H164   H     0.71396   0.25159   0.94147   0.00000  Uiso   1.00
H165   H     0.65781   0.12012   0.75874   0.00000  Uiso   1.00
H166   H     0.96280   0.83784   0.95699   0.00000  Uiso   1.00
H167   H     0.70844   0.42398   0.01615   0.00000  Uiso   1.00
H168   H     0.59004   0.14674   0.63081   0.00000  Uiso   1.00
H169   H     0.92489   0.33282   0.83777   0.00000  Uiso   1.00
H170   H     0.02908   0.19715   0.87908   0.00000  Uiso   1.00
H171   H     0.90845   0.47513   0.90714   0.00000  Uiso   1.00
H172   H     0.85230   0.34365   0.72441   0.00000  Uiso   1.00
H173   H     0.12067   0.01927   0.92913   0.00000  Uiso   1.00
H174   H     0.86630   0.60541   0.98828   0.00000  Uiso   1.00
H175   H     0.74790   0.32817   0.60295   0.00000  Uiso   1.00
O176   O     0.10695   0.83550   0.97085   0.00000  Uiso   1.00
O177   O     0.77323   0.60450   0.04844   0.00000  Uiso   1.00
O178   O     0.61789   0.24076   0.54290   0.00000  Uiso   1.00
N179   N     0.98566   0.89915   0.94475   0.00000  Uiso   1.00
N180   N     0.74785   0.44715   0.00007   0.00000  Uiso   1.00
N181   N     0.63715   0.18797   0.63982   0.00000  Uiso   1.00
N182   N     0.07060   0.99677   0.92976   0.00000  Uiso   1.00
N183   N     0.83279   0.54477   0.98508   0.00000  Uiso   1.00
N184   N     0.72209   0.28560   0.62482   0.00000  Uiso   1.00
C185   C     0.28276   0.33055   0.36285   0.00000  Uiso   1.00
C186   C     0.35943   0.38119   0.38175   0.00000  Uiso   1.00
C187   C     0.37658   0.47815   0.40600   0.00000  Uiso   1.00
C188   C     0.45001   0.51058   0.42036   0.00000  Uiso   1.00
C189   C     0.56082   0.59869   0.45119   0.00000  Uiso   1.00
C190   C     0.29390   0.23016   0.39701   0.00000  Uiso   1.00
C191   C     0.25594   0.20014   0.43407   0.00000  Uiso   1.00
C192   C     0.27420   0.10543   0.46126   0.00000  Uiso   1.00
C193   C     0.28323   0.95902   0.51574   0.00000  Uiso   1.00
C194   C     0.26340   0.30161   0.29772   0.00000  Uiso   1.00
C195   C     0.19978   0.33163   0.25131   0.00000  Uiso   1.00
C196   C     0.19235   0.29704   0.19491   0.00000  Uiso   1.00
C197   C     0.15402   0.26157   0.09523   0.00000  Uiso   1.00
C198   C     0.38265   0.21574   0.34522   0.00000  Uiso   1.00
C199   C     0.41369   0.31883   0.37218   0.00000  Uiso   1.00
C200   C     0.48710   0.35112   0.38649   0.00000  Uiso   1.00
C201   C     0.50436   0.44811   0.41076   0.00000  Uiso   1.00
C202   C     0.34815   0.16780   0.38743   0.00000  Uiso   1.00
C203   C     0.36646   0.07311   0.41457   0.00000  Uiso   1.00
C204   C     0.32855   0.04295   0.45167   0.00000  Uiso   1.00
C205   C     0.31765   0.23925   0.28814   0.00000  Uiso   1.00
C206   C     0.31031   0.20460   0.23180   0.00000  Uiso   1.00
C207   C     0.24670   0.23457   0.18532   0.00000  Uiso   1.00
H208   H     0.24051   0.37910   0.37031   0.00000  Uiso   1.00
H209   H     0.33458   0.52638   0.41341   0.00000  Uiso   1.00
H210   H     0.21396   0.24841   0.44147   0.00000  Uiso   1.00
H211   H     0.15781   0.37988   0.25874   0.00000  Uiso   1.00
H212   H     0.46280   0.66216   0.45699   0.00000  Uiso   1.00
H213   H     0.20844   0.07602   0.51615   0.00000  Uiso   1.00
H214   H     0.09004   0.35326   0.13081   0.00000  Uiso   1.00
H215   H     0.42489   0.16718   0.33777   0.00000  Uiso   1.00
H216   H     0.52908   0.30285   0.37908   0.00000  Uiso   1.00
H217   H     0.40845   0.02487   0.40714   0.00000  Uiso   1.00
H218   H     0.35230   0.15635   0.22441   0.00000  Uiso   1.00
H219   H     0.62067   0.48073   0.42913   0.00000  Uiso   1.00
H220   H     0.36630   0.89459   0.48828   0.00000  Uiso   1.00
H221   H     0.24790   0.17183   0.10295   0.00000  Uiso   1.00
O222   O     0.60695   0.66450   0.47085   0.00000  Uiso   1.00
O223   O     0.27323   0.89550   0.54844   0.00000  Uiso   1.00
O224   O     0.11789   0.25924   0.04290   0.00000  Uiso   1.00
N225   N     0.48566   0.60085   0.44475   0.00000  Uiso   1.00
N226   N     0.24785   0.05285   0.50007   0.00000  Uiso   1.00
N227   N     0.13715   0.31203   0.13982   0.00000  Uiso   1.00
N228   N     0.57060   0.50323   0.42976   0.00000  Uiso   1.00
N229   N     0.33279   0.95523   0.48508   0.00000  Uiso   1.00
N230   N     0.22209   0.21440   0.12482   0.00000  Uiso   1.00
C231   C     0.78276   0.83055   0.36285   0.00000  Uiso   1.00
C232   C     0.85943   0.88119   0.38175   0.00000  Uiso   1.00
C233   C     0.87658   0.97815   0.40600   0.00000  Uiso   1.00
C234   C     0.95001   0.01058   0.42036   0.00000  Uiso   1.00
C235   C     0.06082   0.09869   0.45119   0.00000  Uiso   1.00
C236   C     0.79390   0.73016   0.39701   0.00000  Uiso   1.00
C237   C     0.75594   0.70014   0.43407   0.00000  Uiso   1.00
C238   C     0.77420   0.60543   0.46126   0.00000  Uiso   1.00
C239   C     0.78323   0.45902   0.51574   0.00000  Uiso   1.00
C240   C     0.76340   0.80161   0.29772   0.00000  Uiso   1.00
C241   C     0.69978   0.83163   0.25131   0.00000  Uiso   1.00
C242   C     0.69235   0.79704   0.19491   0.00000  Uiso   1.00
C243   C     0.65402   0.76157   0.09523   0.00000  Uiso   1.00
C244   C     0.88265   0.71574   0.34522   0.00000  Uiso   1.00
C245   C     0.91369   0.81883   0.37218   0.00000  Uiso   1.00
C246   C     0.98710   0.85112   0.38649   0.00000  Uiso   1.00
C247   C     0.00436   0.94811   0.41076   0.00000  Uiso   1.00
C248   C     0.84815   0.66780   0.38743   0.00000  Uiso   1.00
C249   C     0.86646   0.57311   0.41457   0.00000  Uiso   1.00
C250   C     0.82855   0.54295   0.45167   0.00000  Uiso   1.00
C251   C     0.81765   0.73925   0.28814   0.00000  Uiso   1.00
C252   C     0.81031   0.70460   0.23180   0.00000  Uiso   1.00
C253   C     0.74670   0.73457   0.18532   0.00000  Uiso   1.00
H254   H     0.74051   0.87910   0.37031   0.00000  Uiso   1.00
H255   H     0.83458   0.02638   0.41341   0.00000  Uiso   1.00
H256   H     0.71396   0.74841   0.44147   0.00000  Uiso   1.00
H257   H     0.65781   0.87988   0.25874   0.00000  Uiso   1.00
H258   H     0.96280   0.16216   0.45699   0.00000  Uiso   1.00
H259   H     0.70844   0.57602   0.51615   0.00000  Uiso   1.00
H260   H     0.59004   0.85326   0.13081   0.00000  Uiso   1.00
H261   H     0.92489   0.66718   0.33777   0.00000  Uiso   1.00
H262   H     0.02908   0.80285   0.37908   0.00000  Uiso   1.00
H263   H     0.90845   0.52487   0.40714   0.00000  Uiso   1.00
H264   H     0.85230   0.65635   0.22441   0.00000  Uiso   1.00
H265   H     0.12067   0.98073   0.42913   0.00000  Uiso   1.00
H266   H     0.86630   0.39459   0.48828   0.00000  Uiso   1.00
H267   H     0.74790   0.67183   0.10295   0.00000  Uiso   1.00
O268   O     0.10695   0.16450   0.47085   0.00000  Uiso   1.00
O269   O     0.77323   0.39550   0.54844   0.00000  Uiso   1.00
O270   O     0.61789   0.75924   0.04290   0.00000  Uiso   1.00
N271   N     0.98566   0.10085   0.44475   0.00000  Uiso   1.00
N272   N     0.74785   0.55285   0.50007   0.00000  Uiso   1.00
N273   N     0.63715   0.81203   0.13982   0.00000  Uiso   1.00
N274   N     0.07060   0.00323   0.42976   0.00000  Uiso   1.00
N275   N     0.83279   0.45523   0.48508   0.00000  Uiso   1.00
N276   N     0.72209   0.71440   0.12482   0.00000  Uiso   1.00
C277   C     0.71724   0.33055   0.13715   0.00000  Uiso   1.00
C278   C     0.64057   0.38119   0.11825   0.00000  Uiso   1.00
C279   C     0.62342   0.47815   0.09400   0.00000  Uiso   1.00
C280   C     0.54999   0.51058   0.07964   0.00000  Uiso   1.00
C281   C     0.43918   0.59869   0.04881   0.00000  Uiso   1.00
C282   C     0.70610   0.23016   0.10299   0.00000  Uiso   1.00
C283   C     0.74406   0.20014   0.06593   0.00000  Uiso   1.00
C284   C     0.72580   0.10543   0.03874   0.00000  Uiso   1.00
C285   C     0.71677   0.95902   0.98426   0.00000  Uiso   1.00
C286   C     0.73660   0.30161   0.20228   0.00000  Uiso   1.00
C287   C     0.80022   0.33163   0.24869   0.00000  Uiso   1.00
C288   C     0.80765   0.29704   0.30509   0.00000  Uiso   1.00
C289   C     0.84598   0.26157   0.40477   0.00000  Uiso   1.00
C290   C     0.61735   0.21574   0.15478   0.00000  Uiso   1.00
C291   C     0.58631   0.31883   0.12782   0.00000  Uiso   1.00
C292   C     0.51290   0.35112   0.11351   0.00000  Uiso   1.00
C293   C     0.49564   0.44811   0.08924   0.00000  Uiso   1.00
C294   C     0.65185   0.16780   0.11257   0.00000  Uiso   1.00
C295   C     0.63354   0.07311   0.08543   0.00000  Uiso   1.00
C296   C     0.67145   0.04295   0.04833   0.00000  Uiso   1.00
C297   C     0.68235   0.23925   0.21186   0.00000  Uiso   1.00
C298   C     0.68969   0.20460   0.26820   0.00000  Uiso   1.00
C299   C     0.75330   0.23457   0.31468   0.00000  Uiso   1.00
H300   H     0.75949   0.37910   0.12969   0.00000  Uiso   1.00
H301   H     0.66542   0.52638   0.08659   0.00000  Uiso   1.00
H302   H     0.78604   0.24841   0.05853   0.00000  Uiso   1.00
H303   H     0.84219   0.37988   0.24126   0.00000  Uiso   1.00
H304   H     0.53720   0.66216   0.04301   0.00000  Uiso   1.00
H305   H     0.79156   0.07602   0.98385   0.00000  Uiso   1.00
H306   H     0.90996   0.35326   0.36919   0.00000  Uiso   1.00
H307   H     0.57511   0.16718   0.16223   0.00000  Uiso   1.00
H308   H     0.47092   0.30285   0.12092   0.00000  Uiso   1.00
H309   H     0.59155   0.02487   0.09286   0.00000  Uiso   1.00
H310   H     0.64770   0.15635   0.27559   0.00000  Uiso   1.00
H311   H     0.37933   0.48073   0.07087   0.00000  Uiso   1.00
H312   H     0.63370   0.89459   0.01172   0.00000  Uiso   1.00
H313   H     0.75210   0.17183   0.39705   0.00000  Uiso   1.00
O314   O     0.39305   0.66450   0.02915   0.00000  Uiso   1.00
O315   O     0.72677   0.89550   0.95156   0.00000  Uiso   1.00
O316   O     0.88211   0.25924   0.45710   0.00000  Uiso   1.00
N317   N     0.51434   0.60085   0.05525   0.00000  Uiso   1.00
N318   N     0.75215   0.05285   0.99993   0.00000  Uiso   1.00
N319   N     0.86285   0.31203   0.36018   0.00000  Uiso   1.00
N320   N     0.42940   0.50323   0.07024   0.00000  Uiso   1.00
N321   N     0.66721   0.95523   0.01492   0.00000  Uiso   1.00
N322   N     0.77791   0.21440   0.37518   0.00000  Uiso   1.00
C323   C     0.21724   0.83055   0.13715   0.00000  Uiso   1.00
C324   C     0.14057   0.88119   0.11825   0.00000  Uiso   1.00
C325   C     0.12342   0.97815   0.09400   0.00000  Uiso   1.00
C326   C     0.04999   0.01058   0.07964   0.00000  Uiso   1.00
C327   C     0.93918   0.09869   0.04881   0.00000  Uiso   1.00
C328   C     0.20610   0.73016   0.10299   0.00000  Uiso   1.00
C329   C     0.24406   0.70014   0.06593   0.00000  Uiso   1.00
C330   C     0.22580   0.60543   0.03874   0.00000  Uiso   1.00
C331   C     0.21677   0.45902   0.98426   0.00000  Uiso   1.00
C332   C     0.23660   0.80161   0.20228   0.00000  Uiso   1.00
C333   C     0.30022   0.83163   0.24869   0.00000  Uiso   1.00
C334   C     0.30765   0.79704   0.30509   0.00000  Uiso   1.00
C335   C     0.34598   0.76157   0.40477   0.00000  Uiso   1.00
C336   C     0.11735   0.71574   0.15478   0.00000  Uiso   1.00
C337   C     0.08631   0.81883   0.12782   0.00000  Uiso   1.00
C338   C     0.01290   0.85112   0.11351   0.00000  Uiso   1.00
C339   C     0.99564   0.94811   0.08924   0.00000  Uiso   1.00
C340   C     0.15185   0.66780   0.11257   0.00000  Uiso   1.00
C341   C     0.13354   0.57311   0.08543   0.00000  Uiso   1.00
C342   C     0.17145   0.54295   0.04833   0.00000  Uiso   1.00
C343   C     0.18235   0.73925   0.21186   0.00000  Uiso   1.00
C344   C     0.18969   0.70460   0.26820   0.00000  Uiso   1.00
C345   C     0.25330   0.73457   0.31468   0.00000  Uiso   1.00
H346   H     0.25949   0.87910   0.12969   0.00000  Uiso   1.00
H347   H     0.16542   0.02638   0.08659   0.00000  Uiso   1.00
H348   H     0.28604   0.74841   0.05853   0.00000  Uiso   1.00
H349   H     0.34219   0.87988   0.24126   0.00000  Uiso   1.00
H350   H     0.03720   0.16216   0.04301   0.00000  Uiso   1.00
H351   H     0.29156   0.57602   0.98385   0.00000  Uiso   1.00
H352   H     0.40996   0.85326   0.36919   0.00000  Uiso   1.00
H353   H     0.07511   0.66718   0.16223   0.00000  Uiso   1.00
H354   H     0.97092   0.80285   0.12092   0.00000  Uiso   1.00
H355   H     0.09155   0.52487   0.09286   0.00000  Uiso   1.00
H356   H     0.14770   0.65635   0.27559   0.00000  Uiso   1.00
H357   H     0.87933   0.98073   0.07087   0.00000  Uiso   1.00
H358   H     0.13370   0.39459   0.01172   0.00000  Uiso   1.00
H359   H     0.25210   0.67183   0.39705   0.00000  Uiso   1.00
O360   O     0.89305   0.16450   0.02915   0.00000  Uiso   1.00
O361   O     0.22677   0.39550   0.95156   0.00000  Uiso   1.00
O362   O     0.38211   0.75924   0.45710   0.00000  Uiso   1.00
N363   N     0.01434   0.10085   0.05525   0.00000  Uiso   1.00
N364   N     0.25215   0.55285   0.99993   0.00000  Uiso   1.00
N365   N     0.36285   0.81203   0.36018   0.00000  Uiso   1.00
N366   N     0.92940   0.00323   0.07024   0.00000  Uiso   1.00
N367   N     0.16721   0.45523   0.01492   0.00000  Uiso   1.00
N368   N     0.27791   0.71440   0.37518   0.00000  Uiso   1.00
