data_job_03997
_audit_creation_date              2018-12-19
_audit_creation_method            'Materials Studio'
_symmetry_space_group_name_H-M    'P1'
_symmetry_Int_Tables_number       1
_symmetry_cell_setting            triclinic
loop_
_symmetry_equiv_pos_as_xyz
  x,y,z
_cell_length_a                    22.4122
_cell_length_b                    22.4122
_cell_length_c                    13.6082
_cell_angle_alpha                 90.0000
_cell_angle_beta                  90.0000
_cell_angle_gamma                 90.0000
loop_
_atom_site_label
_atom_site_type_symbol
_atom_site_fract_x
_atom_site_fract_y
_atom_site_fract_z
_atom_site_U_iso_or_equiv
_atom_site_adp_type
_atom_site_occupancy
C1     C     0.73928   0.68054   0.03569   0.00000  Uiso   1.00
C2     C     0.80189   0.66984   0.07584   0.00000  Uiso   1.00
C3     C     0.85291   0.66103   0.01989   0.00000  Uiso   1.00
C4     C     0.90593   0.65198   0.07051   0.00000  Uiso   1.00
C5     C     0.00286   0.63538   0.11720   0.00000  Uiso   1.00
C6     C     0.69997   0.63218   0.08065   0.00000  Uiso   1.00
C7     C     0.66528   0.59170   0.02876   0.00000  Uiso   1.00
C8     C     0.63249   0.55095   0.08343   0.00000  Uiso   1.00
C9     C     0.57115   0.47590   0.13761   0.00000  Uiso   1.00
C10    C     0.71833   0.73931   0.08035   0.00000  Uiso   1.00
C11    C     0.69906   0.78892   0.02820   0.00000  Uiso   1.00
C12    C     0.68172   0.83837   0.08262   0.00000  Uiso   1.00
C13    C     0.64889   0.92966   0.13632   0.00000  Uiso   1.00
C14    C     0.74272   0.68014   0.22507   0.00000  Uiso   1.00
C15    C     0.80376   0.66963   0.17870   0.00000  Uiso   1.00
C16    C     0.85672   0.66059   0.22942   0.00000  Uiso   1.00
C17    C     0.90780   0.65177   0.17356   0.00000  Uiso   1.00
C18    C     0.70183   0.63196   0.18351   0.00000  Uiso   1.00
C19    C     0.66909   0.59126   0.23828   0.00000  Uiso   1.00
C20    C     0.63436   0.55074   0.18648   0.00000  Uiso   1.00
C21    C     0.72020   0.73910   0.18321   0.00000  Uiso   1.00
C22    C     0.70287   0.78848   0.23773   0.00000  Uiso   1.00
C23    C     0.68359   0.83815   0.18567   0.00000  Uiso   1.00
H24    H     0.73782   0.68070   0.95560   0.00000  Uiso   1.00
H25    H     0.85144   0.66119   0.94029   0.00000  Uiso   1.00
H26    H     0.66383   0.59188   0.94915   0.00000  Uiso   1.00
H27    H     0.69762   0.78907   0.94860   0.00000  Uiso   1.00
H28    H     0.97823   0.63945   0.96867   0.00000  Uiso   1.00
H29    H     0.58264   0.49331   0.98737   0.00000  Uiso   1.00
H30    H     0.65388   0.90912   0.98619   0.00000  Uiso   1.00
H31    H     0.74417   0.67998   0.30515   0.00000  Uiso   1.00
H32    H     0.85815   0.66043   0.30902   0.00000  Uiso   1.00
H33    H     0.67054   0.59111   0.31788   0.00000  Uiso   1.00
H34    H     0.70433   0.78830   0.31733   0.00000  Uiso   1.00
H35    H     0.98368   0.63882   0.26795   0.00000  Uiso   1.00
H36    H     0.58808   0.49269   0.28664   0.00000  Uiso   1.00
H37    H     0.65932   0.90850   0.28547   0.00000  Uiso   1.00
O38    O     0.05582   0.62627   0.11454   0.00000  Uiso   1.00
O39    O     0.53680   0.43456   0.13907   0.00000  Uiso   1.00
O40    O     0.63027   0.98008   0.13753   0.00000  Uiso   1.00
N41    N     0.96388   0.64199   0.03857   0.00000  Uiso   1.00
N42    N     0.59403   0.50536   0.05605   0.00000  Uiso   1.00
N43    N     0.66061   0.89410   0.05495   0.00000  Uiso   1.00
N44    N     0.96681   0.64166   0.19961   0.00000  Uiso   1.00
N45    N     0.59696   0.50503   0.21709   0.00000  Uiso   1.00
N46    N     0.66354   0.89377   0.21599   0.00000  Uiso   1.00
C47    C     0.23928   0.18054   0.53569   0.00000  Uiso   1.00
C48    C     0.30189   0.16984   0.57584   0.00000  Uiso   1.00
C49    C     0.35291   0.16103   0.51989   0.00000  Uiso   1.00
C50    C     0.40593   0.15198   0.57051   0.00000  Uiso   1.00
C51    C     0.50286   0.13538   0.61720   0.00000  Uiso   1.00
C52    C     0.19997   0.13218   0.58065   0.00000  Uiso   1.00
C53    C     0.16528   0.09170   0.52876   0.00000  Uiso   1.00
C54    C     0.13249   0.05095   0.58343   0.00000  Uiso   1.00
C55    C     0.07115   0.97590   0.63761   0.00000  Uiso   1.00
C56    C     0.21833   0.23931   0.58035   0.00000  Uiso   1.00
C57    C     0.19906   0.28892   0.52820   0.00000  Uiso   1.00
C58    C     0.18172   0.33837   0.58262   0.00000  Uiso   1.00
C59    C     0.14889   0.42966   0.63632   0.00000  Uiso   1.00
C60    C     0.24272   0.18014   0.72507   0.00000  Uiso   1.00
C61    C     0.30376   0.16963   0.67870   0.00000  Uiso   1.00
C62    C     0.35672   0.16059   0.72942   0.00000  Uiso   1.00
C63    C     0.40780   0.15177   0.67356   0.00000  Uiso   1.00
C64    C     0.20183   0.13196   0.68351   0.00000  Uiso   1.00
C65    C     0.16909   0.09126   0.73828   0.00000  Uiso   1.00
C66    C     0.13436   0.05074   0.68648   0.00000  Uiso   1.00
C67    C     0.22020   0.23910   0.68321   0.00000  Uiso   1.00
C68    C     0.20287   0.28848   0.73773   0.00000  Uiso   1.00
C69    C     0.18359   0.33815   0.68567   0.00000  Uiso   1.00
H70    H     0.23782   0.18070   0.45560   0.00000  Uiso   1.00
H71    H     0.35144   0.16119   0.44029   0.00000  Uiso   1.00
H72    H     0.16383   0.09188   0.44915   0.00000  Uiso   1.00
H73    H     0.19762   0.28907   0.44860   0.00000  Uiso   1.00
H74    H     0.47823   0.13945   0.46867   0.00000  Uiso   1.00
H75    H     0.08264   0.99331   0.48737   0.00000  Uiso   1.00
H76    H     0.15388   0.40912   0.48619   0.00000  Uiso   1.00
H77    H     0.24417   0.17998   0.80515   0.00000  Uiso   1.00
H78    H     0.35815   0.16043   0.80902   0.00000  Uiso   1.00
H79    H     0.17054   0.09111   0.81788   0.00000  Uiso   1.00
H80    H     0.20433   0.28830   0.81733   0.00000  Uiso   1.00
H81    H     0.48368   0.13882   0.76795   0.00000  Uiso   1.00
H82    H     0.08808   0.99269   0.78664   0.00000  Uiso   1.00
H83    H     0.15932   0.40850   0.78547   0.00000  Uiso   1.00
O84    O     0.55582   0.12627   0.61454   0.00000  Uiso   1.00
O85    O     0.03680   0.93456   0.63907   0.00000  Uiso   1.00
O86    O     0.13027   0.48008   0.63753   0.00000  Uiso   1.00
N87    N     0.46388   0.14199   0.53857   0.00000  Uiso   1.00
N88    N     0.09403   0.00536   0.55605   0.00000  Uiso   1.00
N89    N     0.16061   0.39410   0.55495   0.00000  Uiso   1.00
N90    N     0.46681   0.14166   0.69961   0.00000  Uiso   1.00
N91    N     0.09696   0.00503   0.71709   0.00000  Uiso   1.00
N92    N     0.16354   0.39377   0.71599   0.00000  Uiso   1.00
C93    C     0.26072   0.31946   0.03569   0.00000  Uiso   1.00
C94    C     0.19811   0.33016   0.07584   0.00000  Uiso   1.00
C95    C     0.14709   0.33897   0.01989   0.00000  Uiso   1.00
C96    C     0.09407   0.34802   0.07051   0.00000  Uiso   1.00
C97    C     0.99714   0.36462   0.11720   0.00000  Uiso   1.00
C98    C     0.30003   0.36782   0.08065   0.00000  Uiso   1.00
C99    C     0.33472   0.40830   0.02876   0.00000  Uiso   1.00
C100   C     0.36751   0.44905   0.08343   0.00000  Uiso   1.00
C101   C     0.42885   0.52410   0.13761   0.00000  Uiso   1.00
C102   C     0.28167   0.26069   0.08035   0.00000  Uiso   1.00
C103   C     0.30094   0.21108   0.02820   0.00000  Uiso   1.00
C104   C     0.31828   0.16163   0.08262   0.00000  Uiso   1.00
C105   C     0.35111   0.07034   0.13632   0.00000  Uiso   1.00
C106   C     0.25728   0.31986   0.22507   0.00000  Uiso   1.00
C107   C     0.19624   0.33037   0.17870   0.00000  Uiso   1.00
C108   C     0.14328   0.33941   0.22942   0.00000  Uiso   1.00
C109   C     0.09220   0.34823   0.17356   0.00000  Uiso   1.00
C110   C     0.29817   0.36804   0.18351   0.00000  Uiso   1.00
C111   C     0.33091   0.40874   0.23828   0.00000  Uiso   1.00
C112   C     0.36564   0.44926   0.18648   0.00000  Uiso   1.00
C113   C     0.27980   0.26090   0.18321   0.00000  Uiso   1.00
C114   C     0.29713   0.21152   0.23773   0.00000  Uiso   1.00
C115   C     0.31641   0.16185   0.18567   0.00000  Uiso   1.00
H116   H     0.26218   0.31930   0.95560   0.00000  Uiso   1.00
H117   H     0.14856   0.33881   0.94029   0.00000  Uiso   1.00
H118   H     0.33617   0.40812   0.94915   0.00000  Uiso   1.00
H119   H     0.30238   0.21093   0.94860   0.00000  Uiso   1.00
H120   H     0.02177   0.36055   0.96867   0.00000  Uiso   1.00
H121   H     0.41736   0.50669   0.98737   0.00000  Uiso   1.00
H122   H     0.34612   0.09088   0.98619   0.00000  Uiso   1.00
H123   H     0.25583   0.32002   0.30515   0.00000  Uiso   1.00
H124   H     0.14185   0.33957   0.30902   0.00000  Uiso   1.00
H125   H     0.32946   0.40889   0.31788   0.00000  Uiso   1.00
H126   H     0.29567   0.21170   0.31733   0.00000  Uiso   1.00
H127   H     0.01632   0.36118   0.26795   0.00000  Uiso   1.00
H128   H     0.41192   0.50731   0.28664   0.00000  Uiso   1.00
H129   H     0.34068   0.09150   0.28547   0.00000  Uiso   1.00
O130   O     0.94418   0.37373   0.11454   0.00000  Uiso   1.00
O131   O     0.46320   0.56544   0.13907   0.00000  Uiso   1.00
O132   O     0.36973   0.01992   0.13753   0.00000  Uiso   1.00
N133   N     0.03612   0.35801   0.03857   0.00000  Uiso   1.00
N134   N     0.40597   0.49464   0.05605   0.00000  Uiso   1.00
N135   N     0.33939   0.10590   0.05495   0.00000  Uiso   1.00
N136   N     0.03319   0.35834   0.19961   0.00000  Uiso   1.00
N137   N     0.40304   0.49497   0.21709   0.00000  Uiso   1.00
N138   N     0.33646   0.10623   0.21599   0.00000  Uiso   1.00
C139   C     0.76072   0.81946   0.53569   0.00000  Uiso   1.00
C140   C     0.69811   0.83016   0.57584   0.00000  Uiso   1.00
C141   C     0.64709   0.83897   0.51989   0.00000  Uiso   1.00
C142   C     0.59407   0.84802   0.57051   0.00000  Uiso   1.00
C143   C     0.49714   0.86462   0.61720   0.00000  Uiso   1.00
C144   C     0.80003   0.86782   0.58065   0.00000  Uiso   1.00
C145   C     0.83472   0.90830   0.52876   0.00000  Uiso   1.00
C146   C     0.86751   0.94905   0.58343   0.00000  Uiso   1.00
C147   C     0.92885   0.02410   0.63761   0.00000  Uiso   1.00
C148   C     0.78167   0.76069   0.58035   0.00000  Uiso   1.00
C149   C     0.80094   0.71108   0.52820   0.00000  Uiso   1.00
C150   C     0.81828   0.66163   0.58262   0.00000  Uiso   1.00
C151   C     0.85111   0.57034   0.63632   0.00000  Uiso   1.00
C152   C     0.75728   0.81986   0.72507   0.00000  Uiso   1.00
C153   C     0.69624   0.83037   0.67870   0.00000  Uiso   1.00
C154   C     0.64328   0.83941   0.72942   0.00000  Uiso   1.00
C155   C     0.59220   0.84823   0.67356   0.00000  Uiso   1.00
C156   C     0.79817   0.86804   0.68351   0.00000  Uiso   1.00
C157   C     0.83091   0.90874   0.73828   0.00000  Uiso   1.00
C158   C     0.86564   0.94926   0.68648   0.00000  Uiso   1.00
C159   C     0.77980   0.76090   0.68321   0.00000  Uiso   1.00
C160   C     0.79713   0.71152   0.73773   0.00000  Uiso   1.00
C161   C     0.81641   0.66185   0.68567   0.00000  Uiso   1.00
H162   H     0.76218   0.81930   0.45560   0.00000  Uiso   1.00
H163   H     0.64856   0.83881   0.44029   0.00000  Uiso   1.00
H164   H     0.83617   0.90812   0.44915   0.00000  Uiso   1.00
H165   H     0.80238   0.71093   0.44860   0.00000  Uiso   1.00
H166   H     0.52177   0.86055   0.46867   0.00000  Uiso   1.00
H167   H     0.91736   0.00669   0.48737   0.00000  Uiso   1.00
H168   H     0.84612   0.59088   0.48619   0.00000  Uiso   1.00
H169   H     0.75583   0.82002   0.80515   0.00000  Uiso   1.00
H170   H     0.64185   0.83957   0.80902   0.00000  Uiso   1.00
H171   H     0.82946   0.90889   0.81788   0.00000  Uiso   1.00
H172   H     0.79567   0.71170   0.81733   0.00000  Uiso   1.00
H173   H     0.51632   0.86118   0.76795   0.00000  Uiso   1.00
H174   H     0.91192   0.00731   0.78664   0.00000  Uiso   1.00
H175   H     0.84068   0.59150   0.78547   0.00000  Uiso   1.00
O176   O     0.44418   0.87373   0.61454   0.00000  Uiso   1.00
O177   O     0.96320   0.06544   0.63907   0.00000  Uiso   1.00
O178   O     0.86973   0.51992   0.63753   0.00000  Uiso   1.00
N179   N     0.53612   0.85801   0.53857   0.00000  Uiso   1.00
N180   N     0.90597   0.99464   0.55605   0.00000  Uiso   1.00
N181   N     0.83939   0.60590   0.55495   0.00000  Uiso   1.00
N182   N     0.53319   0.85834   0.69961   0.00000  Uiso   1.00
N183   N     0.90304   0.99497   0.71709   0.00000  Uiso   1.00
N184   N     0.83646   0.60623   0.71599   0.00000  Uiso   1.00
C185   C     0.68054   0.26072   0.96431   0.00000  Uiso   1.00
C186   C     0.66984   0.19811   0.92416   0.00000  Uiso   1.00
C187   C     0.66103   0.14709   0.98011   0.00000  Uiso   1.00
C188   C     0.65198   0.09407   0.92949   0.00000  Uiso   1.00
C189   C     0.63538   0.99714   0.88280   0.00000  Uiso   1.00
C190   C     0.63218   0.30003   0.91935   0.00000  Uiso   1.00
C191   C     0.59170   0.33472   0.97124   0.00000  Uiso   1.00
C192   C     0.55095   0.36751   0.91657   0.00000  Uiso   1.00
C193   C     0.47590   0.42885   0.86239   0.00000  Uiso   1.00
C194   C     0.73931   0.28167   0.91965   0.00000  Uiso   1.00
C195   C     0.78892   0.30094   0.97180   0.00000  Uiso   1.00
C196   C     0.83837   0.31828   0.91738   0.00000  Uiso   1.00
C197   C     0.92966   0.35111   0.86368   0.00000  Uiso   1.00
C198   C     0.68014   0.25728   0.77493   0.00000  Uiso   1.00
C199   C     0.66963   0.19624   0.82130   0.00000  Uiso   1.00
C200   C     0.66059   0.14328   0.77058   0.00000  Uiso   1.00
C201   C     0.65177   0.09220   0.82644   0.00000  Uiso   1.00
C202   C     0.63196   0.29817   0.81649   0.00000  Uiso   1.00
C203   C     0.59126   0.33091   0.76172   0.00000  Uiso   1.00
C204   C     0.55074   0.36564   0.81352   0.00000  Uiso   1.00
C205   C     0.73910   0.27980   0.81679   0.00000  Uiso   1.00
C206   C     0.78848   0.29713   0.76227   0.00000  Uiso   1.00
C207   C     0.83815   0.31641   0.81433   0.00000  Uiso   1.00
H208   H     0.68070   0.26218   0.04440   0.00000  Uiso   1.00
H209   H     0.66119   0.14856   0.05971   0.00000  Uiso   1.00
H210   H     0.59188   0.33617   0.05085   0.00000  Uiso   1.00
H211   H     0.78907   0.30238   0.05140   0.00000  Uiso   1.00
H212   H     0.63945   0.02177   0.03133   0.00000  Uiso   1.00
H213   H     0.49331   0.41736   0.01263   0.00000  Uiso   1.00
H214   H     0.90912   0.34612   0.01381   0.00000  Uiso   1.00
H215   H     0.67998   0.25583   0.69485   0.00000  Uiso   1.00
H216   H     0.66043   0.14185   0.69098   0.00000  Uiso   1.00
H217   H     0.59111   0.32946   0.68212   0.00000  Uiso   1.00
H218   H     0.78830   0.29567   0.68267   0.00000  Uiso   1.00
H219   H     0.63882   0.01632   0.73205   0.00000  Uiso   1.00
H220   H     0.49269   0.41192   0.71336   0.00000  Uiso   1.00
H221   H     0.90850   0.34068   0.71453   0.00000  Uiso   1.00
O222   O     0.62627   0.94418   0.88546   0.00000  Uiso   1.00
O223   O     0.43456   0.46320   0.86093   0.00000  Uiso   1.00
O224   O     0.98008   0.36973   0.86247   0.00000  Uiso   1.00
N225   N     0.64199   0.03612   0.96143   0.00000  Uiso   1.00
N226   N     0.50536   0.40597   0.94395   0.00000  Uiso   1.00
N227   N     0.89410   0.33939   0.94505   0.00000  Uiso   1.00
N228   N     0.64166   0.03319   0.80039   0.00000  Uiso   1.00
N229   N     0.50503   0.40304   0.78291   0.00000  Uiso   1.00
N230   N     0.89377   0.33646   0.78401   0.00000  Uiso   1.00
C231   C     0.18054   0.76072   0.46431   0.00000  Uiso   1.00
C232   C     0.16984   0.69811   0.42416   0.00000  Uiso   1.00
C233   C     0.16103   0.64709   0.48011   0.00000  Uiso   1.00
C234   C     0.15198   0.59407   0.42949   0.00000  Uiso   1.00
C235   C     0.13538   0.49714   0.38280   0.00000  Uiso   1.00
C236   C     0.13218   0.80003   0.41935   0.00000  Uiso   1.00
C237   C     0.09170   0.83472   0.47124   0.00000  Uiso   1.00
C238   C     0.05095   0.86751   0.41657   0.00000  Uiso   1.00
C239   C     0.97590   0.92885   0.36239   0.00000  Uiso   1.00
C240   C     0.23931   0.78167   0.41965   0.00000  Uiso   1.00
C241   C     0.28892   0.80094   0.47180   0.00000  Uiso   1.00
C242   C     0.33837   0.81828   0.41738   0.00000  Uiso   1.00
C243   C     0.42966   0.85111   0.36368   0.00000  Uiso   1.00
C244   C     0.18014   0.75728   0.27493   0.00000  Uiso   1.00
C245   C     0.16963   0.69624   0.32130   0.00000  Uiso   1.00
C246   C     0.16059   0.64328   0.27058   0.00000  Uiso   1.00
C247   C     0.15177   0.59220   0.32644   0.00000  Uiso   1.00
C248   C     0.13196   0.79817   0.31649   0.00000  Uiso   1.00
C249   C     0.09126   0.83091   0.26172   0.00000  Uiso   1.00
C250   C     0.05074   0.86564   0.31352   0.00000  Uiso   1.00
C251   C     0.23910   0.77980   0.31679   0.00000  Uiso   1.00
C252   C     0.28848   0.79713   0.26227   0.00000  Uiso   1.00
C253   C     0.33815   0.81641   0.31433   0.00000  Uiso   1.00
H254   H     0.18070   0.76218   0.54440   0.00000  Uiso   1.00
H255   H     0.16119   0.64856   0.55971   0.00000  Uiso   1.00
H256   H     0.09188   0.83617   0.55085   0.00000  Uiso   1.00
H257   H     0.28907   0.80238   0.55140   0.00000  Uiso   1.00
H258   H     0.13945   0.52177   0.53133   0.00000  Uiso   1.00
H259   H     0.99331   0.91736   0.51263   0.00000  Uiso   1.00
H260   H     0.40912   0.84612   0.51381   0.00000  Uiso   1.00
H261   H     0.17998   0.75583   0.19485   0.00000  Uiso   1.00
H262   H     0.16043   0.64185   0.19098   0.00000  Uiso   1.00
H263   H     0.09111   0.82946   0.18212   0.00000  Uiso   1.00
H264   H     0.28830   0.79567   0.18267   0.00000  Uiso   1.00
H265   H     0.13882   0.51632   0.23205   0.00000  Uiso   1.00
H266   H     0.99269   0.91192   0.21336   0.00000  Uiso   1.00
H267   H     0.40850   0.84068   0.21453   0.00000  Uiso   1.00
O268   O     0.12627   0.44418   0.38546   0.00000  Uiso   1.00
O269   O     0.93456   0.96320   0.36093   0.00000  Uiso   1.00
O270   O     0.48008   0.86973   0.36247   0.00000  Uiso   1.00
N271   N     0.14199   0.53612   0.46143   0.00000  Uiso   1.00
N272   N     0.00536   0.90597   0.44395   0.00000  Uiso   1.00
N273   N     0.39410   0.83939   0.44505   0.00000  Uiso   1.00
N274   N     0.14166   0.53319   0.30039   0.00000  Uiso   1.00
N275   N     0.00503   0.90304   0.28291   0.00000  Uiso   1.00
N276   N     0.39377   0.83646   0.28401   0.00000  Uiso   1.00
C277   C     0.31946   0.73928   0.96431   0.00000  Uiso   1.00
C278   C     0.33016   0.80189   0.92416   0.00000  Uiso   1.00
C279   C     0.33897   0.85291   0.98011   0.00000  Uiso   1.00
C280   C     0.34802   0.90593   0.92949   0.00000  Uiso   1.00
C281   C     0.36462   0.00286   0.88280   0.00000  Uiso   1.00
C282   C     0.36782   0.69997   0.91935   0.00000  Uiso   1.00
C283   C     0.40830   0.66528   0.97124   0.00000  Uiso   1.00
C284   C     0.44905   0.63249   0.91657   0.00000  Uiso   1.00
C285   C     0.52410   0.57115   0.86239   0.00000  Uiso   1.00
C286   C     0.26069   0.71833   0.91965   0.00000  Uiso   1.00
C287   C     0.21108   0.69906   0.97180   0.00000  Uiso   1.00
C288   C     0.16163   0.68172   0.91738   0.00000  Uiso   1.00
C289   C     0.07034   0.64889   0.86368   0.00000  Uiso   1.00
C290   C     0.31986   0.74272   0.77493   0.00000  Uiso   1.00
C291   C     0.33037   0.80376   0.82130   0.00000  Uiso   1.00
C292   C     0.33941   0.85672   0.77058   0.00000  Uiso   1.00
C293   C     0.34823   0.90780   0.82644   0.00000  Uiso   1.00
C294   C     0.36804   0.70183   0.81649   0.00000  Uiso   1.00
C295   C     0.40874   0.66909   0.76172   0.00000  Uiso   1.00
C296   C     0.44926   0.63436   0.81352   0.00000  Uiso   1.00
C297   C     0.26090   0.72020   0.81679   0.00000  Uiso   1.00
C298   C     0.21152   0.70287   0.76227   0.00000  Uiso   1.00
C299   C     0.16185   0.68359   0.81433   0.00000  Uiso   1.00
H300   H     0.31930   0.73782   0.04440   0.00000  Uiso   1.00
H301   H     0.33881   0.85144   0.05971   0.00000  Uiso   1.00
H302   H     0.40812   0.66383   0.05085   0.00000  Uiso   1.00
H303   H     0.21093   0.69762   0.05140   0.00000  Uiso   1.00
H304   H     0.36055   0.97823   0.03133   0.00000  Uiso   1.00
H305   H     0.50669   0.58264   0.01263   0.00000  Uiso   1.00
H306   H     0.09088   0.65388   0.01381   0.00000  Uiso   1.00
H307   H     0.32002   0.74417   0.69485   0.00000  Uiso   1.00
H308   H     0.33957   0.85815   0.69098   0.00000  Uiso   1.00
H309   H     0.40889   0.67054   0.68212   0.00000  Uiso   1.00
H310   H     0.21170   0.70433   0.68267   0.00000  Uiso   1.00
H311   H     0.36118   0.98368   0.73205   0.00000  Uiso   1.00
H312   H     0.50731   0.58808   0.71336   0.00000  Uiso   1.00
H313   H     0.09150   0.65932   0.71453   0.00000  Uiso   1.00
O314   O     0.37373   0.05582   0.88546   0.00000  Uiso   1.00
O315   O     0.56544   0.53680   0.86093   0.00000  Uiso   1.00
O316   O     0.01992   0.63027   0.86247   0.00000  Uiso   1.00
N317   N     0.35801   0.96388   0.96143   0.00000  Uiso   1.00
N318   N     0.49464   0.59403   0.94395   0.00000  Uiso   1.00
N319   N     0.10590   0.66061   0.94505   0.00000  Uiso   1.00
N320   N     0.35834   0.96681   0.80039   0.00000  Uiso   1.00
N321   N     0.49497   0.59696   0.78291   0.00000  Uiso   1.00
N322   N     0.10623   0.66354   0.78401   0.00000  Uiso   1.00
C323   C     0.81946   0.23928   0.46431   0.00000  Uiso   1.00
C324   C     0.83016   0.30189   0.42416   0.00000  Uiso   1.00
C325   C     0.83897   0.35291   0.48011   0.00000  Uiso   1.00
C326   C     0.84802   0.40593   0.42949   0.00000  Uiso   1.00
C327   C     0.86462   0.50286   0.38280   0.00000  Uiso   1.00
C328   C     0.86782   0.19997   0.41935   0.00000  Uiso   1.00
C329   C     0.90830   0.16528   0.47124   0.00000  Uiso   1.00
C330   C     0.94905   0.13249   0.41657   0.00000  Uiso   1.00
C331   C     0.02410   0.07115   0.36239   0.00000  Uiso   1.00
C332   C     0.76069   0.21833   0.41965   0.00000  Uiso   1.00
C333   C     0.71108   0.19906   0.47180   0.00000  Uiso   1.00
C334   C     0.66163   0.18172   0.41738   0.00000  Uiso   1.00
C335   C     0.57034   0.14889   0.36368   0.00000  Uiso   1.00
C336   C     0.81986   0.24272   0.27493   0.00000  Uiso   1.00
C337   C     0.83037   0.30376   0.32130   0.00000  Uiso   1.00
C338   C     0.83941   0.35672   0.27058   0.00000  Uiso   1.00
C339   C     0.84823   0.40780   0.32644   0.00000  Uiso   1.00
C340   C     0.86804   0.20183   0.31649   0.00000  Uiso   1.00
C341   C     0.90874   0.16909   0.26172   0.00000  Uiso   1.00
C342   C     0.94926   0.13436   0.31352   0.00000  Uiso   1.00
C343   C     0.76090   0.22020   0.31679   0.00000  Uiso   1.00
C344   C     0.71152   0.20287   0.26227   0.00000  Uiso   1.00
C345   C     0.66185   0.18359   0.31433   0.00000  Uiso   1.00
H346   H     0.81930   0.23782   0.54440   0.00000  Uiso   1.00
H347   H     0.83881   0.35144   0.55971   0.00000  Uiso   1.00
H348   H     0.90812   0.16383   0.55085   0.00000  Uiso   1.00
H349   H     0.71093   0.19762   0.55140   0.00000  Uiso   1.00
H350   H     0.86055   0.47823   0.53133   0.00000  Uiso   1.00
H351   H     0.00669   0.08264   0.51263   0.00000  Uiso   1.00
H352   H     0.59088   0.15388   0.51381   0.00000  Uiso   1.00
H353   H     0.82002   0.24417   0.19485   0.00000  Uiso   1.00
H354   H     0.83957   0.35815   0.19098   0.00000  Uiso   1.00
H355   H     0.90889   0.17054   0.18212   0.00000  Uiso   1.00
H356   H     0.71170   0.20433   0.18267   0.00000  Uiso   1.00
H357   H     0.86118   0.48368   0.23205   0.00000  Uiso   1.00
H358   H     0.00731   0.08808   0.21336   0.00000  Uiso   1.00
H359   H     0.59150   0.15932   0.21453   0.00000  Uiso   1.00
O360   O     0.87373   0.55582   0.38546   0.00000  Uiso   1.00
O361   O     0.06544   0.03680   0.36093   0.00000  Uiso   1.00
O362   O     0.51992   0.13027   0.36247   0.00000  Uiso   1.00
N363   N     0.85801   0.46388   0.46143   0.00000  Uiso   1.00
N364   N     0.99464   0.09403   0.44395   0.00000  Uiso   1.00
N365   N     0.60590   0.16061   0.44505   0.00000  Uiso   1.00
N366   N     0.85834   0.46681   0.30039   0.00000  Uiso   1.00
N367   N     0.99497   0.09696   0.28291   0.00000  Uiso   1.00
N368   N     0.60623   0.16354   0.28401   0.00000  Uiso   1.00
