data_job_00548
_audit_creation_date              2018-12-19
_audit_creation_method            'Materials Studio'
_symmetry_space_group_name_H-M    'P1'
_symmetry_Int_Tables_number       1
_symmetry_cell_setting            triclinic
loop_
_symmetry_equiv_pos_as_xyz
  x,y,z
_cell_length_a                    15.1117
_cell_length_b                    36.4844
_cell_length_c                    9.8285
_cell_angle_alpha                 90.0000
_cell_angle_beta                  84.7312
_cell_angle_gamma                 90.0000
loop_
_atom_site_label
_atom_site_type_symbol
_atom_site_fract_x
_atom_site_fract_y
_atom_site_fract_z
_atom_site_U_iso_or_equiv
_atom_site_adp_type
_atom_site_occupancy
C1     C     0.05624   0.12046   0.17272   0.00000  Uiso   1.00
C2     C     0.11709   0.09680   0.07651   0.00000  Uiso   1.00
C3     C     0.20713   0.10269   0.04244   0.00000  Uiso   1.00
C4     C     0.25107   0.07794   0.95264   0.00000  Uiso   1.00
C5     C     0.35233   0.04570   0.81136   0.00000  Uiso   1.00
C6     C     0.98045   0.13258   0.09079   0.00000  Uiso   1.00
C7     C     0.95559   0.16856   0.06876   0.00000  Uiso   1.00
C8     C     0.88449   0.17394   0.99099   0.00000  Uiso   1.00
C9     C     0.77356   0.19727   0.87198   0.00000  Uiso   1.00
C10    C     0.01493   0.09469   0.28308   0.00000  Uiso   1.00
C11    C     0.01905   0.09882   0.42273   0.00000  Uiso   1.00
C12    C     0.97696   0.07230   0.50687   0.00000  Uiso   1.00
C13    C     0.91959   0.03680   0.68641   0.00000  Uiso   1.00
C14    C     0.97417   0.06603   0.07383   0.00000  Uiso   1.00
C15    C     0.07251   0.06723   0.02279   0.00000  Uiso   1.00
C16    C     0.11633   0.04247   0.93302   0.00000  Uiso   1.00
C17    C     0.20641   0.04832   0.89883   0.00000  Uiso   1.00
C18    C     0.93587   0.10302   0.03707   0.00000  Uiso   1.00
C19    C     0.86478   0.10835   0.95934   0.00000  Uiso   1.00
C20    C     0.83983   0.14432   0.93718   0.00000  Uiso   1.00
C21    C     0.97035   0.06513   0.22937   0.00000  Uiso   1.00
C22    C     0.92825   0.03860   0.31331   0.00000  Uiso   1.00
C23    C     0.93230   0.04269   0.45306   0.00000  Uiso   1.00
H24    H     0.09094   0.14347   0.21454   0.00000  Uiso   1.00
H25    H     0.24160   0.12557   0.08402   0.00000  Uiso   1.00
H26    H     0.99009   0.19143   0.11035   0.00000  Uiso   1.00
H27    H     0.05355   0.12170   0.46426   0.00000  Uiso   1.00
H28    H     0.38897   0.09269   0.91559   0.00000  Uiso   1.00
H29    H     0.85863   0.23157   0.97114   0.00000  Uiso   1.00
H30    H     0.99244   0.08453   0.71744   0.00000  Uiso   1.00
H31    H     0.93946   0.04301   0.03200   0.00000  Uiso   1.00
H32    H     0.08181   0.01959   0.89147   0.00000  Uiso   1.00
H33    H     0.83030   0.08546   0.91779   0.00000  Uiso   1.00
H34    H     0.89376   0.01573   0.27170   0.00000  Uiso   1.00
H35    H     0.25928   0.00668   0.75930   0.00000  Uiso   1.00
H36    H     0.72893   0.14556   0.81485   0.00000  Uiso   1.00
H37    H     0.86275   0.99851   0.56115   0.00000  Uiso   1.00
O38    O     0.42050   0.03610   0.74825   0.00000  Uiso   1.00
O39    O     0.72470   0.21830   0.82116   0.00000  Uiso   1.00
O40    O     0.90026   0.02538   0.80028   0.00000  Uiso   1.00
N41    N     0.33892   0.07565   0.89811   0.00000  Uiso   1.00
N42    N     0.84309   0.20550   0.95003   0.00000  Uiso   1.00
N43    N     0.96817   0.06803   0.64776   0.00000  Uiso   1.00
N44    N     0.26913   0.02937   0.81402   0.00000  Uiso   1.00
N45    N     0.77330   0.15922   0.86593   0.00000  Uiso   1.00
N46    N     0.89838   0.02175   0.56367   0.00000  Uiso   1.00
C47    C     0.45649   0.62982   0.39098   0.00000  Uiso   1.00
C48    C     0.51782   0.60633   0.29485   0.00000  Uiso   1.00
C49    C     0.60719   0.61306   0.25792   0.00000  Uiso   1.00
C50    C     0.65173   0.58832   0.16874   0.00000  Uiso   1.00
C51    C     0.75355   0.55648   0.02708   0.00000  Uiso   1.00
C52    C     0.37889   0.64060   0.31052   0.00000  Uiso   1.00
C53    C     0.35144   0.67614   0.28680   0.00000  Uiso   1.00
C54    C     0.27903   0.68025   0.21082   0.00000  Uiso   1.00
C55    C     0.16511   0.70161   0.09358   0.00000  Uiso   1.00
C56    C     0.41806   0.60422   0.50401   0.00000  Uiso   1.00
C57    C     0.42352   0.60918   0.64299   0.00000  Uiso   1.00
C58    C     0.38406   0.58267   0.72993   0.00000  Uiso   1.00
C59    C     0.33096   0.54755   0.91312   0.00000  Uiso   1.00
C60    C     0.37667   0.57391   0.29825   0.00000  Uiso   1.00
C61    C     0.47446   0.57596   0.24448   0.00000  Uiso   1.00
C62    C     0.51888   0.55120   0.15533   0.00000  Uiso   1.00
C63    C     0.60830   0.55790   0.11829   0.00000  Uiso   1.00
C64    C     0.33554   0.61023   0.26015   0.00000  Uiso   1.00
C65    C     0.26314   0.61429   0.18421   0.00000  Uiso   1.00
C66    C     0.23559   0.64983   0.16037   0.00000  Uiso   1.00
C67    C     0.37471   0.57385   0.45365   0.00000  Uiso   1.00
C68    C     0.33522   0.54733   0.54039   0.00000  Uiso   1.00
C69    C     0.34063   0.55225   0.67947   0.00000  Uiso   1.00
H70    H     0.49024   0.65346   0.43019   0.00000  Uiso   1.00
H71    H     0.64071   0.63656   0.29691   0.00000  Uiso   1.00
H72    H     0.38500   0.69964   0.32580   0.00000  Uiso   1.00
H73    H     0.45707   0.63269   0.68193   0.00000  Uiso   1.00
H74    H     0.78842   0.60445   0.12690   0.00000  Uiso   1.00
H75    H     0.24922   0.73744   0.18785   0.00000  Uiso   1.00
H76    H     0.40119   0.59626   0.93882   0.00000  Uiso   1.00
H77    H     0.34292   0.55027   0.25904   0.00000  Uiso   1.00
H78    H     0.48532   0.52771   0.11637   0.00000  Uiso   1.00
H79    H     0.22960   0.59078   0.14525   0.00000  Uiso   1.00
H80    H     0.30168   0.52383   0.50138   0.00000  Uiso   1.00
H81    H     0.66229   0.51610   0.98036   0.00000  Uiso   1.00
H82    H     0.12309   0.64909   0.04131   0.00000  Uiso   1.00
H83    H     0.27507   0.50791   0.79228   0.00000  Uiso   1.00
O84    O     0.82168   0.54730   0.96284   0.00000  Uiso   1.00
O85    O     0.11426   0.72178   0.04282   0.00000  Uiso   1.00
O86    O     0.31366   0.53656   0.02807   0.00000  Uiso   1.00
N87    N     0.73920   0.58675   0.11202   0.00000  Uiso   1.00
N88    N     0.23509   0.71109   0.16897   0.00000  Uiso   1.00
N89    N     0.37715   0.57910   0.87107   0.00000  Uiso   1.00
N90    N     0.67133   0.53921   0.03317   0.00000  Uiso   1.00
N91    N     0.16722   0.66355   0.09013   0.00000  Uiso   1.00
N92    N     0.30928   0.53156   0.79223   0.00000  Uiso   1.00
C93    C     0.94376   0.62046   0.32728   0.00000  Uiso   1.00
C94    C     0.88291   0.59680   0.42349   0.00000  Uiso   1.00
C95    C     0.79287   0.60269   0.45756   0.00000  Uiso   1.00
C96    C     0.74893   0.57794   0.54736   0.00000  Uiso   1.00
C97    C     0.64767   0.54570   0.68864   0.00000  Uiso   1.00
C98    C     0.01955   0.63258   0.40921   0.00000  Uiso   1.00
C99    C     0.04441   0.66856   0.43124   0.00000  Uiso   1.00
C100   C     0.11551   0.67394   0.50901   0.00000  Uiso   1.00
C101   C     0.22644   0.69727   0.62802   0.00000  Uiso   1.00
C102   C     0.98507   0.59469   0.21692   0.00000  Uiso   1.00
C103   C     0.98095   0.59882   0.07727   0.00000  Uiso   1.00
C104   C     0.02304   0.57230   0.99313   0.00000  Uiso   1.00
C105   C     0.08041   0.53680   0.81359   0.00000  Uiso   1.00
C106   C     0.02583   0.56603   0.42617   0.00000  Uiso   1.00
C107   C     0.92749   0.56723   0.47721   0.00000  Uiso   1.00
C108   C     0.88367   0.54247   0.56698   0.00000  Uiso   1.00
C109   C     0.79359   0.54832   0.60117   0.00000  Uiso   1.00
C110   C     0.06413   0.60302   0.46293   0.00000  Uiso   1.00
C111   C     0.13522   0.60835   0.54066   0.00000  Uiso   1.00
C112   C     0.16017   0.64432   0.56282   0.00000  Uiso   1.00
C113   C     0.02965   0.56513   0.27063   0.00000  Uiso   1.00
C114   C     0.07175   0.53860   0.18669   0.00000  Uiso   1.00
C115   C     0.06770   0.54269   0.04694   0.00000  Uiso   1.00
H116   H     0.90906   0.64347   0.28546   0.00000  Uiso   1.00
H117   H     0.75840   0.62557   0.41598   0.00000  Uiso   1.00
H118   H     0.00991   0.69143   0.38965   0.00000  Uiso   1.00
H119   H     0.94645   0.62170   0.03574   0.00000  Uiso   1.00
H120   H     0.61103   0.59269   0.58441   0.00000  Uiso   1.00
H121   H     0.14137   0.73157   0.52886   0.00000  Uiso   1.00
H122   H     0.00756   0.58453   0.78256   0.00000  Uiso   1.00
H123   H     0.06054   0.54301   0.46800   0.00000  Uiso   1.00
H124   H     0.91819   0.51959   0.60853   0.00000  Uiso   1.00
H125   H     0.16970   0.58546   0.58221   0.00000  Uiso   1.00
H126   H     0.10624   0.51573   0.22830   0.00000  Uiso   1.00
H127   H     0.74072   0.50668   0.74070   0.00000  Uiso   1.00
H128   H     0.27107   0.64556   0.68515   0.00000  Uiso   1.00
H129   H     0.13725   0.49851   0.93885   0.00000  Uiso   1.00
O130   O     0.57950   0.53610   0.75175   0.00000  Uiso   1.00
O131   O     0.27530   0.71830   0.67884   0.00000  Uiso   1.00
O132   O     0.09974   0.52538   0.69972   0.00000  Uiso   1.00
N133   N     0.66108   0.57565   0.60189   0.00000  Uiso   1.00
N134   N     0.15691   0.70550   0.54997   0.00000  Uiso   1.00
N135   N     0.03183   0.56803   0.85224   0.00000  Uiso   1.00
N136   N     0.73087   0.52937   0.68598   0.00000  Uiso   1.00
N137   N     0.22670   0.65922   0.63407   0.00000  Uiso   1.00
N138   N     0.10162   0.52175   0.93633   0.00000  Uiso   1.00
C139   C     0.54351   0.12982   0.10902   0.00000  Uiso   1.00
C140   C     0.48218   0.10633   0.20515   0.00000  Uiso   1.00
C141   C     0.39281   0.11306   0.24208   0.00000  Uiso   1.00
C142   C     0.34827   0.08832   0.33126   0.00000  Uiso   1.00
C143   C     0.24645   0.05648   0.47292   0.00000  Uiso   1.00
C144   C     0.62111   0.14060   0.18948   0.00000  Uiso   1.00
C145   C     0.64856   0.17614   0.21320   0.00000  Uiso   1.00
C146   C     0.72097   0.18025   0.28918   0.00000  Uiso   1.00
C147   C     0.83489   0.20161   0.40642   0.00000  Uiso   1.00
C148   C     0.58194   0.10422   0.99599   0.00000  Uiso   1.00
C149   C     0.57648   0.10918   0.85701   0.00000  Uiso   1.00
C150   C     0.61594   0.08267   0.77007   0.00000  Uiso   1.00
C151   C     0.66904   0.04755   0.58688   0.00000  Uiso   1.00
C152   C     0.62333   0.07391   0.20175   0.00000  Uiso   1.00
C153   C     0.52554   0.07596   0.25552   0.00000  Uiso   1.00
C154   C     0.48112   0.05120   0.34467   0.00000  Uiso   1.00
C155   C     0.39170   0.05790   0.38171   0.00000  Uiso   1.00
C156   C     0.66446   0.11023   0.23985   0.00000  Uiso   1.00
C157   C     0.73686   0.11429   0.31579   0.00000  Uiso   1.00
C158   C     0.76441   0.14983   0.33963   0.00000  Uiso   1.00
C159   C     0.62529   0.07385   0.04635   0.00000  Uiso   1.00
C160   C     0.66478   0.04733   0.95961   0.00000  Uiso   1.00
C161   C     0.65937   0.05225   0.82053   0.00000  Uiso   1.00
H162   H     0.50976   0.15346   0.06981   0.00000  Uiso   1.00
H163   H     0.35929   0.13656   0.20309   0.00000  Uiso   1.00
H164   H     0.61500   0.19964   0.17420   0.00000  Uiso   1.00
H165   H     0.54293   0.13269   0.81807   0.00000  Uiso   1.00
H166   H     0.21158   0.10445   0.37310   0.00000  Uiso   1.00
H167   H     0.75078   0.23744   0.31215   0.00000  Uiso   1.00
H168   H     0.59881   0.09626   0.56118   0.00000  Uiso   1.00
H169   H     0.65708   0.05027   0.24096   0.00000  Uiso   1.00
H170   H     0.51468   0.02771   0.38363   0.00000  Uiso   1.00
H171   H     0.77040   0.09078   0.35475   0.00000  Uiso   1.00
H172   H     0.69832   0.02383   0.99862   0.00000  Uiso   1.00
H173   H     0.33771   0.01610   0.51964   0.00000  Uiso   1.00
H174   H     0.87691   0.14909   0.45869   0.00000  Uiso   1.00
H175   H     0.72493   0.00791   0.70772   0.00000  Uiso   1.00
O176   O     0.17832   0.04730   0.53716   0.00000  Uiso   1.00
O177   O     0.88574   0.22178   0.45718   0.00000  Uiso   1.00
O178   O     0.68634   0.03656   0.47193   0.00000  Uiso   1.00
N179   N     0.26080   0.08675   0.38798   0.00000  Uiso   1.00
N180   N     0.76491   0.21109   0.33103   0.00000  Uiso   1.00
N181   N     0.62285   0.07910   0.62893   0.00000  Uiso   1.00
N182   N     0.32867   0.03921   0.46683   0.00000  Uiso   1.00
N183   N     0.83278   0.16355   0.40987   0.00000  Uiso   1.00
N184   N     0.69072   0.03156   0.70777   0.00000  Uiso   1.00
C185   C     0.94376   0.87954   0.82728   0.00000  Uiso   1.00
C186   C     0.88291   0.90320   0.92349   0.00000  Uiso   1.00
C187   C     0.79287   0.89731   0.95756   0.00000  Uiso   1.00
C188   C     0.74893   0.92206   0.04736   0.00000  Uiso   1.00
C189   C     0.64767   0.95430   0.18864   0.00000  Uiso   1.00
C190   C     0.01955   0.86742   0.90921   0.00000  Uiso   1.00
C191   C     0.04441   0.83144   0.93124   0.00000  Uiso   1.00
C192   C     0.11551   0.82606   0.00901   0.00000  Uiso   1.00
C193   C     0.22644   0.80273   0.12802   0.00000  Uiso   1.00
C194   C     0.98507   0.90531   0.71692   0.00000  Uiso   1.00
C195   C     0.98095   0.90118   0.57727   0.00000  Uiso   1.00
C196   C     0.02304   0.92770   0.49313   0.00000  Uiso   1.00
C197   C     0.08041   0.96320   0.31359   0.00000  Uiso   1.00
C198   C     0.02583   0.93397   0.92617   0.00000  Uiso   1.00
C199   C     0.92749   0.93277   0.97721   0.00000  Uiso   1.00
C200   C     0.88367   0.95753   0.06698   0.00000  Uiso   1.00
C201   C     0.79359   0.95168   0.10117   0.00000  Uiso   1.00
C202   C     0.06413   0.89698   0.96293   0.00000  Uiso   1.00
C203   C     0.13522   0.89165   0.04066   0.00000  Uiso   1.00
C204   C     0.16017   0.85568   0.06282   0.00000  Uiso   1.00
C205   C     0.02965   0.93487   0.77063   0.00000  Uiso   1.00
C206   C     0.07175   0.96140   0.68669   0.00000  Uiso   1.00
C207   C     0.06770   0.95731   0.54694   0.00000  Uiso   1.00
H208   H     0.90906   0.85653   0.78546   0.00000  Uiso   1.00
H209   H     0.75840   0.87443   0.91598   0.00000  Uiso   1.00
H210   H     0.00991   0.80857   0.88965   0.00000  Uiso   1.00
H211   H     0.94645   0.87830   0.53574   0.00000  Uiso   1.00
H212   H     0.61103   0.90731   0.08441   0.00000  Uiso   1.00
H213   H     0.14137   0.76843   0.02886   0.00000  Uiso   1.00
H214   H     0.00756   0.91547   0.28256   0.00000  Uiso   1.00
H215   H     0.06054   0.95699   0.96800   0.00000  Uiso   1.00
H216   H     0.91819   0.98041   0.10853   0.00000  Uiso   1.00
H217   H     0.16970   0.91454   0.08221   0.00000  Uiso   1.00
H218   H     0.10624   0.98427   0.72830   0.00000  Uiso   1.00
H219   H     0.74072   0.99332   0.24070   0.00000  Uiso   1.00
H220   H     0.27107   0.85444   0.18515   0.00000  Uiso   1.00
H221   H     0.13725   0.00149   0.43885   0.00000  Uiso   1.00
O222   O     0.57950   0.96390   0.25175   0.00000  Uiso   1.00
O223   O     0.27530   0.78170   0.17884   0.00000  Uiso   1.00
O224   O     0.09974   0.97462   0.19972   0.00000  Uiso   1.00
N225   N     0.66108   0.92435   0.10189   0.00000  Uiso   1.00
N226   N     0.15691   0.79450   0.04997   0.00000  Uiso   1.00
N227   N     0.03183   0.93197   0.35224   0.00000  Uiso   1.00
N228   N     0.73087   0.97063   0.18598   0.00000  Uiso   1.00
N229   N     0.22670   0.84078   0.13407   0.00000  Uiso   1.00
N230   N     0.10162   0.97825   0.43633   0.00000  Uiso   1.00
C231   C     0.54351   0.37018   0.60902   0.00000  Uiso   1.00
C232   C     0.48218   0.39367   0.70515   0.00000  Uiso   1.00
C233   C     0.39281   0.38694   0.74208   0.00000  Uiso   1.00
C234   C     0.34827   0.41168   0.83126   0.00000  Uiso   1.00
C235   C     0.24645   0.44352   0.97292   0.00000  Uiso   1.00
C236   C     0.62111   0.35940   0.68948   0.00000  Uiso   1.00
C237   C     0.64856   0.32386   0.71320   0.00000  Uiso   1.00
C238   C     0.72097   0.31975   0.78918   0.00000  Uiso   1.00
C239   C     0.83489   0.29839   0.90642   0.00000  Uiso   1.00
C240   C     0.58194   0.39578   0.49599   0.00000  Uiso   1.00
C241   C     0.57648   0.39082   0.35701   0.00000  Uiso   1.00
C242   C     0.61594   0.41733   0.27007   0.00000  Uiso   1.00
C243   C     0.66904   0.45245   0.08688   0.00000  Uiso   1.00
C244   C     0.62333   0.42609   0.70175   0.00000  Uiso   1.00
C245   C     0.52554   0.42404   0.75552   0.00000  Uiso   1.00
C246   C     0.48112   0.44880   0.84467   0.00000  Uiso   1.00
C247   C     0.39170   0.44210   0.88171   0.00000  Uiso   1.00
C248   C     0.66446   0.38977   0.73985   0.00000  Uiso   1.00
C249   C     0.73686   0.38571   0.81579   0.00000  Uiso   1.00
C250   C     0.76441   0.35017   0.83963   0.00000  Uiso   1.00
C251   C     0.62529   0.42615   0.54635   0.00000  Uiso   1.00
C252   C     0.66478   0.45267   0.45961   0.00000  Uiso   1.00
C253   C     0.65937   0.44775   0.32053   0.00000  Uiso   1.00
H254   H     0.50976   0.34654   0.56981   0.00000  Uiso   1.00
H255   H     0.35929   0.36344   0.70309   0.00000  Uiso   1.00
H256   H     0.61500   0.30036   0.67420   0.00000  Uiso   1.00
H257   H     0.54293   0.36731   0.31807   0.00000  Uiso   1.00
H258   H     0.21158   0.39555   0.87310   0.00000  Uiso   1.00
H259   H     0.75078   0.26256   0.81215   0.00000  Uiso   1.00
H260   H     0.59881   0.40374   0.06118   0.00000  Uiso   1.00
H261   H     0.65708   0.44973   0.74096   0.00000  Uiso   1.00
H262   H     0.51468   0.47229   0.88363   0.00000  Uiso   1.00
H263   H     0.77040   0.40922   0.85475   0.00000  Uiso   1.00
H264   H     0.69832   0.47617   0.49862   0.00000  Uiso   1.00
H265   H     0.33771   0.48390   0.01964   0.00000  Uiso   1.00
H266   H     0.87691   0.35091   0.95869   0.00000  Uiso   1.00
H267   H     0.72493   0.49209   0.20772   0.00000  Uiso   1.00
O268   O     0.17832   0.45270   0.03716   0.00000  Uiso   1.00
O269   O     0.88574   0.27822   0.95718   0.00000  Uiso   1.00
O270   O     0.68634   0.46344   0.97193   0.00000  Uiso   1.00
N271   N     0.26080   0.41325   0.88798   0.00000  Uiso   1.00
N272   N     0.76491   0.28891   0.83103   0.00000  Uiso   1.00
N273   N     0.62285   0.42090   0.12893   0.00000  Uiso   1.00
N274   N     0.32867   0.46079   0.96683   0.00000  Uiso   1.00
N275   N     0.83278   0.33645   0.90987   0.00000  Uiso   1.00
N276   N     0.69072   0.46844   0.20777   0.00000  Uiso   1.00
C277   C     0.05624   0.37954   0.67272   0.00000  Uiso   1.00
C278   C     0.11709   0.40320   0.57651   0.00000  Uiso   1.00
C279   C     0.20713   0.39731   0.54244   0.00000  Uiso   1.00
C280   C     0.25107   0.42206   0.45264   0.00000  Uiso   1.00
C281   C     0.35233   0.45430   0.31136   0.00000  Uiso   1.00
C282   C     0.98045   0.36742   0.59079   0.00000  Uiso   1.00
C283   C     0.95559   0.33144   0.56876   0.00000  Uiso   1.00
C284   C     0.88449   0.32606   0.49099   0.00000  Uiso   1.00
C285   C     0.77356   0.30273   0.37198   0.00000  Uiso   1.00
C286   C     0.01493   0.40531   0.78308   0.00000  Uiso   1.00
C287   C     0.01905   0.40118   0.92273   0.00000  Uiso   1.00
C288   C     0.97696   0.42770   0.00687   0.00000  Uiso   1.00
C289   C     0.91959   0.46320   0.18641   0.00000  Uiso   1.00
C290   C     0.97417   0.43397   0.57383   0.00000  Uiso   1.00
C291   C     0.07251   0.43277   0.52279   0.00000  Uiso   1.00
C292   C     0.11633   0.45753   0.43302   0.00000  Uiso   1.00
C293   C     0.20641   0.45168   0.39883   0.00000  Uiso   1.00
C294   C     0.93587   0.39698   0.53707   0.00000  Uiso   1.00
C295   C     0.86478   0.39165   0.45934   0.00000  Uiso   1.00
C296   C     0.83983   0.35568   0.43718   0.00000  Uiso   1.00
C297   C     0.97035   0.43487   0.72937   0.00000  Uiso   1.00
C298   C     0.92825   0.46140   0.81331   0.00000  Uiso   1.00
C299   C     0.93230   0.45731   0.95306   0.00000  Uiso   1.00
H300   H     0.09094   0.35653   0.71454   0.00000  Uiso   1.00
H301   H     0.24160   0.37443   0.58402   0.00000  Uiso   1.00
H302   H     0.99009   0.30857   0.61035   0.00000  Uiso   1.00
H303   H     0.05355   0.37830   0.96426   0.00000  Uiso   1.00
H304   H     0.38897   0.40731   0.41559   0.00000  Uiso   1.00
H305   H     0.85863   0.26843   0.47114   0.00000  Uiso   1.00
H306   H     0.99244   0.41547   0.21744   0.00000  Uiso   1.00
H307   H     0.93946   0.45699   0.53200   0.00000  Uiso   1.00
H308   H     0.08181   0.48041   0.39147   0.00000  Uiso   1.00
H309   H     0.83030   0.41454   0.41779   0.00000  Uiso   1.00
H310   H     0.89376   0.48427   0.77170   0.00000  Uiso   1.00
H311   H     0.25928   0.49332   0.25930   0.00000  Uiso   1.00
H312   H     0.72893   0.35444   0.31485   0.00000  Uiso   1.00
H313   H     0.86275   0.50149   0.06115   0.00000  Uiso   1.00
O314   O     0.42050   0.46390   0.24825   0.00000  Uiso   1.00
O315   O     0.72470   0.28170   0.32116   0.00000  Uiso   1.00
O316   O     0.90026   0.47462   0.30028   0.00000  Uiso   1.00
N317   N     0.33892   0.42435   0.39811   0.00000  Uiso   1.00
N318   N     0.84309   0.29450   0.45003   0.00000  Uiso   1.00
N319   N     0.96817   0.43197   0.14776   0.00000  Uiso   1.00
N320   N     0.26913   0.47063   0.31402   0.00000  Uiso   1.00
N321   N     0.77330   0.34078   0.36593   0.00000  Uiso   1.00
N322   N     0.89838   0.47825   0.06367   0.00000  Uiso   1.00
C323   C     0.45649   0.87018   0.89098   0.00000  Uiso   1.00
C324   C     0.51782   0.89367   0.79485   0.00000  Uiso   1.00
C325   C     0.60719   0.88694   0.75792   0.00000  Uiso   1.00
C326   C     0.65173   0.91168   0.66874   0.00000  Uiso   1.00
C327   C     0.75355   0.94352   0.52708   0.00000  Uiso   1.00
C328   C     0.37889   0.85940   0.81052   0.00000  Uiso   1.00
C329   C     0.35144   0.82386   0.78680   0.00000  Uiso   1.00
C330   C     0.27903   0.81975   0.71082   0.00000  Uiso   1.00
C331   C     0.16511   0.79839   0.59358   0.00000  Uiso   1.00
C332   C     0.41806   0.89578   0.00401   0.00000  Uiso   1.00
C333   C     0.42352   0.89082   0.14299   0.00000  Uiso   1.00
C334   C     0.38406   0.91733   0.22993   0.00000  Uiso   1.00
C335   C     0.33096   0.95245   0.41312   0.00000  Uiso   1.00
C336   C     0.37667   0.92609   0.79825   0.00000  Uiso   1.00
C337   C     0.47446   0.92404   0.74448   0.00000  Uiso   1.00
C338   C     0.51888   0.94880   0.65533   0.00000  Uiso   1.00
C339   C     0.60830   0.94210   0.61829   0.00000  Uiso   1.00
C340   C     0.33554   0.88977   0.76015   0.00000  Uiso   1.00
C341   C     0.26314   0.88571   0.68421   0.00000  Uiso   1.00
C342   C     0.23559   0.85017   0.66037   0.00000  Uiso   1.00
C343   C     0.37471   0.92615   0.95365   0.00000  Uiso   1.00
C344   C     0.33522   0.95267   0.04039   0.00000  Uiso   1.00
C345   C     0.34063   0.94775   0.17947   0.00000  Uiso   1.00
H346   H     0.49024   0.84654   0.93019   0.00000  Uiso   1.00
H347   H     0.64071   0.86344   0.79691   0.00000  Uiso   1.00
H348   H     0.38500   0.80036   0.82580   0.00000  Uiso   1.00
H349   H     0.45707   0.86731   0.18193   0.00000  Uiso   1.00
H350   H     0.78842   0.89555   0.62690   0.00000  Uiso   1.00
H351   H     0.24922   0.76256   0.68785   0.00000  Uiso   1.00
H352   H     0.40119   0.90374   0.43882   0.00000  Uiso   1.00
H353   H     0.34292   0.94973   0.75904   0.00000  Uiso   1.00
H354   H     0.48532   0.97229   0.61637   0.00000  Uiso   1.00
H355   H     0.22960   0.90922   0.64525   0.00000  Uiso   1.00
H356   H     0.30168   0.97617   0.00138   0.00000  Uiso   1.00
H357   H     0.66229   0.98390   0.48036   0.00000  Uiso   1.00
H358   H     0.12309   0.85091   0.54131   0.00000  Uiso   1.00
H359   H     0.27507   0.99209   0.29228   0.00000  Uiso   1.00
O360   O     0.82168   0.95270   0.46284   0.00000  Uiso   1.00
O361   O     0.11426   0.77822   0.54282   0.00000  Uiso   1.00
O362   O     0.31366   0.96344   0.52807   0.00000  Uiso   1.00
N363   N     0.73920   0.91325   0.61202   0.00000  Uiso   1.00
N364   N     0.23509   0.78891   0.66897   0.00000  Uiso   1.00
N365   N     0.37715   0.92090   0.37107   0.00000  Uiso   1.00
N366   N     0.67133   0.96079   0.53317   0.00000  Uiso   1.00
N367   N     0.16722   0.83645   0.59013   0.00000  Uiso   1.00
N368   N     0.30928   0.96844   0.29223   0.00000  Uiso   1.00
