data_job_01033
_audit_creation_date              2018-12-19
_audit_creation_method            'Materials Studio'
_symmetry_space_group_name_H-M    'P1'
_symmetry_Int_Tables_number       1
_symmetry_cell_setting            triclinic
loop_
_symmetry_equiv_pos_as_xyz
  x,y,z
_cell_length_a                    12.3764
_cell_length_b                    12.5216
_cell_length_c                    14.4639
_cell_angle_alpha                 68.8767
_cell_angle_beta                  82.8182
_cell_angle_gamma                 68.9180
loop_
_atom_site_label
_atom_site_type_symbol
_atom_site_fract_x
_atom_site_fract_y
_atom_site_fract_z
_atom_site_U_iso_or_equiv
_atom_site_adp_type
_atom_site_occupancy
C1     C     0.61450   0.75218   0.59041   0.00000  Uiso   1.00
C2     C     0.74594   0.69734   0.58551   0.00000  Uiso   1.00
C3     C     0.81328   0.72567   0.50220   0.00000  Uiso   1.00
C4     C     0.93202   0.66554   0.51291   0.00000  Uiso   1.00
C5     C     0.12858   0.59333   0.49148   0.00000  Uiso   1.00
C6     C     0.57022   0.64502   0.62732   0.00000  Uiso   1.00
C7     C     0.48979   0.62938   0.57916   0.00000  Uiso   1.00
C8     C     0.46061   0.52520   0.62508   0.00000  Uiso   1.00
C9     C     0.38428   0.37182   0.66858   0.00000  Uiso   1.00
C10    C     0.58981   0.80644   0.67297   0.00000  Uiso   1.00
C11    C     0.52583   0.92652   0.66321   0.00000  Uiso   1.00
C12    C     0.51312   0.95825   0.74758   0.00000  Uiso   1.00
C13    C     0.46722   0.05550   0.86196   0.00000  Uiso   1.00
C14    C     0.70565   0.59500   0.75759   0.00000  Uiso   1.00
C15    C     0.79544   0.61196   0.67632   0.00000  Uiso   1.00
C16    C     0.91412   0.55177   0.68716   0.00000  Uiso   1.00
C17    C     0.98162   0.58001   0.60388   0.00000  Uiso   1.00
C18    C     0.61972   0.55965   0.71812   0.00000  Uiso   1.00
C19    C     0.59064   0.45547   0.76412   0.00000  Uiso   1.00
C20    C     0.51020   0.43967   0.71605   0.00000  Uiso   1.00
C21    C     0.63932   0.72107   0.76378   0.00000  Uiso   1.00
C22    C     0.62669   0.75262   0.84817   0.00000  Uiso   1.00
C23    C     0.56271   0.87272   0.83854   0.00000  Uiso   1.00
H24    H     0.57596   0.81864   0.51972   0.00000  Uiso   1.00
H25    H     0.77493   0.79174   0.43194   0.00000  Uiso   1.00
H26    H     0.45149   0.69547   0.50890   0.00000  Uiso   1.00
H27    H     0.48754   0.99256   0.59293   0.00000  Uiso   1.00
H28    H     0.01736   0.72424   0.37465   0.00000  Uiso   1.00
H29    H     0.33534   0.52126   0.53694   0.00000  Uiso   1.00
H30    H     0.41134   0.14774   0.71415   0.00000  Uiso   1.00
H31    H     0.74419   0.52852   0.82829   0.00000  Uiso   1.00
H32    H     0.95240   0.48571   0.75744   0.00000  Uiso   1.00
H33    H     0.62896   0.38943   0.83439   0.00000  Uiso   1.00
H34    H     0.66501   0.68652   0.91843   0.00000  Uiso   1.00
H35    H     0.16140   0.47584   0.63884   0.00000  Uiso   1.00
H36    H     0.47938   0.27286   0.80112   0.00000  Uiso   1.00
H37    H     0.55539   0.89935   0.97833   0.00000  Uiso   1.00
O38    O     0.22331   0.57708   0.45457   0.00000  Uiso   1.00
O39    O     0.32851   0.31079   0.66748   0.00000  Uiso   1.00
O40    O     0.42824   0.13272   0.89997   0.00000  Uiso   1.00
N41    N     0.02269   0.67167   0.44656   0.00000  Uiso   1.00
N42    N     0.38505   0.48189   0.59828   0.00000  Uiso   1.00
N43    N     0.45609   0.06759   0.76396   0.00000  Uiso   1.00
N44    N     0.10020   0.53801   0.58872   0.00000  Uiso   1.00
N45    N     0.46256   0.34823   0.74043   0.00000  Uiso   1.00
N46    N     0.53359   0.93393   0.90611   0.00000  Uiso   1.00
C47    C     0.38550   0.24782   0.40959   0.00000  Uiso   1.00
C48    C     0.25406   0.30266   0.41449   0.00000  Uiso   1.00
C49    C     0.18672   0.27433   0.49780   0.00000  Uiso   1.00
C50    C     0.06798   0.33446   0.48709   0.00000  Uiso   1.00
C51    C     0.87142   0.40667   0.50852   0.00000  Uiso   1.00
C52    C     0.42978   0.35498   0.37268   0.00000  Uiso   1.00
C53    C     0.51021   0.37062   0.42084   0.00000  Uiso   1.00
C54    C     0.53939   0.47480   0.37492   0.00000  Uiso   1.00
C55    C     0.61572   0.62818   0.33142   0.00000  Uiso   1.00
C56    C     0.41019   0.19356   0.32703   0.00000  Uiso   1.00
C57    C     0.47417   0.07348   0.33679   0.00000  Uiso   1.00
C58    C     0.48688   0.04175   0.25242   0.00000  Uiso   1.00
C59    C     0.53278   0.94450   0.13804   0.00000  Uiso   1.00
C60    C     0.29435   0.40500   0.24241   0.00000  Uiso   1.00
C61    C     0.20456   0.38804   0.32368   0.00000  Uiso   1.00
C62    C     0.08588   0.44823   0.31284   0.00000  Uiso   1.00
C63    C     0.01838   0.41999   0.39612   0.00000  Uiso   1.00
C64    C     0.38028   0.44035   0.28188   0.00000  Uiso   1.00
C65    C     0.40936   0.54453   0.23588   0.00000  Uiso   1.00
C66    C     0.48980   0.56033   0.28395   0.00000  Uiso   1.00
C67    C     0.36068   0.27893   0.23622   0.00000  Uiso   1.00
C68    C     0.37331   0.24738   0.15183   0.00000  Uiso   1.00
C69    C     0.43729   0.12728   0.16146   0.00000  Uiso   1.00
H70    H     0.42404   0.18136   0.48028   0.00000  Uiso   1.00
H71    H     0.22507   0.20826   0.56806   0.00000  Uiso   1.00
H72    H     0.54851   0.30453   0.49110   0.00000  Uiso   1.00
H73    H     0.51246   0.00744   0.40707   0.00000  Uiso   1.00
H74    H     0.98264   0.27576   0.62535   0.00000  Uiso   1.00
H75    H     0.66466   0.47874   0.46306   0.00000  Uiso   1.00
H76    H     0.58866   0.85226   0.28585   0.00000  Uiso   1.00
H77    H     0.25581   0.47148   0.17171   0.00000  Uiso   1.00
H78    H     0.04760   0.51429   0.24256   0.00000  Uiso   1.00
H79    H     0.37104   0.61057   0.16561   0.00000  Uiso   1.00
H80    H     0.33499   0.31348   0.08157   0.00000  Uiso   1.00
H81    H     0.83860   0.52416   0.36116   0.00000  Uiso   1.00
H82    H     0.52062   0.72714   0.19888   0.00000  Uiso   1.00
H83    H     0.44461   0.10065   0.02167   0.00000  Uiso   1.00
O84    O     0.77669   0.42292   0.54543   0.00000  Uiso   1.00
O85    O     0.67149   0.68921   0.33252   0.00000  Uiso   1.00
O86    O     0.57176   0.86728   0.10003   0.00000  Uiso   1.00
N87    N     0.97731   0.32833   0.55344   0.00000  Uiso   1.00
N88    N     0.61495   0.51811   0.40172   0.00000  Uiso   1.00
N89    N     0.54391   0.93241   0.23604   0.00000  Uiso   1.00
N90    N     0.89980   0.46199   0.41128   0.00000  Uiso   1.00
N91    N     0.53744   0.65177   0.25957   0.00000  Uiso   1.00
N92    N     0.46641   0.06607   0.09389   0.00000  Uiso   1.00
