data_job_04090
_audit_creation_date              2018-12-19
_audit_creation_method            'Materials Studio'
_symmetry_space_group_name_H-M    'P1'
_symmetry_Int_Tables_number       1
_symmetry_cell_setting            triclinic
loop_
_symmetry_equiv_pos_as_xyz
  x,y,z
_cell_length_a                    16.1541
_cell_length_b                    11.0144
_cell_length_c                    35.4855
_cell_angle_alpha                 90.0000
_cell_angle_beta                  120.8299
_cell_angle_gamma                 90.0000
loop_
_atom_site_label
_atom_site_type_symbol
_atom_site_fract_x
_atom_site_fract_y
_atom_site_fract_z
_atom_site_U_iso_or_equiv
_atom_site_adp_type
_atom_site_occupancy
C1     C     0.87379   0.75937   0.41661   0.00000  Uiso   1.00
C2     C     0.88703   0.89118   0.40760   0.00000  Uiso   1.00
C3     C     0.85485   0.99231   0.41974   0.00000  Uiso   1.00
C4     C     0.87409   0.10508   0.40845   0.00000  Uiso   1.00
C5     C     0.88706   0.30805   0.39789   0.00000  Uiso   1.00
C6     C     0.82231   0.69640   0.37204   0.00000  Uiso   1.00
C7     C     0.73573   0.63375   0.35429   0.00000  Uiso   1.00
C8     C     0.70051   0.58255   0.31307   0.00000  Uiso   1.00
C9     C     0.61304   0.48305   0.24732   0.00000  Uiso   1.00
C10    C     0.97466   0.70455   0.44165   0.00000  Uiso   1.00
C11    C     0.01616   0.64873   0.48242   0.00000  Uiso   1.00
C12    C     0.10920   0.60437   0.49980   0.00000  Uiso   1.00
C13    C     0.25827   0.51753   0.54213   0.00000  Uiso   1.00
C14    C     0.96520   0.77982   0.37499   0.00000  Uiso   1.00
C15    C     0.93668   0.90228   0.38500   0.00000  Uiso   1.00
C16    C     0.95598   0.01493   0.37369   0.00000  Uiso   1.00
C17    C     0.92384   0.11621   0.38581   0.00000  Uiso   1.00
C18    C     0.87196   0.70750   0.34944   0.00000  Uiso   1.00
C19    C     0.83687   0.65638   0.30824   0.00000  Uiso   1.00
C20    C     0.75025   0.59368   0.29043   0.00000  Uiso   1.00
C21    C     0.02431   0.71566   0.41905   0.00000  Uiso   1.00
C22    C     0.11730   0.67137   0.43637   0.00000  Uiso   1.00
C23    C     0.15894   0.61550   0.47716   0.00000  Uiso   1.00
H24    H     0.83513   0.75072   0.43420   0.00000  Uiso   1.00
H25    H     0.81641   0.98367   0.43723   0.00000  Uiso   1.00
H26    H     0.69733   0.62516   0.37179   0.00000  Uiso   1.00
H27    H     0.97772   0.64015   0.49990   0.00000  Uiso   1.00
H28    H     0.81754   0.24684   0.43060   0.00000  Uiso   1.00
H29    H     0.56644   0.49087   0.29262   0.00000  Uiso   1.00
H30    H     0.15770   0.52247   0.56277   0.00000  Uiso   1.00
H31    H     0.00386   0.78847   0.35739   0.00000  Uiso   1.00
H32    H     0.99441   0.02350   0.35620   0.00000  Uiso   1.00
H33    H     0.87531   0.66499   0.29076   0.00000  Uiso   1.00
H34    H     0.15570   0.67998   0.41887   0.00000  Uiso   1.00
H35    H     0.96200   0.27917   0.36483   0.00000  Uiso   1.00
H36    H     0.71090   0.52319   0.22686   0.00000  Uiso   1.00
H37    H     0.30216   0.55480   0.49700   0.00000  Uiso   1.00
O38    O     0.88048   0.41693   0.39830   0.00000  Uiso   1.00
O39    O     0.55106   0.42511   0.21729   0.00000  Uiso   1.00
O40    O     0.32678   0.46658   0.57172   0.00000  Uiso   1.00
N41    N     0.85285   0.22219   0.41529   0.00000  Uiso   1.00
N42    N     0.61808   0.51542   0.28629   0.00000  Uiso   1.00
N43    N     0.17085   0.54494   0.53885   0.00000  Uiso   1.00
N44    N     0.93058   0.23959   0.37990   0.00000  Uiso   1.00
N45    N     0.69582   0.53282   0.25090   0.00000  Uiso   1.00
N46    N     0.24859   0.56233   0.50346   0.00000  Uiso   1.00
C47    C     0.37379   0.25937   0.41661   0.00000  Uiso   1.00
C48    C     0.38703   0.39118   0.40760   0.00000  Uiso   1.00
C49    C     0.35485   0.49231   0.41974   0.00000  Uiso   1.00
C50    C     0.37409   0.60508   0.40845   0.00000  Uiso   1.00
C51    C     0.38706   0.80805   0.39789   0.00000  Uiso   1.00
C52    C     0.32231   0.19640   0.37204   0.00000  Uiso   1.00
C53    C     0.23573   0.13375   0.35429   0.00000  Uiso   1.00
C54    C     0.20051   0.08255   0.31307   0.00000  Uiso   1.00
C55    C     0.11304   0.98305   0.24732   0.00000  Uiso   1.00
C56    C     0.47466   0.20455   0.44165   0.00000  Uiso   1.00
C57    C     0.51616   0.14873   0.48242   0.00000  Uiso   1.00
C58    C     0.60920   0.10437   0.49980   0.00000  Uiso   1.00
C59    C     0.75827   0.01753   0.54213   0.00000  Uiso   1.00
C60    C     0.46520   0.27982   0.37499   0.00000  Uiso   1.00
C61    C     0.43668   0.40228   0.38500   0.00000  Uiso   1.00
C62    C     0.45598   0.51493   0.37369   0.00000  Uiso   1.00
C63    C     0.42384   0.61621   0.38581   0.00000  Uiso   1.00
C64    C     0.37196   0.20750   0.34944   0.00000  Uiso   1.00
C65    C     0.33687   0.15638   0.30824   0.00000  Uiso   1.00
C66    C     0.25025   0.09368   0.29043   0.00000  Uiso   1.00
C67    C     0.52431   0.21566   0.41905   0.00000  Uiso   1.00
C68    C     0.61730   0.17137   0.43637   0.00000  Uiso   1.00
C69    C     0.65894   0.11550   0.47716   0.00000  Uiso   1.00
H70    H     0.33513   0.25072   0.43420   0.00000  Uiso   1.00
H71    H     0.31641   0.48367   0.43723   0.00000  Uiso   1.00
H72    H     0.19733   0.12516   0.37179   0.00000  Uiso   1.00
H73    H     0.47772   0.14015   0.49990   0.00000  Uiso   1.00
H74    H     0.31754   0.74684   0.43060   0.00000  Uiso   1.00
H75    H     0.06644   0.99087   0.29262   0.00000  Uiso   1.00
H76    H     0.65770   0.02247   0.56277   0.00000  Uiso   1.00
H77    H     0.50386   0.28847   0.35739   0.00000  Uiso   1.00
H78    H     0.49441   0.52350   0.35620   0.00000  Uiso   1.00
H79    H     0.37531   0.16499   0.29076   0.00000  Uiso   1.00
H80    H     0.65570   0.17998   0.41887   0.00000  Uiso   1.00
H81    H     0.46200   0.77917   0.36483   0.00000  Uiso   1.00
H82    H     0.21090   0.02319   0.22686   0.00000  Uiso   1.00
H83    H     0.80216   0.05480   0.49700   0.00000  Uiso   1.00
O84    O     0.38048   0.91693   0.39830   0.00000  Uiso   1.00
O85    O     0.05106   0.92511   0.21729   0.00000  Uiso   1.00
O86    O     0.82678   0.96658   0.57172   0.00000  Uiso   1.00
N87    N     0.35285   0.72219   0.41529   0.00000  Uiso   1.00
N88    N     0.11808   0.01542   0.28629   0.00000  Uiso   1.00
N89    N     0.67085   0.04494   0.53885   0.00000  Uiso   1.00
N90    N     0.43058   0.73959   0.37990   0.00000  Uiso   1.00
N91    N     0.19582   0.03282   0.25090   0.00000  Uiso   1.00
N92    N     0.74859   0.06233   0.50346   0.00000  Uiso   1.00
C93    C     0.12621   0.75937   0.08339   0.00000  Uiso   1.00
C94    C     0.11297   0.89118   0.09240   0.00000  Uiso   1.00
C95    C     0.14515   0.99231   0.08026   0.00000  Uiso   1.00
C96    C     0.12591   0.10508   0.09155   0.00000  Uiso   1.00
C97    C     0.11294   0.30805   0.10211   0.00000  Uiso   1.00
C98    C     0.17769   0.69640   0.12796   0.00000  Uiso   1.00
C99    C     0.26427   0.63375   0.14571   0.00000  Uiso   1.00
C100   C     0.29949   0.58255   0.18693   0.00000  Uiso   1.00
C101   C     0.38696   0.48305   0.25268   0.00000  Uiso   1.00
C102   C     0.02534   0.70455   0.05835   0.00000  Uiso   1.00
C103   C     0.98384   0.64873   0.01758   0.00000  Uiso   1.00
C104   C     0.89080   0.60437   0.00020   0.00000  Uiso   1.00
C105   C     0.74173   0.51753   0.95787   0.00000  Uiso   1.00
C106   C     0.03480   0.77982   0.12501   0.00000  Uiso   1.00
C107   C     0.06332   0.90228   0.11500   0.00000  Uiso   1.00
C108   C     0.04402   0.01493   0.12631   0.00000  Uiso   1.00
C109   C     0.07616   0.11621   0.11419   0.00000  Uiso   1.00
C110   C     0.12804   0.70750   0.15056   0.00000  Uiso   1.00
C111   C     0.16313   0.65638   0.19176   0.00000  Uiso   1.00
C112   C     0.24975   0.59368   0.20957   0.00000  Uiso   1.00
C113   C     0.97569   0.71566   0.08095   0.00000  Uiso   1.00
C114   C     0.88270   0.67137   0.06363   0.00000  Uiso   1.00
C115   C     0.84106   0.61550   0.02284   0.00000  Uiso   1.00
H116   H     0.16487   0.75072   0.06580   0.00000  Uiso   1.00
H117   H     0.18359   0.98367   0.06277   0.00000  Uiso   1.00
H118   H     0.30267   0.62516   0.12821   0.00000  Uiso   1.00
H119   H     0.02228   0.64015   0.00010   0.00000  Uiso   1.00
H120   H     0.18246   0.24684   0.06940   0.00000  Uiso   1.00
H121   H     0.43356   0.49087   0.20738   0.00000  Uiso   1.00
H122   H     0.84230   0.52247   0.93723   0.00000  Uiso   1.00
H123   H     0.99614   0.78847   0.14261   0.00000  Uiso   1.00
H124   H     0.00559   0.02350   0.14380   0.00000  Uiso   1.00
H125   H     0.12469   0.66499   0.20924   0.00000  Uiso   1.00
H126   H     0.84430   0.67998   0.08113   0.00000  Uiso   1.00
H127   H     0.03800   0.27917   0.13517   0.00000  Uiso   1.00
H128   H     0.28910   0.52319   0.27314   0.00000  Uiso   1.00
H129   H     0.69784   0.55480   0.00300   0.00000  Uiso   1.00
O130   O     0.11952   0.41693   0.10170   0.00000  Uiso   1.00
O131   O     0.44894   0.42511   0.28271   0.00000  Uiso   1.00
O132   O     0.67322   0.46658   0.92828   0.00000  Uiso   1.00
N133   N     0.14715   0.22219   0.08471   0.00000  Uiso   1.00
N134   N     0.38192   0.51542   0.21371   0.00000  Uiso   1.00
N135   N     0.82915   0.54494   0.96115   0.00000  Uiso   1.00
N136   N     0.06942   0.23959   0.12010   0.00000  Uiso   1.00
N137   N     0.30418   0.53282   0.24910   0.00000  Uiso   1.00
N138   N     0.75141   0.56233   0.99654   0.00000  Uiso   1.00
C139   C     0.62621   0.25937   0.08339   0.00000  Uiso   1.00
C140   C     0.61297   0.39118   0.09240   0.00000  Uiso   1.00
C141   C     0.64515   0.49231   0.08026   0.00000  Uiso   1.00
C142   C     0.62591   0.60508   0.09155   0.00000  Uiso   1.00
C143   C     0.61294   0.80805   0.10211   0.00000  Uiso   1.00
C144   C     0.67769   0.19640   0.12796   0.00000  Uiso   1.00
C145   C     0.76427   0.13375   0.14571   0.00000  Uiso   1.00
C146   C     0.79949   0.08255   0.18693   0.00000  Uiso   1.00
C147   C     0.88696   0.98305   0.25268   0.00000  Uiso   1.00
C148   C     0.52534   0.20455   0.05835   0.00000  Uiso   1.00
C149   C     0.48384   0.14873   0.01758   0.00000  Uiso   1.00
C150   C     0.39080   0.10437   0.00020   0.00000  Uiso   1.00
C151   C     0.24173   0.01753   0.95787   0.00000  Uiso   1.00
C152   C     0.53480   0.27982   0.12501   0.00000  Uiso   1.00
C153   C     0.56332   0.40228   0.11500   0.00000  Uiso   1.00
C154   C     0.54402   0.51493   0.12631   0.00000  Uiso   1.00
C155   C     0.57616   0.61621   0.11419   0.00000  Uiso   1.00
C156   C     0.62804   0.20750   0.15056   0.00000  Uiso   1.00
C157   C     0.66313   0.15638   0.19176   0.00000  Uiso   1.00
C158   C     0.74975   0.09368   0.20957   0.00000  Uiso   1.00
C159   C     0.47569   0.21566   0.08095   0.00000  Uiso   1.00
C160   C     0.38270   0.17137   0.06363   0.00000  Uiso   1.00
C161   C     0.34106   0.11550   0.02284   0.00000  Uiso   1.00
H162   H     0.66487   0.25072   0.06580   0.00000  Uiso   1.00
H163   H     0.68359   0.48367   0.06277   0.00000  Uiso   1.00
H164   H     0.80267   0.12516   0.12821   0.00000  Uiso   1.00
H165   H     0.52228   0.14015   0.00010   0.00000  Uiso   1.00
H166   H     0.68246   0.74684   0.06940   0.00000  Uiso   1.00
H167   H     0.93356   0.99087   0.20738   0.00000  Uiso   1.00
H168   H     0.34230   0.02247   0.93723   0.00000  Uiso   1.00
H169   H     0.49614   0.28847   0.14261   0.00000  Uiso   1.00
H170   H     0.50559   0.52350   0.14380   0.00000  Uiso   1.00
H171   H     0.62469   0.16499   0.20924   0.00000  Uiso   1.00
H172   H     0.34430   0.17998   0.08113   0.00000  Uiso   1.00
H173   H     0.53800   0.77917   0.13517   0.00000  Uiso   1.00
H174   H     0.78910   0.02319   0.27314   0.00000  Uiso   1.00
H175   H     0.19784   0.05480   0.00300   0.00000  Uiso   1.00
O176   O     0.61952   0.91693   0.10170   0.00000  Uiso   1.00
O177   O     0.94894   0.92511   0.28271   0.00000  Uiso   1.00
O178   O     0.17322   0.96658   0.92828   0.00000  Uiso   1.00
N179   N     0.64715   0.72219   0.08471   0.00000  Uiso   1.00
N180   N     0.88192   0.01542   0.21371   0.00000  Uiso   1.00
N181   N     0.32915   0.04494   0.96115   0.00000  Uiso   1.00
N182   N     0.56942   0.73959   0.12010   0.00000  Uiso   1.00
N183   N     0.80418   0.03282   0.24910   0.00000  Uiso   1.00
N184   N     0.25141   0.06233   0.99654   0.00000  Uiso   1.00
C185   C     0.12621   0.24063   0.58339   0.00000  Uiso   1.00
C186   C     0.11297   0.10882   0.59240   0.00000  Uiso   1.00
C187   C     0.14515   0.00769   0.58026   0.00000  Uiso   1.00
C188   C     0.12591   0.89492   0.59155   0.00000  Uiso   1.00
C189   C     0.11294   0.69195   0.60211   0.00000  Uiso   1.00
C190   C     0.17769   0.30360   0.62796   0.00000  Uiso   1.00
C191   C     0.26427   0.36625   0.64571   0.00000  Uiso   1.00
C192   C     0.29949   0.41745   0.68693   0.00000  Uiso   1.00
C193   C     0.38696   0.51695   0.75268   0.00000  Uiso   1.00
C194   C     0.02534   0.29545   0.55835   0.00000  Uiso   1.00
C195   C     0.98384   0.35127   0.51758   0.00000  Uiso   1.00
C196   C     0.89080   0.39563   0.50020   0.00000  Uiso   1.00
C197   C     0.74173   0.48247   0.45787   0.00000  Uiso   1.00
C198   C     0.03480   0.22018   0.62501   0.00000  Uiso   1.00
C199   C     0.06332   0.09772   0.61500   0.00000  Uiso   1.00
C200   C     0.04402   0.98507   0.62631   0.00000  Uiso   1.00
C201   C     0.07616   0.88379   0.61419   0.00000  Uiso   1.00
C202   C     0.12804   0.29250   0.65056   0.00000  Uiso   1.00
C203   C     0.16313   0.34362   0.69176   0.00000  Uiso   1.00
C204   C     0.24975   0.40632   0.70957   0.00000  Uiso   1.00
C205   C     0.97569   0.28434   0.58095   0.00000  Uiso   1.00
C206   C     0.88270   0.32863   0.56363   0.00000  Uiso   1.00
C207   C     0.84106   0.38450   0.52284   0.00000  Uiso   1.00
H208   H     0.16487   0.24928   0.56580   0.00000  Uiso   1.00
H209   H     0.18359   0.01633   0.56277   0.00000  Uiso   1.00
H210   H     0.30267   0.37484   0.62821   0.00000  Uiso   1.00
H211   H     0.02228   0.35985   0.50010   0.00000  Uiso   1.00
H212   H     0.18246   0.75316   0.56940   0.00000  Uiso   1.00
H213   H     0.43356   0.50913   0.70738   0.00000  Uiso   1.00
H214   H     0.84230   0.47753   0.43723   0.00000  Uiso   1.00
H215   H     0.99614   0.21153   0.64261   0.00000  Uiso   1.00
H216   H     0.00559   0.97650   0.64380   0.00000  Uiso   1.00
H217   H     0.12469   0.33501   0.70924   0.00000  Uiso   1.00
H218   H     0.84430   0.32002   0.58113   0.00000  Uiso   1.00
H219   H     0.03800   0.72083   0.63517   0.00000  Uiso   1.00
H220   H     0.28910   0.47681   0.77314   0.00000  Uiso   1.00
H221   H     0.69784   0.44520   0.50300   0.00000  Uiso   1.00
O222   O     0.11952   0.58307   0.60170   0.00000  Uiso   1.00
O223   O     0.44894   0.57489   0.78271   0.00000  Uiso   1.00
O224   O     0.67322   0.53342   0.42828   0.00000  Uiso   1.00
N225   N     0.14715   0.77781   0.58471   0.00000  Uiso   1.00
N226   N     0.38192   0.48458   0.71371   0.00000  Uiso   1.00
N227   N     0.82915   0.45506   0.46115   0.00000  Uiso   1.00
N228   N     0.06942   0.76041   0.62010   0.00000  Uiso   1.00
N229   N     0.30418   0.46718   0.74910   0.00000  Uiso   1.00
N230   N     0.75141   0.43767   0.49654   0.00000  Uiso   1.00
C231   C     0.62621   0.74063   0.58339   0.00000  Uiso   1.00
C232   C     0.61297   0.60882   0.59240   0.00000  Uiso   1.00
C233   C     0.64515   0.50769   0.58026   0.00000  Uiso   1.00
C234   C     0.62591   0.39492   0.59155   0.00000  Uiso   1.00
C235   C     0.61294   0.19195   0.60211   0.00000  Uiso   1.00
C236   C     0.67769   0.80360   0.62796   0.00000  Uiso   1.00
C237   C     0.76427   0.86625   0.64571   0.00000  Uiso   1.00
C238   C     0.79949   0.91745   0.68693   0.00000  Uiso   1.00
C239   C     0.88696   0.01695   0.75268   0.00000  Uiso   1.00
C240   C     0.52534   0.79545   0.55835   0.00000  Uiso   1.00
C241   C     0.48384   0.85127   0.51758   0.00000  Uiso   1.00
C242   C     0.39080   0.89563   0.50020   0.00000  Uiso   1.00
C243   C     0.24173   0.98247   0.45787   0.00000  Uiso   1.00
C244   C     0.53480   0.72018   0.62501   0.00000  Uiso   1.00
C245   C     0.56332   0.59772   0.61500   0.00000  Uiso   1.00
C246   C     0.54402   0.48507   0.62631   0.00000  Uiso   1.00
C247   C     0.57616   0.38379   0.61419   0.00000  Uiso   1.00
C248   C     0.62804   0.79250   0.65056   0.00000  Uiso   1.00
C249   C     0.66313   0.84362   0.69176   0.00000  Uiso   1.00
C250   C     0.74975   0.90632   0.70957   0.00000  Uiso   1.00
C251   C     0.47569   0.78434   0.58095   0.00000  Uiso   1.00
C252   C     0.38270   0.82863   0.56363   0.00000  Uiso   1.00
C253   C     0.34106   0.88450   0.52284   0.00000  Uiso   1.00
H254   H     0.66487   0.74928   0.56580   0.00000  Uiso   1.00
H255   H     0.68359   0.51633   0.56277   0.00000  Uiso   1.00
H256   H     0.80267   0.87484   0.62821   0.00000  Uiso   1.00
H257   H     0.52228   0.85985   0.50010   0.00000  Uiso   1.00
H258   H     0.68246   0.25316   0.56940   0.00000  Uiso   1.00
H259   H     0.93356   0.00913   0.70738   0.00000  Uiso   1.00
H260   H     0.34230   0.97753   0.43723   0.00000  Uiso   1.00
H261   H     0.49614   0.71153   0.64261   0.00000  Uiso   1.00
H262   H     0.50559   0.47650   0.64380   0.00000  Uiso   1.00
H263   H     0.62469   0.83501   0.70924   0.00000  Uiso   1.00
H264   H     0.34430   0.82002   0.58113   0.00000  Uiso   1.00
H265   H     0.53800   0.22083   0.63517   0.00000  Uiso   1.00
H266   H     0.78910   0.97681   0.77314   0.00000  Uiso   1.00
H267   H     0.19784   0.94520   0.50300   0.00000  Uiso   1.00
O268   O     0.61952   0.08307   0.60170   0.00000  Uiso   1.00
O269   O     0.94894   0.07489   0.78271   0.00000  Uiso   1.00
O270   O     0.17322   0.03342   0.42828   0.00000  Uiso   1.00
N271   N     0.64715   0.27781   0.58471   0.00000  Uiso   1.00
N272   N     0.88192   0.98458   0.71371   0.00000  Uiso   1.00
N273   N     0.32915   0.95506   0.46115   0.00000  Uiso   1.00
N274   N     0.56942   0.26041   0.62010   0.00000  Uiso   1.00
N275   N     0.80418   0.96718   0.74910   0.00000  Uiso   1.00
N276   N     0.25141   0.93767   0.49654   0.00000  Uiso   1.00
C277   C     0.87379   0.24063   0.91661   0.00000  Uiso   1.00
C278   C     0.88703   0.10882   0.90760   0.00000  Uiso   1.00
C279   C     0.85485   0.00769   0.91974   0.00000  Uiso   1.00
C280   C     0.87409   0.89492   0.90845   0.00000  Uiso   1.00
C281   C     0.88706   0.69195   0.89789   0.00000  Uiso   1.00
C282   C     0.82231   0.30360   0.87204   0.00000  Uiso   1.00
C283   C     0.73573   0.36625   0.85429   0.00000  Uiso   1.00
C284   C     0.70051   0.41745   0.81307   0.00000  Uiso   1.00
C285   C     0.61304   0.51695   0.74732   0.00000  Uiso   1.00
C286   C     0.97466   0.29545   0.94165   0.00000  Uiso   1.00
C287   C     0.01616   0.35127   0.98242   0.00000  Uiso   1.00
C288   C     0.10920   0.39563   0.99980   0.00000  Uiso   1.00
C289   C     0.25827   0.48247   0.04213   0.00000  Uiso   1.00
C290   C     0.96520   0.22018   0.87499   0.00000  Uiso   1.00
C291   C     0.93668   0.09772   0.88500   0.00000  Uiso   1.00
C292   C     0.95598   0.98507   0.87369   0.00000  Uiso   1.00
C293   C     0.92384   0.88379   0.88581   0.00000  Uiso   1.00
C294   C     0.87196   0.29250   0.84944   0.00000  Uiso   1.00
C295   C     0.83687   0.34362   0.80824   0.00000  Uiso   1.00
C296   C     0.75025   0.40632   0.79043   0.00000  Uiso   1.00
C297   C     0.02431   0.28434   0.91905   0.00000  Uiso   1.00
C298   C     0.11730   0.32863   0.93637   0.00000  Uiso   1.00
C299   C     0.15894   0.38450   0.97716   0.00000  Uiso   1.00
H300   H     0.83513   0.24928   0.93420   0.00000  Uiso   1.00
H301   H     0.81641   0.01633   0.93723   0.00000  Uiso   1.00
H302   H     0.69733   0.37484   0.87179   0.00000  Uiso   1.00
H303   H     0.97772   0.35985   0.99990   0.00000  Uiso   1.00
H304   H     0.81754   0.75316   0.93060   0.00000  Uiso   1.00
H305   H     0.56644   0.50913   0.79262   0.00000  Uiso   1.00
H306   H     0.15770   0.47753   0.06277   0.00000  Uiso   1.00
H307   H     0.00386   0.21153   0.85739   0.00000  Uiso   1.00
H308   H     0.99441   0.97650   0.85620   0.00000  Uiso   1.00
H309   H     0.87531   0.33501   0.79076   0.00000  Uiso   1.00
H310   H     0.15570   0.32002   0.91887   0.00000  Uiso   1.00
H311   H     0.96200   0.72083   0.86483   0.00000  Uiso   1.00
H312   H     0.71090   0.47681   0.72686   0.00000  Uiso   1.00
H313   H     0.30216   0.44520   0.99700   0.00000  Uiso   1.00
O314   O     0.88048   0.58307   0.89830   0.00000  Uiso   1.00
O315   O     0.55106   0.57489   0.71729   0.00000  Uiso   1.00
O316   O     0.32678   0.53342   0.07172   0.00000  Uiso   1.00
N317   N     0.85285   0.77781   0.91529   0.00000  Uiso   1.00
N318   N     0.61808   0.48458   0.78629   0.00000  Uiso   1.00
N319   N     0.17085   0.45506   0.03885   0.00000  Uiso   1.00
N320   N     0.93058   0.76041   0.87990   0.00000  Uiso   1.00
N321   N     0.69582   0.46718   0.75090   0.00000  Uiso   1.00
N322   N     0.24859   0.43767   0.00346   0.00000  Uiso   1.00
C323   C     0.37379   0.74063   0.91661   0.00000  Uiso   1.00
C324   C     0.38703   0.60882   0.90760   0.00000  Uiso   1.00
C325   C     0.35485   0.50769   0.91974   0.00000  Uiso   1.00
C326   C     0.37409   0.39492   0.90845   0.00000  Uiso   1.00
C327   C     0.38706   0.19195   0.89789   0.00000  Uiso   1.00
C328   C     0.32231   0.80360   0.87204   0.00000  Uiso   1.00
C329   C     0.23573   0.86625   0.85429   0.00000  Uiso   1.00
C330   C     0.20051   0.91745   0.81307   0.00000  Uiso   1.00
C331   C     0.11304   0.01695   0.74732   0.00000  Uiso   1.00
C332   C     0.47466   0.79545   0.94165   0.00000  Uiso   1.00
C333   C     0.51616   0.85127   0.98242   0.00000  Uiso   1.00
C334   C     0.60920   0.89563   0.99980   0.00000  Uiso   1.00
C335   C     0.75827   0.98247   0.04213   0.00000  Uiso   1.00
C336   C     0.46520   0.72018   0.87499   0.00000  Uiso   1.00
C337   C     0.43668   0.59772   0.88500   0.00000  Uiso   1.00
C338   C     0.45598   0.48507   0.87369   0.00000  Uiso   1.00
C339   C     0.42384   0.38379   0.88581   0.00000  Uiso   1.00
C340   C     0.37196   0.79250   0.84944   0.00000  Uiso   1.00
C341   C     0.33687   0.84362   0.80824   0.00000  Uiso   1.00
C342   C     0.25025   0.90632   0.79043   0.00000  Uiso   1.00
C343   C     0.52431   0.78434   0.91905   0.00000  Uiso   1.00
C344   C     0.61730   0.82863   0.93637   0.00000  Uiso   1.00
C345   C     0.65894   0.88450   0.97716   0.00000  Uiso   1.00
H346   H     0.33513   0.74928   0.93420   0.00000  Uiso   1.00
H347   H     0.31641   0.51633   0.93723   0.00000  Uiso   1.00
H348   H     0.19733   0.87484   0.87179   0.00000  Uiso   1.00
H349   H     0.47772   0.85985   0.99990   0.00000  Uiso   1.00
H350   H     0.31754   0.25316   0.93060   0.00000  Uiso   1.00
H351   H     0.06644   0.00913   0.79262   0.00000  Uiso   1.00
H352   H     0.65770   0.97753   0.06277   0.00000  Uiso   1.00
H353   H     0.50386   0.71153   0.85739   0.00000  Uiso   1.00
H354   H     0.49441   0.47650   0.85620   0.00000  Uiso   1.00
H355   H     0.37531   0.83501   0.79076   0.00000  Uiso   1.00
H356   H     0.65570   0.82002   0.91887   0.00000  Uiso   1.00
H357   H     0.46200   0.22083   0.86483   0.00000  Uiso   1.00
H358   H     0.21090   0.97681   0.72686   0.00000  Uiso   1.00
H359   H     0.80216   0.94520   0.99700   0.00000  Uiso   1.00
O360   O     0.38048   0.08307   0.89830   0.00000  Uiso   1.00
O361   O     0.05106   0.07489   0.71729   0.00000  Uiso   1.00
O362   O     0.82678   0.03342   0.07172   0.00000  Uiso   1.00
N363   N     0.35285   0.27781   0.91529   0.00000  Uiso   1.00
N364   N     0.11808   0.98458   0.78629   0.00000  Uiso   1.00
N365   N     0.67085   0.95506   0.03885   0.00000  Uiso   1.00
N366   N     0.43058   0.26041   0.87990   0.00000  Uiso   1.00
N367   N     0.19582   0.96718   0.75090   0.00000  Uiso   1.00
N368   N     0.74859   0.93767   0.00346   0.00000  Uiso   1.00
