data_job_05335
_audit_creation_date              2018-12-19
_audit_creation_method            'Materials Studio'
_symmetry_space_group_name_H-M    'P1'
_symmetry_Int_Tables_number       1
_symmetry_cell_setting            triclinic
loop_
_symmetry_equiv_pos_as_xyz
  x,y,z
_cell_length_a                    12.2379
_cell_length_b                    12.2379
_cell_length_c                    31.4269
_cell_angle_alpha                 90.0000
_cell_angle_beta                  90.0000
_cell_angle_gamma                 120.0000
loop_
_atom_site_label
_atom_site_type_symbol
_atom_site_fract_x
_atom_site_fract_y
_atom_site_fract_z
_atom_site_U_iso_or_equiv
_atom_site_adp_type
_atom_site_occupancy
C1     C     0.36096   0.50992   0.89289   0.00000  Uiso   1.00
C2     C     0.29344   0.36883   0.88345   0.00000  Uiso   1.00
C3     C     0.30367   0.31386   0.84616   0.00000  Uiso   1.00
C4     C     0.23425   0.18315   0.84371   0.00000  Uiso   1.00
C5     C     0.14105   0.97518   0.82392   0.00000  Uiso   1.00
C6     C     0.25784   0.54066   0.90375   0.00000  Uiso   1.00
C7     C     0.23815   0.63019   0.88354   0.00000  Uiso   1.00
C8     C     0.13877   0.64413   0.89818   0.00000  Uiso   1.00
C9     C     0.99036   0.70301   0.90994   0.00000  Uiso   1.00
C10    C     0.43463   0.52816   0.93393   0.00000  Uiso   1.00
C11    C     0.56359   0.60720   0.93910   0.00000  Uiso   1.00
C12    C     0.61306   0.61065   0.97916   0.00000  Uiso   1.00
C13    C     0.73915   0.65011   0.03777   0.00000  Uiso   1.00
C14    C     0.21949   0.37552   0.95486   0.00000  Uiso   1.00
C15    C     0.21660   0.29583   0.91711   0.00000  Uiso   1.00
C16    C     0.14715   0.16516   0.91472   0.00000  Uiso   1.00
C17    C     0.15728   0.11001   0.87743   0.00000  Uiso   1.00
C18    C     0.18100   0.46766   0.93741   0.00000  Uiso   1.00
C19    C     0.08163   0.48149   0.95210   0.00000  Uiso   1.00
C20    C     0.06179   0.57100   0.93190   0.00000  Uiso   1.00
C21    C     0.35780   0.45516   0.96759   0.00000  Uiso   1.00
C22    C     0.40707   0.45849   0.00766   0.00000  Uiso   1.00
C23    C     0.53608   0.53752   0.01288   0.00000  Uiso   1.00
H24    H     0.42078   0.56675   0.86669   0.00000  Uiso   1.00
H25    H     0.36314   0.37039   0.82012   0.00000  Uiso   1.00
H26    H     0.29764   0.68667   0.85749   0.00000  Uiso   1.00
H27    H     0.62302   0.66368   0.91304   0.00000  Uiso   1.00
H28    H     0.26531   0.12049   0.78332   0.00000  Uiso   1.00
H29    H     0.12723   0.78742   0.86214   0.00000  Uiso   1.00
H30    H     0.81337   0.73895   0.97928   0.00000  Uiso   1.00
H31    H     0.15966   0.31868   0.98107   0.00000  Uiso   1.00
H32    H     0.08769   0.10869   0.94077   0.00000  Uiso   1.00
H33    H     0.02219   0.42498   0.97814   0.00000  Uiso   1.00
H34    H     0.34758   0.40199   0.03370   0.00000  Uiso   1.00
H35    H     0.04174   0.90809   0.88125   0.00000  Uiso   1.00
H36    H     0.90367   0.57503   0.96006   0.00000  Uiso   1.00
H37    H     0.58981   0.52655   0.07721   0.00000  Uiso   1.00
O38    O     0.11086   0.88063   0.80371   0.00000  Uiso   1.00
O39    O     0.92972   0.75564   0.90712   0.00000  Uiso   1.00
O40    O     0.82992   0.69203   0.06081   0.00000  Uiso   1.00
N41    N     0.22259   0.09932   0.81190   0.00000  Uiso   1.00
N42    N     0.09348   0.72285   0.88559   0.00000  Uiso   1.00
N43    N     0.73496   0.67755   0.99511   0.00000  Uiso   1.00
N44    N     0.10229   0.98503   0.86459   0.00000  Uiso   1.00
N45    N     0.97318   0.60856   0.93828   0.00000  Uiso   1.00
N46    N     0.61466   0.56326   0.04780   0.00000  Uiso   1.00
C47    C     0.49008   0.85104   0.55956   0.00000  Uiso   1.00
C48    C     0.63117   0.92462   0.55012   0.00000  Uiso   1.00
C49    C     0.68614   0.98981   0.51282   0.00000  Uiso   1.00
C50    C     0.81685   0.05111   0.51038   0.00000  Uiso   1.00
C51    C     0.02482   0.16588   0.49059   0.00000  Uiso   1.00
C52    C     0.45934   0.71718   0.57042   0.00000  Uiso   1.00
C53    C     0.36981   0.60796   0.55020   0.00000  Uiso   1.00
C54    C     0.35587   0.49464   0.56485   0.00000  Uiso   1.00
C55    C     0.29699   0.28736   0.57660   0.00000  Uiso   1.00
C56    C     0.47184   0.90647   0.60060   0.00000  Uiso   1.00
C57    C     0.39280   0.95639   0.60576   0.00000  Uiso   1.00
C58    C     0.38935   0.00241   0.64583   0.00000  Uiso   1.00
C59    C     0.34989   0.08903   0.70444   0.00000  Uiso   1.00
C60    C     0.62448   0.84397   0.62153   0.00000  Uiso   1.00
C61    C     0.70417   0.92077   0.58378   0.00000  Uiso   1.00
C62    C     0.83484   0.98199   0.58138   0.00000  Uiso   1.00
C63    C     0.88999   0.04727   0.54409   0.00000  Uiso   1.00
C64    C     0.53234   0.71334   0.60408   0.00000  Uiso   1.00
C65    C     0.51851   0.60014   0.61876   0.00000  Uiso   1.00
C66    C     0.42900   0.49079   0.59857   0.00000  Uiso   1.00
C67    C     0.54484   0.90264   0.63426   0.00000  Uiso   1.00
C68    C     0.54151   0.94857   0.67432   0.00000  Uiso   1.00
C69    C     0.46248   0.99856   0.67955   0.00000  Uiso   1.00
H70    H     0.43325   0.85402   0.53335   0.00000  Uiso   1.00
H71    H     0.62961   0.99275   0.48678   0.00000  Uiso   1.00
H72    H     0.31333   0.61096   0.52416   0.00000  Uiso   1.00
H73    H     0.33632   0.95934   0.57971   0.00000  Uiso   1.00
H74    H     0.87951   0.14482   0.44999   0.00000  Uiso   1.00
H75    H     0.21258   0.33981   0.52880   0.00000  Uiso   1.00
H76    H     0.26105   0.07442   0.64595   0.00000  Uiso   1.00
H77    H     0.68132   0.84098   0.64773   0.00000  Uiso   1.00
H78    H     0.89131   0.97900   0.60744   0.00000  Uiso   1.00
H79    H     0.57502   0.59721   0.64481   0.00000  Uiso   1.00
H80    H     0.59801   0.94559   0.70036   0.00000  Uiso   1.00
H81    H     0.09191   0.13366   0.54791   0.00000  Uiso   1.00
H82    H     0.42497   0.32864   0.62673   0.00000  Uiso   1.00
H83    H     0.47345   0.06326   0.74387   0.00000  Uiso   1.00
O84    O     0.11937   0.23023   0.47037   0.00000  Uiso   1.00
O85    O     0.24436   0.17408   0.57378   0.00000  Uiso   1.00
O86    O     0.30797   0.13789   0.72747   0.00000  Uiso   1.00
N87    N     0.90068   0.12327   0.47857   0.00000  Uiso   1.00
N88    N     0.27715   0.37063   0.55225   0.00000  Uiso   1.00
N89    N     0.32245   0.05741   0.66178   0.00000  Uiso   1.00
N90    N     0.01497   0.11727   0.53126   0.00000  Uiso   1.00
N91    N     0.39144   0.36463   0.60495   0.00000  Uiso   1.00
N92    N     0.43674   0.05140   0.71447   0.00000  Uiso   1.00
C93    C     0.14896   0.63904   0.22622   0.00000  Uiso   1.00
C94    C     0.07538   0.70656   0.21678   0.00000  Uiso   1.00
C95    C     0.01019   0.69633   0.17949   0.00000  Uiso   1.00
C96    C     0.94889   0.76575   0.17704   0.00000  Uiso   1.00
C97    C     0.83412   0.85895   0.15725   0.00000  Uiso   1.00
C98    C     0.28282   0.74216   0.23709   0.00000  Uiso   1.00
C99    C     0.39204   0.76185   0.21687   0.00000  Uiso   1.00
C100   C     0.50536   0.86123   0.23152   0.00000  Uiso   1.00
C101   C     0.71264   0.00964   0.24327   0.00000  Uiso   1.00
C102   C     0.09353   0.56537   0.26727   0.00000  Uiso   1.00
C103   C     0.04361   0.43641   0.27243   0.00000  Uiso   1.00
C104   C     0.99759   0.38694   0.31249   0.00000  Uiso   1.00
C105   C     0.91097   0.26085   0.37111   0.00000  Uiso   1.00
C106   C     0.15603   0.78051   0.28819   0.00000  Uiso   1.00
C107   C     0.07923   0.78340   0.25044   0.00000  Uiso   1.00
C108   C     0.01801   0.85285   0.24805   0.00000  Uiso   1.00
C109   C     0.95273   0.84272   0.21076   0.00000  Uiso   1.00
C110   C     0.28666   0.81900   0.27074   0.00000  Uiso   1.00
C111   C     0.39986   0.91837   0.28543   0.00000  Uiso   1.00
C112   C     0.50921   0.93821   0.26524   0.00000  Uiso   1.00
C113   C     0.09736   0.64220   0.30093   0.00000  Uiso   1.00
C114   C     0.05143   0.59293   0.34099   0.00000  Uiso   1.00
C115   C     0.00144   0.46392   0.34621   0.00000  Uiso   1.00
H116   H     0.14598   0.57922   0.20002   0.00000  Uiso   1.00
H117   H     0.00725   0.63686   0.15345   0.00000  Uiso   1.00
H118   H     0.38904   0.70236   0.19083   0.00000  Uiso   1.00
H119   H     0.04066   0.37698   0.24638   0.00000  Uiso   1.00
H120   H     0.85518   0.73469   0.11665   0.00000  Uiso   1.00
H121   H     0.66019   0.87277   0.19547   0.00000  Uiso   1.00
H122   H     0.92558   0.18663   0.31262   0.00000  Uiso   1.00
H123   H     0.15902   0.84034   0.31440   0.00000  Uiso   1.00
H124   H     0.02100   0.91231   0.27410   0.00000  Uiso   1.00
H125   H     0.40279   0.97781   0.31148   0.00000  Uiso   1.00
H126   H     0.05441   0.65242   0.36703   0.00000  Uiso   1.00
H127   H     0.86634   0.95826   0.21458   0.00000  Uiso   1.00
H128   H     0.67136   0.09633   0.29340   0.00000  Uiso   1.00
H129   H     0.93674   0.41019   0.41054   0.00000  Uiso   1.00
O130   O     0.76977   0.88914   0.13704   0.00000  Uiso   1.00
O131   O     0.82592   0.07028   0.24045   0.00000  Uiso   1.00
O132   O     0.86211   0.17008   0.39414   0.00000  Uiso   1.00
N133   N     0.87673   0.77741   0.14523   0.00000  Uiso   1.00
N134   N     0.62937   0.90652   0.21892   0.00000  Uiso   1.00
N135   N     0.94259   0.26504   0.32844   0.00000  Uiso   1.00
N136   N     0.88273   0.89771   0.19793   0.00000  Uiso   1.00
N137   N     0.63537   0.02682   0.27161   0.00000  Uiso   1.00
N138   N     0.94860   0.38534   0.38114   0.00000  Uiso   1.00
C139   C     0.49008   0.63904   0.44044   0.00000  Uiso   1.00
C140   C     0.63117   0.70656   0.44988   0.00000  Uiso   1.00
C141   C     0.68614   0.69633   0.48718   0.00000  Uiso   1.00
C142   C     0.81685   0.76575   0.48962   0.00000  Uiso   1.00
C143   C     0.02482   0.85895   0.50941   0.00000  Uiso   1.00
C144   C     0.45934   0.74216   0.42958   0.00000  Uiso   1.00
C145   C     0.36981   0.76185   0.44980   0.00000  Uiso   1.00
C146   C     0.35587   0.86123   0.43515   0.00000  Uiso   1.00
C147   C     0.29699   0.00964   0.42340   0.00000  Uiso   1.00
C148   C     0.47184   0.56537   0.39940   0.00000  Uiso   1.00
C149   C     0.39280   0.43641   0.39424   0.00000  Uiso   1.00
C150   C     0.38935   0.38694   0.35417   0.00000  Uiso   1.00
C151   C     0.34989   0.26085   0.29556   0.00000  Uiso   1.00
C152   C     0.62448   0.78051   0.37847   0.00000  Uiso   1.00
C153   C     0.70417   0.78340   0.41622   0.00000  Uiso   1.00
C154   C     0.83484   0.85285   0.41862   0.00000  Uiso   1.00
C155   C     0.88999   0.84272   0.45591   0.00000  Uiso   1.00
C156   C     0.53234   0.81900   0.39592   0.00000  Uiso   1.00
C157   C     0.51851   0.91837   0.38124   0.00000  Uiso   1.00
C158   C     0.42900   0.93821   0.40143   0.00000  Uiso   1.00
C159   C     0.54484   0.64220   0.36574   0.00000  Uiso   1.00
C160   C     0.54151   0.59293   0.32568   0.00000  Uiso   1.00
C161   C     0.46248   0.46392   0.32045   0.00000  Uiso   1.00
H162   H     0.43325   0.57922   0.46665   0.00000  Uiso   1.00
H163   H     0.62961   0.63686   0.51322   0.00000  Uiso   1.00
H164   H     0.31333   0.70236   0.47584   0.00000  Uiso   1.00
H165   H     0.33632   0.37698   0.42029   0.00000  Uiso   1.00
H166   H     0.87951   0.73469   0.55001   0.00000  Uiso   1.00
H167   H     0.21258   0.87277   0.47120   0.00000  Uiso   1.00
H168   H     0.26105   0.18663   0.35405   0.00000  Uiso   1.00
H169   H     0.68132   0.84034   0.35227   0.00000  Uiso   1.00
H170   H     0.89131   0.91231   0.39256   0.00000  Uiso   1.00
H171   H     0.57502   0.97781   0.35519   0.00000  Uiso   1.00
H172   H     0.59801   0.65242   0.29964   0.00000  Uiso   1.00
H173   H     0.09191   0.95826   0.45209   0.00000  Uiso   1.00
H174   H     0.42497   0.09633   0.37327   0.00000  Uiso   1.00
H175   H     0.47345   0.41019   0.25613   0.00000  Uiso   1.00
O176   O     0.11937   0.88914   0.52963   0.00000  Uiso   1.00
O177   O     0.24436   0.07028   0.42622   0.00000  Uiso   1.00
O178   O     0.30797   0.17008   0.27253   0.00000  Uiso   1.00
N179   N     0.90068   0.77741   0.52143   0.00000  Uiso   1.00
N180   N     0.27715   0.90652   0.44775   0.00000  Uiso   1.00
N181   N     0.32245   0.26504   0.33822   0.00000  Uiso   1.00
N182   N     0.01497   0.89771   0.46874   0.00000  Uiso   1.00
N183   N     0.39144   0.02682   0.39505   0.00000  Uiso   1.00
N184   N     0.43674   0.38534   0.28553   0.00000  Uiso   1.00
C185   C     0.14896   0.50992   0.77378   0.00000  Uiso   1.00
C186   C     0.07538   0.36883   0.78322   0.00000  Uiso   1.00
C187   C     0.01019   0.31386   0.82051   0.00000  Uiso   1.00
C188   C     0.94889   0.18315   0.82296   0.00000  Uiso   1.00
C189   C     0.83412   0.97518   0.84275   0.00000  Uiso   1.00
C190   C     0.28282   0.54066   0.76291   0.00000  Uiso   1.00
C191   C     0.39204   0.63019   0.78313   0.00000  Uiso   1.00
C192   C     0.50536   0.64413   0.76848   0.00000  Uiso   1.00
C193   C     0.71264   0.70301   0.75673   0.00000  Uiso   1.00
C194   C     0.09353   0.52816   0.73273   0.00000  Uiso   1.00
C195   C     0.04361   0.60720   0.72757   0.00000  Uiso   1.00
C196   C     0.99759   0.61065   0.68751   0.00000  Uiso   1.00
C197   C     0.91097   0.65011   0.62889   0.00000  Uiso   1.00
C198   C     0.15603   0.37552   0.71181   0.00000  Uiso   1.00
C199   C     0.07923   0.29583   0.74956   0.00000  Uiso   1.00
C200   C     0.01801   0.16516   0.75195   0.00000  Uiso   1.00
C201   C     0.95273   0.11001   0.78924   0.00000  Uiso   1.00
C202   C     0.28666   0.46766   0.72926   0.00000  Uiso   1.00
C203   C     0.39986   0.48149   0.71457   0.00000  Uiso   1.00
C204   C     0.50921   0.57100   0.73476   0.00000  Uiso   1.00
C205   C     0.09736   0.45516   0.69907   0.00000  Uiso   1.00
C206   C     0.05143   0.45849   0.65901   0.00000  Uiso   1.00
C207   C     0.00144   0.53752   0.65379   0.00000  Uiso   1.00
H208   H     0.14598   0.56675   0.79998   0.00000  Uiso   1.00
H209   H     0.00725   0.37039   0.84655   0.00000  Uiso   1.00
H210   H     0.38904   0.68667   0.80917   0.00000  Uiso   1.00
H211   H     0.04066   0.66368   0.75362   0.00000  Uiso   1.00
H212   H     0.85518   0.12049   0.88335   0.00000  Uiso   1.00
H213   H     0.66019   0.78742   0.80453   0.00000  Uiso   1.00
H214   H     0.92558   0.73895   0.68738   0.00000  Uiso   1.00
H215   H     0.15902   0.31868   0.68560   0.00000  Uiso   1.00
H216   H     0.02100   0.10869   0.72590   0.00000  Uiso   1.00
H217   H     0.40279   0.42498   0.68852   0.00000  Uiso   1.00
H218   H     0.05441   0.40199   0.63297   0.00000  Uiso   1.00
H219   H     0.86634   0.90809   0.78542   0.00000  Uiso   1.00
H220   H     0.67136   0.57503   0.70660   0.00000  Uiso   1.00
H221   H     0.93674   0.52655   0.58946   0.00000  Uiso   1.00
O222   O     0.76977   0.88063   0.86296   0.00000  Uiso   1.00
O223   O     0.82592   0.75564   0.75955   0.00000  Uiso   1.00
O224   O     0.86211   0.69203   0.60586   0.00000  Uiso   1.00
N225   N     0.87673   0.09932   0.85477   0.00000  Uiso   1.00
N226   N     0.62937   0.72285   0.78108   0.00000  Uiso   1.00
N227   N     0.94259   0.67755   0.67156   0.00000  Uiso   1.00
N228   N     0.88273   0.98503   0.80207   0.00000  Uiso   1.00
N229   N     0.63537   0.60856   0.72839   0.00000  Uiso   1.00
N230   N     0.94860   0.56326   0.61886   0.00000  Uiso   1.00
C231   C     0.36096   0.85104   0.10711   0.00000  Uiso   1.00
C232   C     0.29344   0.92462   0.11655   0.00000  Uiso   1.00
C233   C     0.30367   0.98981   0.15384   0.00000  Uiso   1.00
C234   C     0.23425   0.05111   0.15629   0.00000  Uiso   1.00
C235   C     0.14105   0.16588   0.17608   0.00000  Uiso   1.00
C236   C     0.25784   0.71718   0.09625   0.00000  Uiso   1.00
C237   C     0.23815   0.60796   0.11646   0.00000  Uiso   1.00
C238   C     0.13877   0.49464   0.10182   0.00000  Uiso   1.00
C239   C     0.99036   0.28736   0.09006   0.00000  Uiso   1.00
C240   C     0.43463   0.90647   0.06607   0.00000  Uiso   1.00
C241   C     0.56359   0.95639   0.06090   0.00000  Uiso   1.00
C242   C     0.61306   0.00241   0.02084   0.00000  Uiso   1.00
C243   C     0.73915   0.08903   0.96223   0.00000  Uiso   1.00
C244   C     0.21949   0.84397   0.04514   0.00000  Uiso   1.00
C245   C     0.21660   0.92077   0.08289   0.00000  Uiso   1.00
C246   C     0.14715   0.98199   0.08528   0.00000  Uiso   1.00
C247   C     0.15728   0.04727   0.12257   0.00000  Uiso   1.00
C248   C     0.18100   0.71334   0.06259   0.00000  Uiso   1.00
C249   C     0.08163   0.60014   0.04790   0.00000  Uiso   1.00
C250   C     0.06179   0.49079   0.06810   0.00000  Uiso   1.00
C251   C     0.35780   0.90264   0.03241   0.00000  Uiso   1.00
C252   C     0.40707   0.94857   0.99234   0.00000  Uiso   1.00
C253   C     0.53608   0.99856   0.98712   0.00000  Uiso   1.00
H254   H     0.42078   0.85402   0.13331   0.00000  Uiso   1.00
H255   H     0.36314   0.99275   0.17988   0.00000  Uiso   1.00
H256   H     0.29764   0.61096   0.14251   0.00000  Uiso   1.00
H257   H     0.62302   0.95934   0.08696   0.00000  Uiso   1.00
H258   H     0.26531   0.14482   0.21668   0.00000  Uiso   1.00
H259   H     0.12723   0.33981   0.13786   0.00000  Uiso   1.00
H260   H     0.81337   0.07442   0.02072   0.00000  Uiso   1.00
H261   H     0.15966   0.84098   0.01893   0.00000  Uiso   1.00
H262   H     0.08769   0.97900   0.05923   0.00000  Uiso   1.00
H263   H     0.02219   0.59721   0.02186   0.00000  Uiso   1.00
H264   H     0.34758   0.94559   0.96630   0.00000  Uiso   1.00
H265   H     0.04174   0.13366   0.11875   0.00000  Uiso   1.00
H266   H     0.90367   0.32864   0.03994   0.00000  Uiso   1.00
H267   H     0.58981   0.06326   0.92279   0.00000  Uiso   1.00
O268   O     0.11086   0.23023   0.19629   0.00000  Uiso   1.00
O269   O     0.92972   0.17408   0.09288   0.00000  Uiso   1.00
O270   O     0.82992   0.13789   0.93919   0.00000  Uiso   1.00
N271   N     0.22259   0.12327   0.18810   0.00000  Uiso   1.00
N272   N     0.09348   0.37063   0.11441   0.00000  Uiso   1.00
N273   N     0.73496   0.05741   0.00489   0.00000  Uiso   1.00
N274   N     0.10229   0.11727   0.13541   0.00000  Uiso   1.00
N275   N     0.97318   0.36463   0.06172   0.00000  Uiso   1.00
N276   N     0.61466   0.05140   0.95220   0.00000  Uiso   1.00
