data_job_05275
_audit_creation_date              2018-12-19
_audit_creation_method            'Materials Studio'
_symmetry_space_group_name_H-M    'P1'
_symmetry_Int_Tables_number       1
_symmetry_cell_setting            triclinic
loop_
_symmetry_equiv_pos_as_xyz
  x,y,z
_cell_length_a                    14.2030
_cell_length_b                    14.2030
_cell_length_c                    11.9522
_cell_angle_alpha                 90.0000
_cell_angle_beta                  90.0000
_cell_angle_gamma                 120.0000
loop_
_atom_site_label
_atom_site_type_symbol
_atom_site_fract_x
_atom_site_fract_y
_atom_site_fract_z
_atom_site_U_iso_or_equiv
_atom_site_adp_type
_atom_site_occupancy
C1     C     0.77424   0.01040   0.78472   0.00000  Uiso   1.00
C2     C     0.73532   0.99391   0.66363   0.00000  Uiso   1.00
C3     C     0.74206   0.07433   0.59256   0.00000  Uiso   1.00
C4     C     0.70188   0.04277   0.48487   0.00000  Uiso   1.00
C5     C     0.64828   0.03361   0.30223   0.00000  Uiso   1.00
C6     C     0.67590   0.93214   0.85431   0.00000  Uiso   1.00
C7     C     0.63272   0.96063   0.94357   0.00000  Uiso   1.00
C8     C     0.54253   0.87707   0.99640   0.00000  Uiso   1.00
C9     C     0.39675   0.77200   0.10985   0.00000  Uiso   1.00
C10    C     0.85435   0.96873   0.79176   0.00000  Uiso   1.00
C11    C     0.96119   0.02797   0.82845   0.00000  Uiso   1.00
C12    C     0.02123   0.97521   0.82864   0.00000  Uiso   1.00
C13    C     0.15251   0.92695   0.84497   0.00000  Uiso   1.00
C14    C     0.69087   0.81136   0.71985   0.00000  Uiso   1.00
C15    C     0.69003   0.88580   0.62841   0.00000  Uiso   1.00
C16    C     0.64983   0.85411   0.52079   0.00000  Uiso   1.00
C17    C     0.65652   0.93447   0.44957   0.00000  Uiso   1.00
C18    C     0.63063   0.82404   0.81909   0.00000  Uiso   1.00
C19    C     0.54049   0.74041   0.87180   0.00000  Uiso   1.00
C20    C     0.49717   0.76876   0.96110   0.00000  Uiso   1.00
C21    C     0.80907   0.86062   0.75653   0.00000  Uiso   1.00
C22    C     0.86896   0.80775   0.75667   0.00000  Uiso   1.00
C23    C     0.97587   0.86690   0.79335   0.00000  Uiso   1.00
H24    H     0.80948   0.09456   0.81216   0.00000  Uiso   1.00
H25    H     0.77710   0.15799   0.61986   0.00000  Uiso   1.00
H26    H     0.66778   0.04430   0.97082   0.00000  Uiso   1.00
H27    H     0.99620   0.11163   0.85571   0.00000  Uiso   1.00
H28    H     0.72120   0.18061   0.39114   0.00000  Uiso   1.00
H29    H     0.49071   0.94089   0.13118   0.00000  Uiso   1.00
H30    H     0.18324   0.08288   0.88845   0.00000  Uiso   1.00
H31    H     0.65562   0.72718   0.69243   0.00000  Uiso   1.00
H32    H     0.61480   0.77044   0.49355   0.00000  Uiso   1.00
H33    H     0.50547   0.65676   0.84452   0.00000  Uiso   1.00
H34    H     0.83389   0.72409   0.72940   0.00000  Uiso   1.00
H35    H     0.58946   0.86607   0.28862   0.00000  Uiso   1.00
H36    H     0.35897   0.62635   0.02868   0.00000  Uiso   1.00
H37    H     0.05151   0.76833   0.78594   0.00000  Uiso   1.00
O38    O     0.63122   0.05842   0.21123   0.00000  Uiso   1.00
O39    O     0.32884   0.74392   0.18215   0.00000  Uiso   1.00
O40    O     0.23743   0.93020   0.86369   0.00000  Uiso   1.00
N41    N     0.69581   0.10065   0.39430   0.00000  Uiso   1.00
N42    N     0.48031   0.87653   0.08618   0.00000  Uiso   1.00
N43    N     0.12776   0.00927   0.85928   0.00000  Uiso   1.00
N44    N     0.62493   0.93140   0.33913   0.00000  Uiso   1.00
N45    N     0.40942   0.70728   0.03102   0.00000  Uiso   1.00
N46    N     0.05688   0.84001   0.80412   0.00000  Uiso   1.00
C47    C     0.98960   0.76384   0.45139   0.00000  Uiso   1.00
C48    C     0.00609   0.74140   0.33030   0.00000  Uiso   1.00
C49    C     0.92567   0.66773   0.25923   0.00000  Uiso   1.00
C50    C     0.95723   0.65910   0.15153   0.00000  Uiso   1.00
C51    C     0.96639   0.61467   0.96890   0.00000  Uiso   1.00
C52    C     0.06786   0.74376   0.52098   0.00000  Uiso   1.00
C53    C     0.03937   0.67209   0.61024   0.00000  Uiso   1.00
C54    C     0.12293   0.66546   0.66306   0.00000  Uiso   1.00
C55    C     0.22800   0.62475   0.77652   0.00000  Uiso   1.00
C56    C     0.03127   0.88561   0.45843   0.00000  Uiso   1.00
C57    C     0.97203   0.93322   0.49512   0.00000  Uiso   1.00
C58    C     0.02479   0.04602   0.49531   0.00000  Uiso   1.00
C59    C     0.07305   0.22556   0.51163   0.00000  Uiso   1.00
C60    C     0.18864   0.87952   0.38652   0.00000  Uiso   1.00
C61    C     0.11420   0.80423   0.29507   0.00000  Uiso   1.00
C62    C     0.14589   0.79572   0.18746   0.00000  Uiso   1.00
C63    C     0.06553   0.72205   0.11623   0.00000  Uiso   1.00
C64    C     0.17596   0.80659   0.48575   0.00000  Uiso   1.00
C65    C     0.25959   0.80007   0.53847   0.00000  Uiso   1.00
C66    C     0.23124   0.72840   0.62777   0.00000  Uiso   1.00
C67    C     0.13938   0.94845   0.42319   0.00000  Uiso   1.00
C68    C     0.19225   0.06120   0.42334   0.00000  Uiso   1.00
C69    C     0.13310   0.10897   0.46001   0.00000  Uiso   1.00
H70    H     0.90544   0.71492   0.47882   0.00000  Uiso   1.00
H71    H     0.84201   0.61911   0.28653   0.00000  Uiso   1.00
H72    H     0.95570   0.62348   0.63749   0.00000  Uiso   1.00
H73    H     0.88837   0.88457   0.52237   0.00000  Uiso   1.00
H74    H     0.81939   0.54058   0.05781   0.00000  Uiso   1.00
H75    H     0.05911   0.54981   0.79785   0.00000  Uiso   1.00
H76    H     0.91712   0.10036   0.55512   0.00000  Uiso   1.00
H77    H     0.27282   0.92844   0.35909   0.00000  Uiso   1.00
H78    H     0.22956   0.84435   0.16022   0.00000  Uiso   1.00
H79    H     0.34324   0.84871   0.51118   0.00000  Uiso   1.00
H80    H     0.27591   0.10980   0.39607   0.00000  Uiso   1.00
H81    H     0.13393   0.72339   0.95529   0.00000  Uiso   1.00
H82    H     0.37365   0.73262   0.69534   0.00000  Uiso   1.00
H83    H     0.23167   0.28317   0.45260   0.00000  Uiso   1.00
O84    O     0.94158   0.57279   0.87790   0.00000  Uiso   1.00
O85    O     0.25608   0.58492   0.84882   0.00000  Uiso   1.00
O86    O     0.06980   0.30723   0.53035   0.00000  Uiso   1.00
N87    N     0.89935   0.59516   0.06096   0.00000  Uiso   1.00
N88    N     0.12347   0.60378   0.75285   0.00000  Uiso   1.00
N89    N     0.99073   0.11850   0.52595   0.00000  Uiso   1.00
N90    N     0.06860   0.69353   0.00580   0.00000  Uiso   1.00
N91    N     0.29272   0.70215   0.69769   0.00000  Uiso   1.00
N92    N     0.15999   0.21687   0.47078   0.00000  Uiso   1.00
C93    C     0.23616   0.22576   0.11805   0.00000  Uiso   1.00
C94    C     0.25860   0.26468   0.99697   0.00000  Uiso   1.00
C95    C     0.33227   0.25794   0.92589   0.00000  Uiso   1.00
C96    C     0.34090   0.29812   0.81820   0.00000  Uiso   1.00
C97    C     0.38533   0.35172   0.63556   0.00000  Uiso   1.00
C98    C     0.25624   0.32410   0.18765   0.00000  Uiso   1.00
C99    C     0.32791   0.36728   0.27690   0.00000  Uiso   1.00
C100   C     0.33454   0.45747   0.32973   0.00000  Uiso   1.00
C101   C     0.37525   0.60325   0.44318   0.00000  Uiso   1.00
C102   C     0.11439   0.14565   0.12510   0.00000  Uiso   1.00
C103   C     0.06678   0.03881   0.16178   0.00000  Uiso   1.00
C104   C     0.95398   0.97877   0.16197   0.00000  Uiso   1.00
C105   C     0.77444   0.84749   0.17830   0.00000  Uiso   1.00
C106   C     0.12048   0.30913   0.05319   0.00000  Uiso   1.00
C107   C     0.19577   0.30997   0.96174   0.00000  Uiso   1.00
C108   C     0.20428   0.35017   0.85412   0.00000  Uiso   1.00
C109   C     0.27795   0.34348   0.78290   0.00000  Uiso   1.00
C110   C     0.19341   0.36937   0.15242   0.00000  Uiso   1.00
C111   C     0.19993   0.45951   0.20513   0.00000  Uiso   1.00
C112   C     0.27160   0.50283   0.29444   0.00000  Uiso   1.00
C113   C     0.05155   0.19093   0.08986   0.00000  Uiso   1.00
C114   C     0.93880   0.13104   0.09001   0.00000  Uiso   1.00
C115   C     0.89103   0.02413   0.12668   0.00000  Uiso   1.00
H116   H     0.28508   0.19052   0.14549   0.00000  Uiso   1.00
H117   H     0.38089   0.22290   0.95319   0.00000  Uiso   1.00
H118   H     0.37652   0.33222   0.30415   0.00000  Uiso   1.00
H119   H     0.11543   0.00380   0.18904   0.00000  Uiso   1.00
H120   H     0.45942   0.27880   0.72447   0.00000  Uiso   1.00
H121   H     0.45019   0.50929   0.46452   0.00000  Uiso   1.00
H122   H     0.89964   0.81676   0.22179   0.00000  Uiso   1.00
H123   H     0.07156   0.34438   0.02576   0.00000  Uiso   1.00
H124   H     0.15565   0.38520   0.82688   0.00000  Uiso   1.00
H125   H     0.15129   0.49453   0.17785   0.00000  Uiso   1.00
H126   H     0.89020   0.16611   0.06274   0.00000  Uiso   1.00
H127   H     0.27661   0.41054   0.62196   0.00000  Uiso   1.00
H128   H     0.26738   0.64103   0.36201   0.00000  Uiso   1.00
H129   H     0.71683   0.94849   0.11927   0.00000  Uiso   1.00
O130   O     0.42721   0.36878   0.54456   0.00000  Uiso   1.00
O131   O     0.41508   0.67116   0.51549   0.00000  Uiso   1.00
O132   O     0.69277   0.76257   0.19702   0.00000  Uiso   1.00
N133   N     0.40484   0.30419   0.72763   0.00000  Uiso   1.00
N134   N     0.39622   0.51969   0.41952   0.00000  Uiso   1.00
N135   N     0.88150   0.87224   0.19261   0.00000  Uiso   1.00
N136   N     0.30647   0.37507   0.67247   0.00000  Uiso   1.00
N137   N     0.29785   0.59058   0.36435   0.00000  Uiso   1.00
N138   N     0.78313   0.94312   0.13745   0.00000  Uiso   1.00
