data_job_03620
_audit_creation_date              2018-12-19
_audit_creation_method            'Materials Studio'
_symmetry_space_group_name_H-M    'P1'
_symmetry_Int_Tables_number       1
_symmetry_cell_setting            triclinic
loop_
_symmetry_equiv_pos_as_xyz
  x,y,z
_cell_length_a                    23.1949
_cell_length_b                    23.1949
_cell_length_c                    20.8152
_cell_angle_alpha                 90.0000
_cell_angle_beta                  90.0000
_cell_angle_gamma                 90.0000
loop_
_atom_site_label
_atom_site_type_symbol
_atom_site_fract_x
_atom_site_fract_y
_atom_site_fract_z
_atom_site_U_iso_or_equiv
_atom_site_adp_type
_atom_site_occupancy
C1     C     0.55574   0.91608   0.27897   0.00000  Uiso   1.00
C2     C     0.53575   0.91887   0.34870   0.00000  Uiso   1.00
C3     C     0.47890   0.92166   0.36924   0.00000  Uiso   1.00
C4     C     0.46959   0.92393   0.43508   0.00000  Uiso   1.00
C5     C     0.43157   0.92836   0.53670   0.00000  Uiso   1.00
C6     C     0.59672   0.96683   0.26978   0.00000  Uiso   1.00
C7     C     0.59112   0.00993   0.22395   0.00000  Uiso   1.00
C8     C     0.63313   0.05257   0.22335   0.00000  Uiso   1.00
C9     C     0.68978   0.13144   0.20242   0.00000  Uiso   1.00
C10    C     0.59269   0.86193   0.27354   0.00000  Uiso   1.00
C11    C     0.58372   0.81684   0.23087   0.00000  Uiso   1.00
C12    C     0.62235   0.77116   0.23343   0.00000  Uiso   1.00
C13    C     0.67275   0.68715   0.21833   0.00000  Uiso   1.00
C14    C     0.64029   0.91516   0.35937   0.00000  Uiso   1.00
C15    C     0.58168   0.91837   0.39237   0.00000  Uiso   1.00
C16    C     0.57245   0.92064   0.45819   0.00000  Uiso   1.00
C17    C     0.51559   0.92343   0.47883   0.00000  Uiso   1.00
C18    C     0.64264   0.96633   0.31344   0.00000  Uiso   1.00
C19    C     0.68467   0.00892   0.31291   0.00000  Uiso   1.00
C20    C     0.67914   0.05207   0.26710   0.00000  Uiso   1.00
C21    C     0.63862   0.86143   0.31721   0.00000  Uiso   1.00
C22    C     0.67727   0.81582   0.31983   0.00000  Uiso   1.00
C23    C     0.66836   0.77066   0.27717   0.00000  Uiso   1.00
H24    H     0.51998   0.91648   0.24497   0.00000  Uiso   1.00
H25    H     0.44337   0.92205   0.33542   0.00000  Uiso   1.00
H26    H     0.55558   0.01031   0.19016   0.00000  Uiso   1.00
H27    H     0.54818   0.81724   0.19708   0.00000  Uiso   1.00
H28    H     0.37869   0.92802   0.45497   0.00000  Uiso   1.00
H29    H     0.61529   0.11411   0.14866   0.00000  Uiso   1.00
H30    H     0.59969   0.70699   0.16325   0.00000  Uiso   1.00
H31    H     0.67605   0.91478   0.39337   0.00000  Uiso   1.00
H32    H     0.60800   0.92025   0.49197   0.00000  Uiso   1.00
H33    H     0.72021   0.00851   0.34671   0.00000  Uiso   1.00
H34    H     0.71280   0.81544   0.35363   0.00000  Uiso   1.00
H35    H     0.51231   0.92657   0.58203   0.00000  Uiso   1.00
H36    H     0.74891   0.11266   0.27572   0.00000  Uiso   1.00
H37    H     0.73330   0.70554   0.29031   0.00000  Uiso   1.00
O38    O     0.39792   0.93095   0.58068   0.00000  Uiso   1.00
O39    O     0.70833   0.17508   0.17881   0.00000  Uiso   1.00
O40    O     0.68786   0.64095   0.19795   0.00000  Uiso   1.00
N41    N     0.41947   0.92692   0.47134   0.00000  Uiso   1.00
N42    N     0.64068   0.10091   0.18497   0.00000  Uiso   1.00
N43    N     0.62610   0.72029   0.19859   0.00000  Uiso   1.00
N44    N     0.49137   0.92614   0.53971   0.00000  Uiso   1.00
N45    N     0.71258   0.10012   0.25334   0.00000  Uiso   1.00
N46    N     0.69800   0.71951   0.26696   0.00000  Uiso   1.00
C47    C     0.44426   0.08392   0.27897   0.00000  Uiso   1.00
C48    C     0.46425   0.08113   0.34870   0.00000  Uiso   1.00
C49    C     0.52110   0.07834   0.36924   0.00000  Uiso   1.00
C50    C     0.53041   0.07607   0.43508   0.00000  Uiso   1.00
C51    C     0.56843   0.07164   0.53670   0.00000  Uiso   1.00
C52    C     0.40328   0.03317   0.26978   0.00000  Uiso   1.00
C53    C     0.40888   0.99007   0.22395   0.00000  Uiso   1.00
C54    C     0.36687   0.94743   0.22335   0.00000  Uiso   1.00
C55    C     0.31022   0.86856   0.20242   0.00000  Uiso   1.00
C56    C     0.40731   0.13807   0.27354   0.00000  Uiso   1.00
C57    C     0.41628   0.18316   0.23087   0.00000  Uiso   1.00
C58    C     0.37765   0.22884   0.23343   0.00000  Uiso   1.00
C59    C     0.32725   0.31285   0.21833   0.00000  Uiso   1.00
C60    C     0.35971   0.08484   0.35937   0.00000  Uiso   1.00
C61    C     0.41832   0.08163   0.39237   0.00000  Uiso   1.00
C62    C     0.42755   0.07936   0.45819   0.00000  Uiso   1.00
C63    C     0.48441   0.07657   0.47883   0.00000  Uiso   1.00
C64    C     0.35736   0.03367   0.31344   0.00000  Uiso   1.00
C65    C     0.31533   0.99108   0.31291   0.00000  Uiso   1.00
C66    C     0.32086   0.94793   0.26710   0.00000  Uiso   1.00
C67    C     0.36138   0.13857   0.31721   0.00000  Uiso   1.00
C68    C     0.32273   0.18418   0.31983   0.00000  Uiso   1.00
C69    C     0.33164   0.22934   0.27717   0.00000  Uiso   1.00
H70    H     0.48002   0.08352   0.24497   0.00000  Uiso   1.00
H71    H     0.55663   0.07795   0.33542   0.00000  Uiso   1.00
H72    H     0.44442   0.98969   0.19016   0.00000  Uiso   1.00
H73    H     0.45182   0.18276   0.19708   0.00000  Uiso   1.00
H74    H     0.62131   0.07198   0.45497   0.00000  Uiso   1.00
H75    H     0.38471   0.88589   0.14866   0.00000  Uiso   1.00
H76    H     0.40031   0.29301   0.16325   0.00000  Uiso   1.00
H77    H     0.32395   0.08522   0.39337   0.00000  Uiso   1.00
H78    H     0.39200   0.07975   0.49197   0.00000  Uiso   1.00
H79    H     0.27979   0.99149   0.34671   0.00000  Uiso   1.00
H80    H     0.28720   0.18456   0.35363   0.00000  Uiso   1.00
H81    H     0.48769   0.07343   0.58203   0.00000  Uiso   1.00
H82    H     0.25109   0.88734   0.27572   0.00000  Uiso   1.00
H83    H     0.26670   0.29446   0.29031   0.00000  Uiso   1.00
O84    O     0.60208   0.06905   0.58068   0.00000  Uiso   1.00
O85    O     0.29167   0.82492   0.17881   0.00000  Uiso   1.00
O86    O     0.31214   0.35905   0.19795   0.00000  Uiso   1.00
N87    N     0.58053   0.07308   0.47134   0.00000  Uiso   1.00
N88    N     0.35932   0.89909   0.18497   0.00000  Uiso   1.00
N89    N     0.37390   0.27971   0.19859   0.00000  Uiso   1.00
N90    N     0.50863   0.07386   0.53971   0.00000  Uiso   1.00
N91    N     0.28742   0.89988   0.25334   0.00000  Uiso   1.00
N92    N     0.30200   0.28049   0.26696   0.00000  Uiso   1.00
C93    C     0.91608   0.44426   0.72103   0.00000  Uiso   1.00
C94    C     0.91887   0.46425   0.65130   0.00000  Uiso   1.00
C95    C     0.92166   0.52110   0.63076   0.00000  Uiso   1.00
C96    C     0.92393   0.53041   0.56492   0.00000  Uiso   1.00
C97    C     0.92836   0.56843   0.46330   0.00000  Uiso   1.00
C98    C     0.96683   0.40328   0.73022   0.00000  Uiso   1.00
C99    C     0.00993   0.40888   0.77605   0.00000  Uiso   1.00
C100   C     0.05257   0.36687   0.77665   0.00000  Uiso   1.00
C101   C     0.13144   0.31022   0.79758   0.00000  Uiso   1.00
C102   C     0.86193   0.40731   0.72646   0.00000  Uiso   1.00
C103   C     0.81684   0.41628   0.76913   0.00000  Uiso   1.00
C104   C     0.77116   0.37765   0.76657   0.00000  Uiso   1.00
C105   C     0.68715   0.32725   0.78167   0.00000  Uiso   1.00
C106   C     0.91516   0.35971   0.64063   0.00000  Uiso   1.00
C107   C     0.91837   0.41832   0.60763   0.00000  Uiso   1.00
C108   C     0.92064   0.42755   0.54181   0.00000  Uiso   1.00
C109   C     0.92343   0.48441   0.52117   0.00000  Uiso   1.00
C110   C     0.96633   0.35736   0.68656   0.00000  Uiso   1.00
C111   C     0.00892   0.31533   0.68709   0.00000  Uiso   1.00
C112   C     0.05207   0.32086   0.73290   0.00000  Uiso   1.00
C113   C     0.86143   0.36138   0.68279   0.00000  Uiso   1.00
C114   C     0.81582   0.32273   0.68017   0.00000  Uiso   1.00
C115   C     0.77066   0.33164   0.72283   0.00000  Uiso   1.00
H116   H     0.91648   0.48002   0.75503   0.00000  Uiso   1.00
H117   H     0.92205   0.55663   0.66458   0.00000  Uiso   1.00
H118   H     0.01031   0.44442   0.80984   0.00000  Uiso   1.00
H119   H     0.81724   0.45182   0.80292   0.00000  Uiso   1.00
H120   H     0.92802   0.62131   0.54503   0.00000  Uiso   1.00
H121   H     0.11411   0.38471   0.85134   0.00000  Uiso   1.00
H122   H     0.70699   0.40031   0.83675   0.00000  Uiso   1.00
H123   H     0.91478   0.32395   0.60663   0.00000  Uiso   1.00
H124   H     0.92025   0.39200   0.50803   0.00000  Uiso   1.00
H125   H     0.00851   0.27979   0.65329   0.00000  Uiso   1.00
H126   H     0.81544   0.28720   0.64637   0.00000  Uiso   1.00
H127   H     0.92657   0.48769   0.41797   0.00000  Uiso   1.00
H128   H     0.11266   0.25109   0.72428   0.00000  Uiso   1.00
H129   H     0.70554   0.26670   0.70969   0.00000  Uiso   1.00
O130   O     0.93095   0.60208   0.41932   0.00000  Uiso   1.00
O131   O     0.17508   0.29167   0.82119   0.00000  Uiso   1.00
O132   O     0.64095   0.31214   0.80205   0.00000  Uiso   1.00
N133   N     0.92692   0.58053   0.52866   0.00000  Uiso   1.00
N134   N     0.10091   0.35932   0.81503   0.00000  Uiso   1.00
N135   N     0.72029   0.37390   0.80141   0.00000  Uiso   1.00
N136   N     0.92614   0.50863   0.46029   0.00000  Uiso   1.00
N137   N     0.10012   0.28742   0.74666   0.00000  Uiso   1.00
N138   N     0.71951   0.30200   0.73304   0.00000  Uiso   1.00
C139   C     0.08392   0.55574   0.72103   0.00000  Uiso   1.00
C140   C     0.08113   0.53575   0.65130   0.00000  Uiso   1.00
C141   C     0.07834   0.47890   0.63076   0.00000  Uiso   1.00
C142   C     0.07607   0.46959   0.56492   0.00000  Uiso   1.00
C143   C     0.07164   0.43157   0.46330   0.00000  Uiso   1.00
C144   C     0.03317   0.59672   0.73022   0.00000  Uiso   1.00
C145   C     0.99007   0.59112   0.77605   0.00000  Uiso   1.00
C146   C     0.94743   0.63313   0.77665   0.00000  Uiso   1.00
C147   C     0.86856   0.68978   0.79758   0.00000  Uiso   1.00
C148   C     0.13807   0.59269   0.72646   0.00000  Uiso   1.00
C149   C     0.18316   0.58372   0.76913   0.00000  Uiso   1.00
C150   C     0.22884   0.62235   0.76657   0.00000  Uiso   1.00
C151   C     0.31285   0.67275   0.78167   0.00000  Uiso   1.00
C152   C     0.08484   0.64029   0.64063   0.00000  Uiso   1.00
C153   C     0.08163   0.58168   0.60763   0.00000  Uiso   1.00
C154   C     0.07936   0.57245   0.54181   0.00000  Uiso   1.00
C155   C     0.07657   0.51559   0.52117   0.00000  Uiso   1.00
C156   C     0.03367   0.64264   0.68656   0.00000  Uiso   1.00
C157   C     0.99108   0.68467   0.68709   0.00000  Uiso   1.00
C158   C     0.94793   0.67914   0.73290   0.00000  Uiso   1.00
C159   C     0.13857   0.63862   0.68279   0.00000  Uiso   1.00
C160   C     0.18418   0.67727   0.68017   0.00000  Uiso   1.00
C161   C     0.22934   0.66836   0.72283   0.00000  Uiso   1.00
H162   H     0.08352   0.51998   0.75503   0.00000  Uiso   1.00
H163   H     0.07795   0.44337   0.66458   0.00000  Uiso   1.00
H164   H     0.98969   0.55558   0.80984   0.00000  Uiso   1.00
H165   H     0.18276   0.54818   0.80292   0.00000  Uiso   1.00
H166   H     0.07198   0.37869   0.54503   0.00000  Uiso   1.00
H167   H     0.88589   0.61529   0.85134   0.00000  Uiso   1.00
H168   H     0.29301   0.59969   0.83675   0.00000  Uiso   1.00
H169   H     0.08522   0.67605   0.60663   0.00000  Uiso   1.00
H170   H     0.07975   0.60800   0.50803   0.00000  Uiso   1.00
H171   H     0.99149   0.72021   0.65329   0.00000  Uiso   1.00
H172   H     0.18456   0.71280   0.64637   0.00000  Uiso   1.00
H173   H     0.07343   0.51231   0.41797   0.00000  Uiso   1.00
H174   H     0.88734   0.74891   0.72428   0.00000  Uiso   1.00
H175   H     0.29446   0.73330   0.70969   0.00000  Uiso   1.00
O176   O     0.06905   0.39792   0.41932   0.00000  Uiso   1.00
O177   O     0.82492   0.70833   0.82119   0.00000  Uiso   1.00
O178   O     0.35905   0.68786   0.80205   0.00000  Uiso   1.00
N179   N     0.07308   0.41947   0.52866   0.00000  Uiso   1.00
N180   N     0.89909   0.64068   0.81503   0.00000  Uiso   1.00
N181   N     0.27971   0.62610   0.80141   0.00000  Uiso   1.00
N182   N     0.07386   0.49137   0.46029   0.00000  Uiso   1.00
N183   N     0.89988   0.71258   0.74666   0.00000  Uiso   1.00
N184   N     0.28049   0.69800   0.73304   0.00000  Uiso   1.00
C185   C     0.94426   0.41608   0.22103   0.00000  Uiso   1.00
C186   C     0.96425   0.41887   0.15130   0.00000  Uiso   1.00
C187   C     0.02110   0.42166   0.13076   0.00000  Uiso   1.00
C188   C     0.03041   0.42393   0.06492   0.00000  Uiso   1.00
C189   C     0.06843   0.42836   0.96330   0.00000  Uiso   1.00
C190   C     0.90328   0.46683   0.23022   0.00000  Uiso   1.00
C191   C     0.90888   0.50993   0.27605   0.00000  Uiso   1.00
C192   C     0.86687   0.55257   0.27665   0.00000  Uiso   1.00
C193   C     0.81022   0.63144   0.29758   0.00000  Uiso   1.00
C194   C     0.90731   0.36193   0.22646   0.00000  Uiso   1.00
C195   C     0.91628   0.31684   0.26913   0.00000  Uiso   1.00
C196   C     0.87765   0.27116   0.26657   0.00000  Uiso   1.00
C197   C     0.82725   0.18715   0.28167   0.00000  Uiso   1.00
C198   C     0.85971   0.41516   0.14063   0.00000  Uiso   1.00
C199   C     0.91832   0.41837   0.10763   0.00000  Uiso   1.00
C200   C     0.92755   0.42064   0.04181   0.00000  Uiso   1.00
C201   C     0.98441   0.42343   0.02117   0.00000  Uiso   1.00
C202   C     0.85736   0.46633   0.18656   0.00000  Uiso   1.00
C203   C     0.81533   0.50892   0.18709   0.00000  Uiso   1.00
C204   C     0.82086   0.55207   0.23290   0.00000  Uiso   1.00
C205   C     0.86138   0.36143   0.18279   0.00000  Uiso   1.00
C206   C     0.82273   0.31582   0.18017   0.00000  Uiso   1.00
C207   C     0.83164   0.27066   0.22283   0.00000  Uiso   1.00
H208   H     0.98002   0.41648   0.25503   0.00000  Uiso   1.00
H209   H     0.05663   0.42205   0.16458   0.00000  Uiso   1.00
H210   H     0.94442   0.51031   0.30984   0.00000  Uiso   1.00
H211   H     0.95182   0.31724   0.30292   0.00000  Uiso   1.00
H212   H     0.12131   0.42802   0.04503   0.00000  Uiso   1.00
H213   H     0.88471   0.61411   0.35134   0.00000  Uiso   1.00
H214   H     0.90031   0.20699   0.33675   0.00000  Uiso   1.00
H215   H     0.82395   0.41478   0.10663   0.00000  Uiso   1.00
H216   H     0.89200   0.42025   0.00803   0.00000  Uiso   1.00
H217   H     0.77979   0.50851   0.15329   0.00000  Uiso   1.00
H218   H     0.78720   0.31544   0.14637   0.00000  Uiso   1.00
H219   H     0.98769   0.42657   0.91797   0.00000  Uiso   1.00
H220   H     0.75109   0.61266   0.22428   0.00000  Uiso   1.00
H221   H     0.76670   0.20554   0.20969   0.00000  Uiso   1.00
O222   O     0.10208   0.43095   0.91932   0.00000  Uiso   1.00
O223   O     0.79167   0.67508   0.32119   0.00000  Uiso   1.00
O224   O     0.81214   0.14095   0.30205   0.00000  Uiso   1.00
N225   N     0.08053   0.42692   0.02866   0.00000  Uiso   1.00
N226   N     0.85932   0.60091   0.31503   0.00000  Uiso   1.00
N227   N     0.87390   0.22029   0.30141   0.00000  Uiso   1.00
N228   N     0.00863   0.42614   0.96029   0.00000  Uiso   1.00
N229   N     0.78742   0.60012   0.24666   0.00000  Uiso   1.00
N230   N     0.80200   0.21951   0.23304   0.00000  Uiso   1.00
C231   C     0.05574   0.58392   0.22103   0.00000  Uiso   1.00
C232   C     0.03575   0.58113   0.15130   0.00000  Uiso   1.00
C233   C     0.97890   0.57834   0.13076   0.00000  Uiso   1.00
C234   C     0.96959   0.57607   0.06492   0.00000  Uiso   1.00
C235   C     0.93157   0.57164   0.96330   0.00000  Uiso   1.00
C236   C     0.09672   0.53317   0.23022   0.00000  Uiso   1.00
C237   C     0.09112   0.49007   0.27605   0.00000  Uiso   1.00
C238   C     0.13313   0.44743   0.27665   0.00000  Uiso   1.00
C239   C     0.18978   0.36856   0.29758   0.00000  Uiso   1.00
C240   C     0.09269   0.63807   0.22646   0.00000  Uiso   1.00
C241   C     0.08372   0.68316   0.26913   0.00000  Uiso   1.00
C242   C     0.12235   0.72884   0.26657   0.00000  Uiso   1.00
C243   C     0.17275   0.81285   0.28167   0.00000  Uiso   1.00
C244   C     0.14029   0.58484   0.14063   0.00000  Uiso   1.00
C245   C     0.08168   0.58163   0.10763   0.00000  Uiso   1.00
C246   C     0.07245   0.57936   0.04181   0.00000  Uiso   1.00
C247   C     0.01559   0.57657   0.02117   0.00000  Uiso   1.00
C248   C     0.14264   0.53367   0.18656   0.00000  Uiso   1.00
C249   C     0.18467   0.49108   0.18709   0.00000  Uiso   1.00
C250   C     0.17914   0.44793   0.23290   0.00000  Uiso   1.00
C251   C     0.13862   0.63857   0.18279   0.00000  Uiso   1.00
C252   C     0.17727   0.68418   0.18017   0.00000  Uiso   1.00
C253   C     0.16836   0.72934   0.22283   0.00000  Uiso   1.00
H254   H     0.01998   0.58352   0.25503   0.00000  Uiso   1.00
H255   H     0.94337   0.57795   0.16458   0.00000  Uiso   1.00
H256   H     0.05558   0.48969   0.30984   0.00000  Uiso   1.00
H257   H     0.04818   0.68276   0.30292   0.00000  Uiso   1.00
H258   H     0.87869   0.57198   0.04503   0.00000  Uiso   1.00
H259   H     0.11529   0.38589   0.35134   0.00000  Uiso   1.00
H260   H     0.09969   0.79301   0.33675   0.00000  Uiso   1.00
H261   H     0.17605   0.58522   0.10663   0.00000  Uiso   1.00
H262   H     0.10800   0.57975   0.00803   0.00000  Uiso   1.00
H263   H     0.22021   0.49149   0.15329   0.00000  Uiso   1.00
H264   H     0.21280   0.68456   0.14637   0.00000  Uiso   1.00
H265   H     0.01231   0.57343   0.91797   0.00000  Uiso   1.00
H266   H     0.24891   0.38734   0.22428   0.00000  Uiso   1.00
H267   H     0.23330   0.79446   0.20969   0.00000  Uiso   1.00
O268   O     0.89792   0.56905   0.91932   0.00000  Uiso   1.00
O269   O     0.20833   0.32492   0.32119   0.00000  Uiso   1.00
O270   O     0.18786   0.85905   0.30205   0.00000  Uiso   1.00
N271   N     0.91947   0.57308   0.02866   0.00000  Uiso   1.00
N272   N     0.14068   0.39909   0.31503   0.00000  Uiso   1.00
N273   N     0.12610   0.77971   0.30141   0.00000  Uiso   1.00
N274   N     0.99137   0.57386   0.96029   0.00000  Uiso   1.00
N275   N     0.21258   0.39988   0.24666   0.00000  Uiso   1.00
N276   N     0.19800   0.78049   0.23304   0.00000  Uiso   1.00
C277   C     0.58392   0.94426   0.77897   0.00000  Uiso   1.00
C278   C     0.58113   0.96425   0.84870   0.00000  Uiso   1.00
C279   C     0.57834   0.02110   0.86924   0.00000  Uiso   1.00
C280   C     0.57607   0.03041   0.93508   0.00000  Uiso   1.00
C281   C     0.57164   0.06843   0.03670   0.00000  Uiso   1.00
C282   C     0.53317   0.90328   0.76978   0.00000  Uiso   1.00
C283   C     0.49007   0.90888   0.72395   0.00000  Uiso   1.00
C284   C     0.44743   0.86687   0.72335   0.00000  Uiso   1.00
C285   C     0.36856   0.81022   0.70242   0.00000  Uiso   1.00
C286   C     0.63807   0.90731   0.77354   0.00000  Uiso   1.00
C287   C     0.68316   0.91628   0.73087   0.00000  Uiso   1.00
C288   C     0.72884   0.87765   0.73343   0.00000  Uiso   1.00
C289   C     0.81285   0.82725   0.71833   0.00000  Uiso   1.00
C290   C     0.58484   0.85971   0.85937   0.00000  Uiso   1.00
C291   C     0.58163   0.91832   0.89237   0.00000  Uiso   1.00
C292   C     0.57936   0.92755   0.95819   0.00000  Uiso   1.00
C293   C     0.57657   0.98441   0.97883   0.00000  Uiso   1.00
C294   C     0.53367   0.85736   0.81344   0.00000  Uiso   1.00
C295   C     0.49108   0.81533   0.81291   0.00000  Uiso   1.00
C296   C     0.44793   0.82086   0.76710   0.00000  Uiso   1.00
C297   C     0.63857   0.86138   0.81721   0.00000  Uiso   1.00
C298   C     0.68418   0.82273   0.81983   0.00000  Uiso   1.00
C299   C     0.72934   0.83164   0.77717   0.00000  Uiso   1.00
H300   H     0.58352   0.98002   0.74497   0.00000  Uiso   1.00
H301   H     0.57795   0.05663   0.83542   0.00000  Uiso   1.00
H302   H     0.48969   0.94442   0.69016   0.00000  Uiso   1.00
H303   H     0.68276   0.95182   0.69708   0.00000  Uiso   1.00
H304   H     0.57198   0.12131   0.95497   0.00000  Uiso   1.00
H305   H     0.38589   0.88471   0.64866   0.00000  Uiso   1.00
H306   H     0.79301   0.90031   0.66325   0.00000  Uiso   1.00
H307   H     0.58522   0.82395   0.89337   0.00000  Uiso   1.00
H308   H     0.57975   0.89200   0.99197   0.00000  Uiso   1.00
H309   H     0.49149   0.77979   0.84671   0.00000  Uiso   1.00
H310   H     0.68456   0.78720   0.85363   0.00000  Uiso   1.00
H311   H     0.57343   0.98769   0.08203   0.00000  Uiso   1.00
H312   H     0.38734   0.75109   0.77572   0.00000  Uiso   1.00
H313   H     0.79446   0.76670   0.79031   0.00000  Uiso   1.00
O314   O     0.56905   0.10208   0.08068   0.00000  Uiso   1.00
O315   O     0.32492   0.79167   0.67881   0.00000  Uiso   1.00
O316   O     0.85905   0.81214   0.69795   0.00000  Uiso   1.00
N317   N     0.57308   0.08053   0.97134   0.00000  Uiso   1.00
N318   N     0.39909   0.85932   0.68497   0.00000  Uiso   1.00
N319   N     0.77971   0.87390   0.69859   0.00000  Uiso   1.00
N320   N     0.57386   0.00863   0.03971   0.00000  Uiso   1.00
N321   N     0.39988   0.78742   0.75334   0.00000  Uiso   1.00
N322   N     0.78049   0.80200   0.76696   0.00000  Uiso   1.00
C323   C     0.41608   0.05574   0.77897   0.00000  Uiso   1.00
C324   C     0.41887   0.03575   0.84870   0.00000  Uiso   1.00
C325   C     0.42166   0.97890   0.86924   0.00000  Uiso   1.00
C326   C     0.42393   0.96959   0.93508   0.00000  Uiso   1.00
C327   C     0.42836   0.93157   0.03670   0.00000  Uiso   1.00
C328   C     0.46683   0.09672   0.76978   0.00000  Uiso   1.00
C329   C     0.50993   0.09112   0.72395   0.00000  Uiso   1.00
C330   C     0.55257   0.13313   0.72335   0.00000  Uiso   1.00
C331   C     0.63144   0.18978   0.70242   0.00000  Uiso   1.00
C332   C     0.36193   0.09269   0.77354   0.00000  Uiso   1.00
C333   C     0.31684   0.08372   0.73087   0.00000  Uiso   1.00
C334   C     0.27116   0.12235   0.73343   0.00000  Uiso   1.00
C335   C     0.18715   0.17275   0.71833   0.00000  Uiso   1.00
C336   C     0.41516   0.14029   0.85937   0.00000  Uiso   1.00
C337   C     0.41837   0.08168   0.89237   0.00000  Uiso   1.00
C338   C     0.42064   0.07245   0.95819   0.00000  Uiso   1.00
C339   C     0.42343   0.01559   0.97883   0.00000  Uiso   1.00
C340   C     0.46633   0.14264   0.81344   0.00000  Uiso   1.00
C341   C     0.50892   0.18467   0.81291   0.00000  Uiso   1.00
C342   C     0.55207   0.17914   0.76710   0.00000  Uiso   1.00
C343   C     0.36143   0.13862   0.81721   0.00000  Uiso   1.00
C344   C     0.31582   0.17727   0.81983   0.00000  Uiso   1.00
C345   C     0.27066   0.16836   0.77717   0.00000  Uiso   1.00
H346   H     0.41648   0.01998   0.74497   0.00000  Uiso   1.00
H347   H     0.42205   0.94337   0.83542   0.00000  Uiso   1.00
H348   H     0.51031   0.05558   0.69016   0.00000  Uiso   1.00
H349   H     0.31724   0.04818   0.69708   0.00000  Uiso   1.00
H350   H     0.42802   0.87869   0.95497   0.00000  Uiso   1.00
H351   H     0.61411   0.11529   0.64866   0.00000  Uiso   1.00
H352   H     0.20699   0.09969   0.66325   0.00000  Uiso   1.00
H353   H     0.41478   0.17605   0.89337   0.00000  Uiso   1.00
H354   H     0.42025   0.10800   0.99197   0.00000  Uiso   1.00
H355   H     0.50851   0.22021   0.84671   0.00000  Uiso   1.00
H356   H     0.31544   0.21280   0.85363   0.00000  Uiso   1.00
H357   H     0.42657   0.01231   0.08203   0.00000  Uiso   1.00
H358   H     0.61266   0.24891   0.77572   0.00000  Uiso   1.00
H359   H     0.20554   0.23330   0.79031   0.00000  Uiso   1.00
O360   O     0.43095   0.89792   0.08068   0.00000  Uiso   1.00
O361   O     0.67508   0.20833   0.67881   0.00000  Uiso   1.00
O362   O     0.14095   0.18786   0.69795   0.00000  Uiso   1.00
N363   N     0.42692   0.91947   0.97134   0.00000  Uiso   1.00
N364   N     0.60091   0.14068   0.68497   0.00000  Uiso   1.00
N365   N     0.22029   0.12610   0.69859   0.00000  Uiso   1.00
N366   N     0.42614   0.99137   0.03971   0.00000  Uiso   1.00
N367   N     0.60012   0.21258   0.75334   0.00000  Uiso   1.00
N368   N     0.21951   0.19800   0.76696   0.00000  Uiso   1.00
