data_job_04007
_audit_creation_date              2018-12-19
_audit_creation_method            'Materials Studio'
_symmetry_space_group_name_H-M    'P1'
_symmetry_Int_Tables_number       1
_symmetry_cell_setting            triclinic
loop_
_symmetry_equiv_pos_as_xyz
  x,y,z
_cell_length_a                    24.4374
_cell_length_b                    27.8904
_cell_length_c                    9.8233
_cell_angle_alpha                 90.0000
_cell_angle_beta                  90.0000
_cell_angle_gamma                 90.0000
loop_
_atom_site_label
_atom_site_type_symbol
_atom_site_fract_x
_atom_site_fract_y
_atom_site_fract_z
_atom_site_U_iso_or_equiv
_atom_site_adp_type
_atom_site_occupancy
C1     C     0.41430   0.08963   0.85869   0.00000  Uiso   1.00
C2     C     0.41889   0.05927   0.73008   0.00000  Uiso   1.00
C3     C     0.40731   0.01068   0.72039   0.00000  Uiso   1.00
C4     C     0.41408   0.98945   0.59367   0.00000  Uiso   1.00
C5     C     0.41854   0.93828   0.41116   0.00000  Uiso   1.00
C6     C     0.47053   0.11212   0.88007   0.00000  Uiso   1.00
C7     C     0.50235   0.10796   0.99650   0.00000  Uiso   1.00
C8     C     0.55258   0.13122   0.99605   0.00000  Uiso   1.00
C9     C     0.63718   0.16213   0.04644   0.00000  Uiso   1.00
C10    C     0.37585   0.13086   0.82351   0.00000  Uiso   1.00
C11    C     0.32807   0.14248   0.89239   0.00000  Uiso   1.00
C12    C     0.29860   0.18153   0.84433   0.00000  Uiso   1.00
C13    C     0.23620   0.24155   0.80690   0.00000  Uiso   1.00
C14    C     0.44693   0.13833   0.65088   0.00000  Uiso   1.00
C15    C     0.43662   0.08572   0.61721   0.00000  Uiso   1.00
C16    C     0.44340   0.06456   0.49047   0.00000  Uiso   1.00
C17    C     0.43183   0.01594   0.48059   0.00000  Uiso   1.00
C18    C     0.48825   0.13857   0.76721   0.00000  Uiso   1.00
C19    C     0.53844   0.16184   0.76659   0.00000  Uiso   1.00
C20    C     0.57033   0.15772   0.88297   0.00000  Uiso   1.00
C21    C     0.39357   0.15732   0.71063   0.00000  Uiso   1.00
C22    C     0.36417   0.19636   0.66247   0.00000  Uiso   1.00
C23    C     0.31635   0.20803   0.73126   0.00000  Uiso   1.00
H24    H     0.40051   0.06903   0.94657   0.00000  Uiso   1.00
H25    H     0.39360   0.99022   0.80777   0.00000  Uiso   1.00
H26    H     0.48862   0.08749   0.08383   0.00000  Uiso   1.00
H27    H     0.31437   0.12200   0.97973   0.00000  Uiso   1.00
H28    H     0.39377   0.91450   0.60411   0.00000  Uiso   1.00
H29    H     0.59412   0.11962   0.18624   0.00000  Uiso   1.00
H30    H     0.22669   0.19240   0.96673   0.00000  Uiso   1.00
H31    H     0.46072   0.15892   0.56301   0.00000  Uiso   1.00
H32    H     0.45712   0.08504   0.40315   0.00000  Uiso   1.00
H33    H     0.55214   0.18231   0.67922   0.00000  Uiso   1.00
H34    H     0.37789   0.21682   0.57512   0.00000  Uiso   1.00
H35    H     0.44533   0.99146   0.27571   0.00000  Uiso   1.00
H36    H     0.64568   0.19658   0.85784   0.00000  Uiso   1.00
H37    H     0.27824   0.26935   0.63833   0.00000  Uiso   1.00
O38    O     0.41611   0.90275   0.34168   0.00000  Uiso   1.00
O39    O     0.67896   0.17187   0.10542   0.00000  Uiso   1.00
O40    O     0.19689   0.26734   0.81742   0.00000  Uiso   1.00
N41    N     0.40639   0.94275   0.54875   0.00000  Uiso   1.00
N42    N     0.59371   0.13452   0.09300   0.00000  Uiso   1.00
N43    N     0.25019   0.20257   0.88780   0.00000  Uiso   1.00
N44    N     0.43413   0.98416   0.37204   0.00000  Uiso   1.00
N45    N     0.62145   0.17593   0.91629   0.00000  Uiso   1.00
N46    N     0.27794   0.24398   0.71109   0.00000  Uiso   1.00
C47    C     0.41430   0.58963   0.35869   0.00000  Uiso   1.00
C48    C     0.41889   0.55927   0.23008   0.00000  Uiso   1.00
C49    C     0.40731   0.51068   0.22039   0.00000  Uiso   1.00
C50    C     0.41408   0.48945   0.09367   0.00000  Uiso   1.00
C51    C     0.41854   0.43828   0.91116   0.00000  Uiso   1.00
C52    C     0.47053   0.61212   0.38007   0.00000  Uiso   1.00
C53    C     0.50235   0.60796   0.49650   0.00000  Uiso   1.00
C54    C     0.55258   0.63122   0.49605   0.00000  Uiso   1.00
C55    C     0.63718   0.66213   0.54644   0.00000  Uiso   1.00
C56    C     0.37585   0.63086   0.32351   0.00000  Uiso   1.00
C57    C     0.32807   0.64248   0.39239   0.00000  Uiso   1.00
C58    C     0.29860   0.68153   0.34433   0.00000  Uiso   1.00
C59    C     0.23620   0.74155   0.30690   0.00000  Uiso   1.00
C60    C     0.44693   0.63833   0.15088   0.00000  Uiso   1.00
C61    C     0.43662   0.58572   0.11721   0.00000  Uiso   1.00
C62    C     0.44340   0.56456   0.99047   0.00000  Uiso   1.00
C63    C     0.43183   0.51594   0.98059   0.00000  Uiso   1.00
C64    C     0.48825   0.63857   0.26721   0.00000  Uiso   1.00
C65    C     0.53844   0.66184   0.26659   0.00000  Uiso   1.00
C66    C     0.57033   0.65772   0.38297   0.00000  Uiso   1.00
C67    C     0.39357   0.65732   0.21063   0.00000  Uiso   1.00
C68    C     0.36417   0.69636   0.16247   0.00000  Uiso   1.00
C69    C     0.31635   0.70803   0.23126   0.00000  Uiso   1.00
H70    H     0.40051   0.56903   0.44657   0.00000  Uiso   1.00
H71    H     0.39360   0.49022   0.30777   0.00000  Uiso   1.00
H72    H     0.48862   0.58749   0.58383   0.00000  Uiso   1.00
H73    H     0.31437   0.62200   0.47973   0.00000  Uiso   1.00
H74    H     0.39377   0.41450   0.10411   0.00000  Uiso   1.00
H75    H     0.59412   0.61962   0.68624   0.00000  Uiso   1.00
H76    H     0.22669   0.69240   0.46673   0.00000  Uiso   1.00
H77    H     0.46072   0.65892   0.06301   0.00000  Uiso   1.00
H78    H     0.45712   0.58504   0.90315   0.00000  Uiso   1.00
H79    H     0.55214   0.68231   0.17922   0.00000  Uiso   1.00
H80    H     0.37789   0.71682   0.07512   0.00000  Uiso   1.00
H81    H     0.44533   0.49146   0.77571   0.00000  Uiso   1.00
H82    H     0.64568   0.69658   0.35784   0.00000  Uiso   1.00
H83    H     0.27824   0.76935   0.13833   0.00000  Uiso   1.00
O84    O     0.41611   0.40275   0.84168   0.00000  Uiso   1.00
O85    O     0.67896   0.67187   0.60542   0.00000  Uiso   1.00
O86    O     0.19689   0.76734   0.31742   0.00000  Uiso   1.00
N87    N     0.40639   0.44275   0.04875   0.00000  Uiso   1.00
N88    N     0.59371   0.63452   0.59300   0.00000  Uiso   1.00
N89    N     0.25019   0.70257   0.38780   0.00000  Uiso   1.00
N90    N     0.43413   0.48416   0.87204   0.00000  Uiso   1.00
N91    N     0.62145   0.67593   0.41629   0.00000  Uiso   1.00
N92    N     0.27794   0.74398   0.21109   0.00000  Uiso   1.00
C93    C     0.58570   0.91037   0.85869   0.00000  Uiso   1.00
C94    C     0.58111   0.94073   0.73008   0.00000  Uiso   1.00
C95    C     0.59269   0.98932   0.72039   0.00000  Uiso   1.00
C96    C     0.58592   0.01055   0.59367   0.00000  Uiso   1.00
C97    C     0.58146   0.06172   0.41116   0.00000  Uiso   1.00
C98    C     0.52947   0.88788   0.88007   0.00000  Uiso   1.00
C99    C     0.49765   0.89204   0.99650   0.00000  Uiso   1.00
C100   C     0.44742   0.86878   0.99605   0.00000  Uiso   1.00
C101   C     0.36282   0.83787   0.04644   0.00000  Uiso   1.00
C102   C     0.62415   0.86914   0.82351   0.00000  Uiso   1.00
C103   C     0.67193   0.85752   0.89239   0.00000  Uiso   1.00
C104   C     0.70140   0.81847   0.84433   0.00000  Uiso   1.00
C105   C     0.76380   0.75845   0.80690   0.00000  Uiso   1.00
C106   C     0.55307   0.86167   0.65088   0.00000  Uiso   1.00
C107   C     0.56338   0.91428   0.61721   0.00000  Uiso   1.00
C108   C     0.55660   0.93544   0.49047   0.00000  Uiso   1.00
C109   C     0.56817   0.98406   0.48059   0.00000  Uiso   1.00
C110   C     0.51175   0.86143   0.76721   0.00000  Uiso   1.00
C111   C     0.46156   0.83816   0.76659   0.00000  Uiso   1.00
C112   C     0.42967   0.84228   0.88297   0.00000  Uiso   1.00
C113   C     0.60643   0.84268   0.71063   0.00000  Uiso   1.00
C114   C     0.63583   0.80364   0.66247   0.00000  Uiso   1.00
C115   C     0.68365   0.79197   0.73126   0.00000  Uiso   1.00
H116   H     0.59949   0.93097   0.94657   0.00000  Uiso   1.00
H117   H     0.60640   0.00978   0.80777   0.00000  Uiso   1.00
H118   H     0.51138   0.91251   0.08383   0.00000  Uiso   1.00
H119   H     0.68563   0.87800   0.97973   0.00000  Uiso   1.00
H120   H     0.60623   0.08550   0.60411   0.00000  Uiso   1.00
H121   H     0.40588   0.88038   0.18624   0.00000  Uiso   1.00
H122   H     0.77331   0.80760   0.96673   0.00000  Uiso   1.00
H123   H     0.53928   0.84108   0.56301   0.00000  Uiso   1.00
H124   H     0.54288   0.91496   0.40315   0.00000  Uiso   1.00
H125   H     0.44786   0.81769   0.67922   0.00000  Uiso   1.00
H126   H     0.62211   0.78318   0.57512   0.00000  Uiso   1.00
H127   H     0.55467   0.00854   0.27571   0.00000  Uiso   1.00
H128   H     0.35432   0.80342   0.85784   0.00000  Uiso   1.00
H129   H     0.72176   0.73065   0.63833   0.00000  Uiso   1.00
O130   O     0.58389   0.09725   0.34168   0.00000  Uiso   1.00
O131   O     0.32104   0.82813   0.10542   0.00000  Uiso   1.00
O132   O     0.80311   0.73266   0.81742   0.00000  Uiso   1.00
N133   N     0.59361   0.05725   0.54875   0.00000  Uiso   1.00
N134   N     0.40629   0.86548   0.09300   0.00000  Uiso   1.00
N135   N     0.74981   0.79743   0.88780   0.00000  Uiso   1.00
N136   N     0.56587   0.01584   0.37204   0.00000  Uiso   1.00
N137   N     0.37855   0.82407   0.91629   0.00000  Uiso   1.00
N138   N     0.72206   0.75602   0.71109   0.00000  Uiso   1.00
C139   C     0.58570   0.41037   0.35869   0.00000  Uiso   1.00
C140   C     0.58111   0.44073   0.23008   0.00000  Uiso   1.00
C141   C     0.59269   0.48932   0.22039   0.00000  Uiso   1.00
C142   C     0.58592   0.51055   0.09367   0.00000  Uiso   1.00
C143   C     0.58146   0.56172   0.91116   0.00000  Uiso   1.00
C144   C     0.52947   0.38788   0.38007   0.00000  Uiso   1.00
C145   C     0.49765   0.39204   0.49650   0.00000  Uiso   1.00
C146   C     0.44742   0.36878   0.49605   0.00000  Uiso   1.00
C147   C     0.36282   0.33787   0.54644   0.00000  Uiso   1.00
C148   C     0.62415   0.36914   0.32351   0.00000  Uiso   1.00
C149   C     0.67193   0.35752   0.39239   0.00000  Uiso   1.00
C150   C     0.70140   0.31847   0.34433   0.00000  Uiso   1.00
C151   C     0.76380   0.25845   0.30690   0.00000  Uiso   1.00
C152   C     0.55307   0.36167   0.15088   0.00000  Uiso   1.00
C153   C     0.56338   0.41428   0.11721   0.00000  Uiso   1.00
C154   C     0.55660   0.43544   0.99047   0.00000  Uiso   1.00
C155   C     0.56817   0.48406   0.98059   0.00000  Uiso   1.00
C156   C     0.51175   0.36143   0.26721   0.00000  Uiso   1.00
C157   C     0.46156   0.33816   0.26659   0.00000  Uiso   1.00
C158   C     0.42967   0.34228   0.38297   0.00000  Uiso   1.00
C159   C     0.60643   0.34268   0.21063   0.00000  Uiso   1.00
C160   C     0.63583   0.30364   0.16247   0.00000  Uiso   1.00
C161   C     0.68365   0.29197   0.23126   0.00000  Uiso   1.00
H162   H     0.59949   0.43097   0.44657   0.00000  Uiso   1.00
H163   H     0.60640   0.50978   0.30777   0.00000  Uiso   1.00
H164   H     0.51138   0.41251   0.58383   0.00000  Uiso   1.00
H165   H     0.68563   0.37800   0.47973   0.00000  Uiso   1.00
H166   H     0.60623   0.58550   0.10411   0.00000  Uiso   1.00
H167   H     0.40588   0.38038   0.68624   0.00000  Uiso   1.00
H168   H     0.77331   0.30760   0.46673   0.00000  Uiso   1.00
H169   H     0.53928   0.34108   0.06301   0.00000  Uiso   1.00
H170   H     0.54288   0.41496   0.90315   0.00000  Uiso   1.00
H171   H     0.44786   0.31769   0.17922   0.00000  Uiso   1.00
H172   H     0.62211   0.28318   0.07512   0.00000  Uiso   1.00
H173   H     0.55467   0.50854   0.77571   0.00000  Uiso   1.00
H174   H     0.35432   0.30342   0.35784   0.00000  Uiso   1.00
H175   H     0.72176   0.23065   0.13833   0.00000  Uiso   1.00
O176   O     0.58389   0.59725   0.84168   0.00000  Uiso   1.00
O177   O     0.32104   0.32813   0.60542   0.00000  Uiso   1.00
O178   O     0.80311   0.23266   0.31742   0.00000  Uiso   1.00
N179   N     0.59361   0.55725   0.04875   0.00000  Uiso   1.00
N180   N     0.40629   0.36548   0.59300   0.00000  Uiso   1.00
N181   N     0.74981   0.29743   0.38780   0.00000  Uiso   1.00
N182   N     0.56587   0.51584   0.87204   0.00000  Uiso   1.00
N183   N     0.37855   0.32407   0.41629   0.00000  Uiso   1.00
N184   N     0.72206   0.25602   0.21109   0.00000  Uiso   1.00
C185   C     0.91430   0.41037   0.85869   0.00000  Uiso   1.00
C186   C     0.91889   0.44073   0.73008   0.00000  Uiso   1.00
C187   C     0.90731   0.48932   0.72039   0.00000  Uiso   1.00
C188   C     0.91408   0.51055   0.59367   0.00000  Uiso   1.00
C189   C     0.91854   0.56172   0.41116   0.00000  Uiso   1.00
C190   C     0.97053   0.38788   0.88007   0.00000  Uiso   1.00
C191   C     0.00235   0.39204   0.99650   0.00000  Uiso   1.00
C192   C     0.05258   0.36878   0.99605   0.00000  Uiso   1.00
C193   C     0.13718   0.33787   0.04644   0.00000  Uiso   1.00
C194   C     0.87585   0.36914   0.82351   0.00000  Uiso   1.00
C195   C     0.82807   0.35752   0.89239   0.00000  Uiso   1.00
C196   C     0.79860   0.31847   0.84433   0.00000  Uiso   1.00
C197   C     0.73620   0.25845   0.80690   0.00000  Uiso   1.00
C198   C     0.94693   0.36167   0.65088   0.00000  Uiso   1.00
C199   C     0.93662   0.41428   0.61721   0.00000  Uiso   1.00
C200   C     0.94340   0.43544   0.49047   0.00000  Uiso   1.00
C201   C     0.93183   0.48406   0.48059   0.00000  Uiso   1.00
C202   C     0.98825   0.36143   0.76721   0.00000  Uiso   1.00
C203   C     0.03844   0.33816   0.76659   0.00000  Uiso   1.00
C204   C     0.07033   0.34228   0.88297   0.00000  Uiso   1.00
C205   C     0.89357   0.34268   0.71063   0.00000  Uiso   1.00
C206   C     0.86417   0.30364   0.66247   0.00000  Uiso   1.00
C207   C     0.81635   0.29197   0.73126   0.00000  Uiso   1.00
H208   H     0.90051   0.43097   0.94657   0.00000  Uiso   1.00
H209   H     0.89360   0.50978   0.80777   0.00000  Uiso   1.00
H210   H     0.98862   0.41251   0.08383   0.00000  Uiso   1.00
H211   H     0.81437   0.37800   0.97973   0.00000  Uiso   1.00
H212   H     0.89377   0.58550   0.60411   0.00000  Uiso   1.00
H213   H     0.09412   0.38038   0.18624   0.00000  Uiso   1.00
H214   H     0.72669   0.30760   0.96673   0.00000  Uiso   1.00
H215   H     0.96072   0.34108   0.56301   0.00000  Uiso   1.00
H216   H     0.95712   0.41496   0.40315   0.00000  Uiso   1.00
H217   H     0.05214   0.31769   0.67922   0.00000  Uiso   1.00
H218   H     0.87789   0.28318   0.57512   0.00000  Uiso   1.00
H219   H     0.94533   0.50854   0.27571   0.00000  Uiso   1.00
H220   H     0.14568   0.30342   0.85784   0.00000  Uiso   1.00
H221   H     0.77824   0.23065   0.63833   0.00000  Uiso   1.00
O222   O     0.91611   0.59725   0.34168   0.00000  Uiso   1.00
O223   O     0.17896   0.32813   0.10542   0.00000  Uiso   1.00
O224   O     0.69689   0.23266   0.81742   0.00000  Uiso   1.00
N225   N     0.90639   0.55725   0.54875   0.00000  Uiso   1.00
N226   N     0.09371   0.36548   0.09300   0.00000  Uiso   1.00
N227   N     0.75019   0.29743   0.88780   0.00000  Uiso   1.00
N228   N     0.93413   0.51584   0.37204   0.00000  Uiso   1.00
N229   N     0.12145   0.32407   0.91629   0.00000  Uiso   1.00
N230   N     0.77794   0.25602   0.71109   0.00000  Uiso   1.00
C231   C     0.91430   0.91037   0.35869   0.00000  Uiso   1.00
C232   C     0.91889   0.94073   0.23008   0.00000  Uiso   1.00
C233   C     0.90731   0.98932   0.22039   0.00000  Uiso   1.00
C234   C     0.91408   0.01055   0.09367   0.00000  Uiso   1.00
C235   C     0.91854   0.06172   0.91116   0.00000  Uiso   1.00
C236   C     0.97053   0.88788   0.38007   0.00000  Uiso   1.00
C237   C     0.00235   0.89204   0.49650   0.00000  Uiso   1.00
C238   C     0.05258   0.86878   0.49605   0.00000  Uiso   1.00
C239   C     0.13718   0.83787   0.54644   0.00000  Uiso   1.00
C240   C     0.87585   0.86914   0.32351   0.00000  Uiso   1.00
C241   C     0.82807   0.85752   0.39239   0.00000  Uiso   1.00
C242   C     0.79860   0.81847   0.34433   0.00000  Uiso   1.00
C243   C     0.73620   0.75845   0.30690   0.00000  Uiso   1.00
C244   C     0.94693   0.86167   0.15088   0.00000  Uiso   1.00
C245   C     0.93662   0.91428   0.11721   0.00000  Uiso   1.00
C246   C     0.94340   0.93544   0.99047   0.00000  Uiso   1.00
C247   C     0.93183   0.98406   0.98059   0.00000  Uiso   1.00
C248   C     0.98825   0.86143   0.26721   0.00000  Uiso   1.00
C249   C     0.03844   0.83816   0.26659   0.00000  Uiso   1.00
C250   C     0.07033   0.84228   0.38297   0.00000  Uiso   1.00
C251   C     0.89357   0.84268   0.21063   0.00000  Uiso   1.00
C252   C     0.86417   0.80364   0.16247   0.00000  Uiso   1.00
C253   C     0.81635   0.79197   0.23126   0.00000  Uiso   1.00
H254   H     0.90051   0.93097   0.44657   0.00000  Uiso   1.00
H255   H     0.89360   0.00978   0.30777   0.00000  Uiso   1.00
H256   H     0.98862   0.91251   0.58383   0.00000  Uiso   1.00
H257   H     0.81437   0.87800   0.47973   0.00000  Uiso   1.00
H258   H     0.89377   0.08550   0.10411   0.00000  Uiso   1.00
H259   H     0.09412   0.88038   0.68624   0.00000  Uiso   1.00
H260   H     0.72669   0.80760   0.46673   0.00000  Uiso   1.00
H261   H     0.96072   0.84108   0.06301   0.00000  Uiso   1.00
H262   H     0.95712   0.91496   0.90315   0.00000  Uiso   1.00
H263   H     0.05214   0.81769   0.17922   0.00000  Uiso   1.00
H264   H     0.87789   0.78318   0.07512   0.00000  Uiso   1.00
H265   H     0.94533   0.00854   0.77571   0.00000  Uiso   1.00
H266   H     0.14568   0.80342   0.35784   0.00000  Uiso   1.00
H267   H     0.77824   0.73065   0.13833   0.00000  Uiso   1.00
O268   O     0.91611   0.09725   0.84168   0.00000  Uiso   1.00
O269   O     0.17896   0.82813   0.60542   0.00000  Uiso   1.00
O270   O     0.69689   0.73266   0.31742   0.00000  Uiso   1.00
N271   N     0.90639   0.05725   0.04875   0.00000  Uiso   1.00
N272   N     0.09371   0.86548   0.59300   0.00000  Uiso   1.00
N273   N     0.75019   0.79743   0.38780   0.00000  Uiso   1.00
N274   N     0.93413   0.01584   0.87204   0.00000  Uiso   1.00
N275   N     0.12145   0.82407   0.41629   0.00000  Uiso   1.00
N276   N     0.77794   0.75602   0.21109   0.00000  Uiso   1.00
C277   C     0.08570   0.58963   0.85869   0.00000  Uiso   1.00
C278   C     0.08111   0.55927   0.73008   0.00000  Uiso   1.00
C279   C     0.09269   0.51068   0.72039   0.00000  Uiso   1.00
C280   C     0.08592   0.48945   0.59367   0.00000  Uiso   1.00
C281   C     0.08146   0.43828   0.41116   0.00000  Uiso   1.00
C282   C     0.02947   0.61212   0.88007   0.00000  Uiso   1.00
C283   C     0.99765   0.60796   0.99650   0.00000  Uiso   1.00
C284   C     0.94742   0.63122   0.99605   0.00000  Uiso   1.00
C285   C     0.86282   0.66213   0.04644   0.00000  Uiso   1.00
C286   C     0.12415   0.63086   0.82351   0.00000  Uiso   1.00
C287   C     0.17193   0.64248   0.89239   0.00000  Uiso   1.00
C288   C     0.20140   0.68153   0.84433   0.00000  Uiso   1.00
C289   C     0.26380   0.74155   0.80690   0.00000  Uiso   1.00
C290   C     0.05307   0.63833   0.65088   0.00000  Uiso   1.00
C291   C     0.06338   0.58572   0.61721   0.00000  Uiso   1.00
C292   C     0.05660   0.56456   0.49047   0.00000  Uiso   1.00
C293   C     0.06817   0.51594   0.48059   0.00000  Uiso   1.00
C294   C     0.01175   0.63857   0.76721   0.00000  Uiso   1.00
C295   C     0.96156   0.66184   0.76659   0.00000  Uiso   1.00
C296   C     0.92967   0.65772   0.88297   0.00000  Uiso   1.00
C297   C     0.10643   0.65732   0.71063   0.00000  Uiso   1.00
C298   C     0.13583   0.69636   0.66247   0.00000  Uiso   1.00
C299   C     0.18365   0.70803   0.73126   0.00000  Uiso   1.00
H300   H     0.09949   0.56903   0.94657   0.00000  Uiso   1.00
H301   H     0.10640   0.49022   0.80777   0.00000  Uiso   1.00
H302   H     0.01138   0.58749   0.08383   0.00000  Uiso   1.00
H303   H     0.18563   0.62200   0.97973   0.00000  Uiso   1.00
H304   H     0.10623   0.41450   0.60411   0.00000  Uiso   1.00
H305   H     0.90588   0.61962   0.18624   0.00000  Uiso   1.00
H306   H     0.27331   0.69240   0.96673   0.00000  Uiso   1.00
H307   H     0.03928   0.65892   0.56301   0.00000  Uiso   1.00
H308   H     0.04288   0.58504   0.40315   0.00000  Uiso   1.00
H309   H     0.94786   0.68231   0.67922   0.00000  Uiso   1.00
H310   H     0.12211   0.71682   0.57512   0.00000  Uiso   1.00
H311   H     0.05467   0.49146   0.27571   0.00000  Uiso   1.00
H312   H     0.85432   0.69658   0.85784   0.00000  Uiso   1.00
H313   H     0.22176   0.76935   0.63833   0.00000  Uiso   1.00
O314   O     0.08389   0.40275   0.34168   0.00000  Uiso   1.00
O315   O     0.82104   0.67187   0.10542   0.00000  Uiso   1.00
O316   O     0.30311   0.76734   0.81742   0.00000  Uiso   1.00
N317   N     0.09361   0.44275   0.54875   0.00000  Uiso   1.00
N318   N     0.90629   0.63452   0.09300   0.00000  Uiso   1.00
N319   N     0.24981   0.70257   0.88780   0.00000  Uiso   1.00
N320   N     0.06587   0.48416   0.37204   0.00000  Uiso   1.00
N321   N     0.87855   0.67593   0.91629   0.00000  Uiso   1.00
N322   N     0.22206   0.74398   0.71109   0.00000  Uiso   1.00
C323   C     0.08570   0.08963   0.35869   0.00000  Uiso   1.00
C324   C     0.08111   0.05927   0.23008   0.00000  Uiso   1.00
C325   C     0.09269   0.01068   0.22039   0.00000  Uiso   1.00
C326   C     0.08592   0.98945   0.09367   0.00000  Uiso   1.00
C327   C     0.08146   0.93828   0.91116   0.00000  Uiso   1.00
C328   C     0.02947   0.11212   0.38007   0.00000  Uiso   1.00
C329   C     0.99765   0.10796   0.49650   0.00000  Uiso   1.00
C330   C     0.94742   0.13122   0.49605   0.00000  Uiso   1.00
C331   C     0.86282   0.16213   0.54644   0.00000  Uiso   1.00
C332   C     0.12415   0.13086   0.32351   0.00000  Uiso   1.00
C333   C     0.17193   0.14248   0.39239   0.00000  Uiso   1.00
C334   C     0.20140   0.18153   0.34433   0.00000  Uiso   1.00
C335   C     0.26380   0.24155   0.30690   0.00000  Uiso   1.00
C336   C     0.05307   0.13833   0.15088   0.00000  Uiso   1.00
C337   C     0.06338   0.08572   0.11721   0.00000  Uiso   1.00
C338   C     0.05660   0.06456   0.99047   0.00000  Uiso   1.00
C339   C     0.06817   0.01594   0.98059   0.00000  Uiso   1.00
C340   C     0.01175   0.13857   0.26721   0.00000  Uiso   1.00
C341   C     0.96156   0.16184   0.26659   0.00000  Uiso   1.00
C342   C     0.92967   0.15772   0.38297   0.00000  Uiso   1.00
C343   C     0.10643   0.15732   0.21063   0.00000  Uiso   1.00
C344   C     0.13583   0.19636   0.16247   0.00000  Uiso   1.00
C345   C     0.18365   0.20803   0.23126   0.00000  Uiso   1.00
H346   H     0.09949   0.06903   0.44657   0.00000  Uiso   1.00
H347   H     0.10640   0.99022   0.30777   0.00000  Uiso   1.00
H348   H     0.01138   0.08749   0.58383   0.00000  Uiso   1.00
H349   H     0.18563   0.12200   0.47973   0.00000  Uiso   1.00
H350   H     0.10623   0.91450   0.10411   0.00000  Uiso   1.00
H351   H     0.90588   0.11962   0.68624   0.00000  Uiso   1.00
H352   H     0.27331   0.19240   0.46673   0.00000  Uiso   1.00
H353   H     0.03928   0.15892   0.06301   0.00000  Uiso   1.00
H354   H     0.04288   0.08504   0.90315   0.00000  Uiso   1.00
H355   H     0.94786   0.18231   0.17922   0.00000  Uiso   1.00
H356   H     0.12211   0.21682   0.07512   0.00000  Uiso   1.00
H357   H     0.05467   0.99146   0.77571   0.00000  Uiso   1.00
H358   H     0.85432   0.19658   0.35784   0.00000  Uiso   1.00
H359   H     0.22176   0.26935   0.13833   0.00000  Uiso   1.00
O360   O     0.08389   0.90275   0.84168   0.00000  Uiso   1.00
O361   O     0.82104   0.17187   0.60542   0.00000  Uiso   1.00
O362   O     0.30311   0.26734   0.31742   0.00000  Uiso   1.00
N363   N     0.09361   0.94275   0.04875   0.00000  Uiso   1.00
N364   N     0.90629   0.13452   0.59300   0.00000  Uiso   1.00
N365   N     0.24981   0.20257   0.38780   0.00000  Uiso   1.00
N366   N     0.06587   0.98416   0.87204   0.00000  Uiso   1.00
N367   N     0.87855   0.17593   0.41629   0.00000  Uiso   1.00
N368   N     0.22206   0.24398   0.21109   0.00000  Uiso   1.00
