data_job_00345
_audit_creation_date              2018-12-19
_audit_creation_method            'Materials Studio'
_symmetry_space_group_name_H-M    'P1'
_symmetry_Int_Tables_number       1
_symmetry_cell_setting            triclinic
loop_
_symmetry_equiv_pos_as_xyz
  x,y,z
_cell_length_a                    29.6692
_cell_length_b                    11.1395
_cell_length_c                    12.5113
_cell_angle_alpha                 90.0000
_cell_angle_beta                  90.0000
_cell_angle_gamma                 90.0000
loop_
_atom_site_label
_atom_site_type_symbol
_atom_site_fract_x
_atom_site_fract_y
_atom_site_fract_z
_atom_site_U_iso_or_equiv
_atom_site_adp_type
_atom_site_occupancy
C1     C     0.14493   0.83241   0.01575   0.00000  Uiso   1.00
C2     C     0.14619   0.74645   0.11056   0.00000  Uiso   1.00
C3     C     0.18472   0.70810   0.16339   0.00000  Uiso   1.00
C4     C     0.17876   0.62935   0.24823   0.00000  Uiso   1.00
C5     C     0.18726   0.50174   0.39072   0.00000  Uiso   1.00
C6     C     0.12022   0.76610   0.92666   0.00000  Uiso   1.00
C7     C     0.13691   0.74430   0.82487   0.00000  Uiso   1.00
C8     C     0.10908   0.68210   0.75491   0.00000  Uiso   1.00
C9     C     0.07724   0.58508   0.61187   0.00000  Uiso   1.00
C10    C     0.11417   0.93557   0.04891   0.00000  Uiso   1.00
C11    C     0.12577   0.05626   0.04987   0.00000  Uiso   1.00
C12    C     0.09284   0.13675   0.08281   0.00000  Uiso   1.00
C13    C     0.05162   0.30285   0.12957   0.00000  Uiso   1.00
C14    C     0.06584   0.76075   0.07249   0.00000  Uiso   1.00
C15    C     0.10323   0.70752   0.14137   0.00000  Uiso   1.00
C16    C     0.09721   0.62881   0.22616   0.00000  Uiso   1.00
C17    C     0.13573   0.59036   0.27911   0.00000  Uiso   1.00
C18    C     0.07726   0.72717   0.95748   0.00000  Uiso   1.00
C19    C     0.04940   0.66500   0.88765   0.00000  Uiso   1.00
C20    C     0.06604   0.64310   0.78578   0.00000  Uiso   1.00
C21    C     0.07121   0.89664   0.07973   0.00000  Uiso   1.00
C22    C     0.03826   0.97696   0.11266   0.00000  Uiso   1.00
C23    C     0.04981   0.09775   0.11368   0.00000  Uiso   1.00
H24    H     0.17837   0.86272   0.99175   0.00000  Uiso   1.00
H25    H     0.21796   0.73824   0.13950   0.00000  Uiso   1.00
H26    H     0.17015   0.77444   0.80104   0.00000  Uiso   1.00
H27    H     0.15901   0.08635   0.02602   0.00000  Uiso   1.00
H28    H     0.24290   0.58303   0.31688   0.00000  Uiso   1.00
H29    H     0.14209   0.65940   0.60320   0.00000  Uiso   1.00
H30    H     0.11861   0.31712   0.07760   0.00000  Uiso   1.00
H31    H     0.03239   0.73044   0.09648   0.00000  Uiso   1.00
H32    H     0.06397   0.59870   0.24999   0.00000  Uiso   1.00
H33    H     0.01616   0.63490   0.91152   0.00000  Uiso   1.00
H34    H     0.00502   0.94681   0.13650   0.00000  Uiso   1.00
H35    H     0.11792   0.46977   0.40656   0.00000  Uiso   1.00
H36    H     0.01711   0.54615   0.69287   0.00000  Uiso   1.00
H37    H     0.99362   0.20387   0.16728   0.00000  Uiso   1.00
O38    O     0.20382   0.44210   0.46079   0.00000  Uiso   1.00
O39    O     0.07156   0.54231   0.52446   0.00000  Uiso   1.00
O40    O     0.04074   0.40523   0.14687   0.00000  Uiso   1.00
N41    N     0.20916   0.57447   0.31694   0.00000  Uiso   1.00
N42    N     0.11491   0.64586   0.64969   0.00000  Uiso   1.00
N43    N     0.09294   0.26078   0.09319   0.00000  Uiso   1.00
N44    N     0.14190   0.51353   0.36519   0.00000  Uiso   1.00
N45    N     0.04765   0.58491   0.69794   0.00000  Uiso   1.00
N46    N     0.02569   0.19984   0.14144   0.00000  Uiso   1.00
C47    C     0.16442   0.98850   0.48632   0.00000  Uiso   1.00
C48    C     0.18529   0.05417   0.39152   0.00000  Uiso   1.00
C49    C     0.22457   0.02136   0.33885   0.00000  Uiso   1.00
C50    C     0.23807   0.09316   0.25397   0.00000  Uiso   1.00
C51    C     0.27428   0.17980   0.11151   0.00000  Uiso   1.00
C52    C     0.16016   0.08136   0.57531   0.00000  Uiso   1.00
C53    C     0.17830   0.07141   0.67717   0.00000  Uiso   1.00
C54    C     0.17063   0.16610   0.74701   0.00000  Uiso   1.00
C55    C     0.16779   0.29492   0.88991   0.00000  Uiso   1.00
C56    C     0.11638   0.95734   0.45305   0.00000  Uiso   1.00
C57    C     0.09771   0.84311   0.45214   0.00000  Uiso   1.00
C58    C     0.05319   0.83338   0.41907   0.00000  Uiso   1.00
C59    C     0.98238   0.76963   0.37214   0.00000  Uiso   1.00
C60    C     0.11855   0.17434   0.42925   0.00000  Uiso   1.00
C61    C     0.16037   0.15511   0.36052   0.00000  Uiso   1.00
C62    C     0.17382   0.22697   0.27570   0.00000  Uiso   1.00
C63    C     0.21311   0.19427   0.22291   0.00000  Uiso   1.00
C64    C     0.13524   0.18230   0.54431   0.00000  Uiso   1.00
C65    C     0.12754   0.27702   0.61402   0.00000  Uiso   1.00
C66    C     0.14567   0.26722   0.71596   0.00000  Uiso   1.00
C67    C     0.09147   0.05828   0.42204   0.00000  Uiso   1.00
C68    C     0.04696   0.04872   0.38898   0.00000  Uiso   1.00
C69    C     0.02823   0.93450   0.38802   0.00000  Uiso   1.00
H70    H     0.18382   0.90992   0.51047   0.00000  Uiso   1.00
H71    H     0.24385   0.94325   0.36287   0.00000  Uiso   1.00
H72    H     0.19757   0.99329   0.70114   0.00000  Uiso   1.00
H73    H     0.11701   0.76502   0.47613   0.00000  Uiso   1.00
H74    H     0.29942   0.02473   0.18558   0.00000  Uiso   1.00
H75    H     0.20184   0.13022   0.89885   0.00000  Uiso   1.00
H76    H     0.03194   0.64888   0.42439   0.00000  Uiso   1.00
H77    H     0.09915   0.25293   0.40512   0.00000  Uiso   1.00
H78    H     0.15453   0.30507   0.25173   0.00000  Uiso   1.00
H79    H     0.10826   0.35511   0.59000   0.00000  Uiso   1.00
H80    H     0.02769   0.12685   0.36500   0.00000  Uiso   1.00
H81    H     0.22692   0.31841   0.09538   0.00000  Uiso   1.00
H82    H     0.12934   0.42389   0.80866   0.00000  Uiso   1.00
H83    H     0.95945   0.94255   0.33419   0.00000  Uiso   1.00
O84    O     0.30114   0.19971   0.04151   0.00000  Uiso   1.00
O85    O     0.17311   0.33809   0.97729   0.00000  Uiso   1.00
O86    O     0.95021   0.70658   0.35481   0.00000  Uiso   1.00
N87    N     0.27475   0.08668   0.18539   0.00000  Uiso   1.00
N88    N     0.18353   0.18531   0.85225   0.00000  Uiso   1.00
N89    N     0.02468   0.73530   0.40870   0.00000  Uiso   1.00
N90    N     0.23574   0.24470   0.13685   0.00000  Uiso   1.00
N91    N     0.14452   0.34334   0.80371   0.00000  Uiso   1.00
N92    N     0.98568   0.89333   0.36016   0.00000  Uiso   1.00
C93    C     0.85507   0.16759   0.51575   0.00000  Uiso   1.00
C94    C     0.85381   0.25355   0.61056   0.00000  Uiso   1.00
C95    C     0.81528   0.29190   0.66339   0.00000  Uiso   1.00
C96    C     0.82124   0.37065   0.74823   0.00000  Uiso   1.00
C97    C     0.81274   0.49826   0.89072   0.00000  Uiso   1.00
C98    C     0.87978   0.23390   0.42666   0.00000  Uiso   1.00
C99    C     0.86309   0.25570   0.32487   0.00000  Uiso   1.00
C100   C     0.89092   0.31790   0.25491   0.00000  Uiso   1.00
C101   C     0.92276   0.41492   0.11187   0.00000  Uiso   1.00
C102   C     0.88583   0.06443   0.54891   0.00000  Uiso   1.00
C103   C     0.87423   0.94374   0.54987   0.00000  Uiso   1.00
C104   C     0.90716   0.86325   0.58281   0.00000  Uiso   1.00
C105   C     0.94838   0.69715   0.62957   0.00000  Uiso   1.00
C106   C     0.93416   0.23925   0.57249   0.00000  Uiso   1.00
C107   C     0.89677   0.29248   0.64137   0.00000  Uiso   1.00
C108   C     0.90279   0.37119   0.72616   0.00000  Uiso   1.00
C109   C     0.86427   0.40964   0.77911   0.00000  Uiso   1.00
C110   C     0.92274   0.27283   0.45748   0.00000  Uiso   1.00
C111   C     0.95060   0.33500   0.38765   0.00000  Uiso   1.00
C112   C     0.93396   0.35690   0.28578   0.00000  Uiso   1.00
C113   C     0.92879   0.10336   0.57973   0.00000  Uiso   1.00
C114   C     0.96174   0.02304   0.61266   0.00000  Uiso   1.00
C115   C     0.95019   0.90225   0.61368   0.00000  Uiso   1.00
H116   H     0.82163   0.13728   0.49175   0.00000  Uiso   1.00
H117   H     0.78204   0.26176   0.63950   0.00000  Uiso   1.00
H118   H     0.82985   0.22556   0.30104   0.00000  Uiso   1.00
H119   H     0.84099   0.91365   0.52602   0.00000  Uiso   1.00
H120   H     0.75710   0.41697   0.81688   0.00000  Uiso   1.00
H121   H     0.85791   0.34060   0.10320   0.00000  Uiso   1.00
H122   H     0.88139   0.68288   0.57760   0.00000  Uiso   1.00
H123   H     0.96761   0.26956   0.59648   0.00000  Uiso   1.00
H124   H     0.93603   0.40130   0.74999   0.00000  Uiso   1.00
H125   H     0.98384   0.36510   0.41152   0.00000  Uiso   1.00
H126   H     0.99498   0.05319   0.63650   0.00000  Uiso   1.00
H127   H     0.88208   0.53023   0.90656   0.00000  Uiso   1.00
H128   H     0.98289   0.45385   0.19287   0.00000  Uiso   1.00
H129   H     0.00638   0.79613   0.66728   0.00000  Uiso   1.00
O130   O     0.79618   0.55790   0.96079   0.00000  Uiso   1.00
O131   O     0.92844   0.45769   0.02446   0.00000  Uiso   1.00
O132   O     0.95926   0.59477   0.64687   0.00000  Uiso   1.00
N133   N     0.79084   0.42553   0.81694   0.00000  Uiso   1.00
N134   N     0.88509   0.35414   0.14969   0.00000  Uiso   1.00
N135   N     0.90706   0.73922   0.59319   0.00000  Uiso   1.00
N136   N     0.85810   0.48647   0.86519   0.00000  Uiso   1.00
N137   N     0.95235   0.41509   0.19794   0.00000  Uiso   1.00
N138   N     0.97431   0.80016   0.64144   0.00000  Uiso   1.00
C139   C     0.83558   0.01150   0.98632   0.00000  Uiso   1.00
C140   C     0.81471   0.94583   0.89152   0.00000  Uiso   1.00
C141   C     0.77543   0.97864   0.83885   0.00000  Uiso   1.00
C142   C     0.76193   0.90684   0.75397   0.00000  Uiso   1.00
C143   C     0.72572   0.82020   0.61151   0.00000  Uiso   1.00
C144   C     0.83984   0.91864   0.07531   0.00000  Uiso   1.00
C145   C     0.82170   0.92859   0.17717   0.00000  Uiso   1.00
C146   C     0.82937   0.83390   0.24701   0.00000  Uiso   1.00
C147   C     0.83221   0.70508   0.38991   0.00000  Uiso   1.00
C148   C     0.88362   0.04266   0.95305   0.00000  Uiso   1.00
C149   C     0.90229   0.15689   0.95214   0.00000  Uiso   1.00
C150   C     0.94681   0.16662   0.91907   0.00000  Uiso   1.00
C151   C     0.01762   0.23037   0.87214   0.00000  Uiso   1.00
C152   C     0.88145   0.82566   0.92925   0.00000  Uiso   1.00
C153   C     0.83963   0.84489   0.86052   0.00000  Uiso   1.00
C154   C     0.82618   0.77303   0.77570   0.00000  Uiso   1.00
C155   C     0.78689   0.80573   0.72291   0.00000  Uiso   1.00
C156   C     0.86476   0.81770   0.04431   0.00000  Uiso   1.00
C157   C     0.87246   0.72298   0.11402   0.00000  Uiso   1.00
C158   C     0.85433   0.73278   0.21596   0.00000  Uiso   1.00
C159   C     0.90853   0.94172   0.92204   0.00000  Uiso   1.00
C160   C     0.95304   0.95128   0.88898   0.00000  Uiso   1.00
C161   C     0.97177   0.06550   0.88802   0.00000  Uiso   1.00
H162   H     0.81618   0.09008   0.01047   0.00000  Uiso   1.00
H163   H     0.75615   0.05675   0.86287   0.00000  Uiso   1.00
H164   H     0.80243   0.00671   0.20114   0.00000  Uiso   1.00
H165   H     0.88299   0.23498   0.97613   0.00000  Uiso   1.00
H166   H     0.70058   0.97527   0.68558   0.00000  Uiso   1.00
H167   H     0.79816   0.86978   0.39885   0.00000  Uiso   1.00
H168   H     0.96806   0.35112   0.92439   0.00000  Uiso   1.00
H169   H     0.90085   0.74707   0.90512   0.00000  Uiso   1.00
H170   H     0.84547   0.69493   0.75173   0.00000  Uiso   1.00
H171   H     0.89174   0.64489   0.09000   0.00000  Uiso   1.00
H172   H     0.97231   0.87315   0.86500   0.00000  Uiso   1.00
H173   H     0.77308   0.68159   0.59538   0.00000  Uiso   1.00
H174   H     0.87066   0.57611   0.30866   0.00000  Uiso   1.00
H175   H     0.04055   0.05745   0.83419   0.00000  Uiso   1.00
O176   O     0.69886   0.80029   0.54151   0.00000  Uiso   1.00
O177   O     0.82689   0.66191   0.47729   0.00000  Uiso   1.00
O178   O     0.04979   0.29342   0.85481   0.00000  Uiso   1.00
N179   N     0.72525   0.91332   0.68539   0.00000  Uiso   1.00
N180   N     0.81647   0.81469   0.35225   0.00000  Uiso   1.00
N181   N     0.97532   0.26470   0.90870   0.00000  Uiso   1.00
N182   N     0.76426   0.75530   0.63685   0.00000  Uiso   1.00
N183   N     0.85548   0.65666   0.30371   0.00000  Uiso   1.00
N184   N     0.01432   0.10667   0.86016   0.00000  Uiso   1.00
C185   C     0.64493   0.66759   0.01575   0.00000  Uiso   1.00
C186   C     0.64619   0.75355   0.11056   0.00000  Uiso   1.00
C187   C     0.68472   0.79190   0.16339   0.00000  Uiso   1.00
C188   C     0.67876   0.87065   0.24823   0.00000  Uiso   1.00
C189   C     0.68726   0.99826   0.39072   0.00000  Uiso   1.00
C190   C     0.62022   0.73390   0.92666   0.00000  Uiso   1.00
C191   C     0.63691   0.75570   0.82487   0.00000  Uiso   1.00
C192   C     0.60908   0.81790   0.75491   0.00000  Uiso   1.00
C193   C     0.57724   0.91492   0.61187   0.00000  Uiso   1.00
C194   C     0.61417   0.56443   0.04891   0.00000  Uiso   1.00
C195   C     0.62577   0.44374   0.04987   0.00000  Uiso   1.00
C196   C     0.59284   0.36325   0.08281   0.00000  Uiso   1.00
C197   C     0.55162   0.19715   0.12957   0.00000  Uiso   1.00
C198   C     0.56584   0.73925   0.07249   0.00000  Uiso   1.00
C199   C     0.60323   0.79248   0.14137   0.00000  Uiso   1.00
C200   C     0.59721   0.87119   0.22616   0.00000  Uiso   1.00
C201   C     0.63573   0.90964   0.27911   0.00000  Uiso   1.00
C202   C     0.57726   0.77283   0.95748   0.00000  Uiso   1.00
C203   C     0.54940   0.83500   0.88765   0.00000  Uiso   1.00
C204   C     0.56604   0.85690   0.78578   0.00000  Uiso   1.00
C205   C     0.57121   0.60336   0.07973   0.00000  Uiso   1.00
C206   C     0.53826   0.52304   0.11266   0.00000  Uiso   1.00
C207   C     0.54981   0.40225   0.11368   0.00000  Uiso   1.00
H208   H     0.67837   0.63728   0.99175   0.00000  Uiso   1.00
H209   H     0.71796   0.76176   0.13950   0.00000  Uiso   1.00
H210   H     0.67015   0.72556   0.80104   0.00000  Uiso   1.00
H211   H     0.65901   0.41365   0.02602   0.00000  Uiso   1.00
H212   H     0.74290   0.91697   0.31688   0.00000  Uiso   1.00
H213   H     0.64209   0.84060   0.60320   0.00000  Uiso   1.00
H214   H     0.61861   0.18288   0.07760   0.00000  Uiso   1.00
H215   H     0.53239   0.76956   0.09648   0.00000  Uiso   1.00
H216   H     0.56397   0.90130   0.24999   0.00000  Uiso   1.00
H217   H     0.51616   0.86510   0.91152   0.00000  Uiso   1.00
H218   H     0.50502   0.55319   0.13650   0.00000  Uiso   1.00
H219   H     0.61792   0.03023   0.40656   0.00000  Uiso   1.00
H220   H     0.51711   0.95385   0.69287   0.00000  Uiso   1.00
H221   H     0.49362   0.29613   0.16728   0.00000  Uiso   1.00
O222   O     0.70382   0.05790   0.46079   0.00000  Uiso   1.00
O223   O     0.57156   0.95769   0.52446   0.00000  Uiso   1.00
O224   O     0.54074   0.09477   0.14687   0.00000  Uiso   1.00
N225   N     0.70916   0.92553   0.31694   0.00000  Uiso   1.00
N226   N     0.61491   0.85414   0.64969   0.00000  Uiso   1.00
N227   N     0.59294   0.23922   0.09319   0.00000  Uiso   1.00
N228   N     0.64190   0.98647   0.36519   0.00000  Uiso   1.00
N229   N     0.54765   0.91509   0.69794   0.00000  Uiso   1.00
N230   N     0.52569   0.30016   0.14144   0.00000  Uiso   1.00
C231   C     0.66442   0.51150   0.48632   0.00000  Uiso   1.00
C232   C     0.68529   0.44583   0.39152   0.00000  Uiso   1.00
C233   C     0.72457   0.47864   0.33885   0.00000  Uiso   1.00
C234   C     0.73807   0.40684   0.25397   0.00000  Uiso   1.00
C235   C     0.77428   0.32020   0.11151   0.00000  Uiso   1.00
C236   C     0.66016   0.41864   0.57531   0.00000  Uiso   1.00
C237   C     0.67830   0.42859   0.67717   0.00000  Uiso   1.00
C238   C     0.67063   0.33390   0.74701   0.00000  Uiso   1.00
C239   C     0.66779   0.20508   0.88991   0.00000  Uiso   1.00
C240   C     0.61638   0.54266   0.45305   0.00000  Uiso   1.00
C241   C     0.59771   0.65689   0.45214   0.00000  Uiso   1.00
C242   C     0.55319   0.66662   0.41907   0.00000  Uiso   1.00
C243   C     0.48238   0.73037   0.37214   0.00000  Uiso   1.00
C244   C     0.61855   0.32566   0.42925   0.00000  Uiso   1.00
C245   C     0.66037   0.34489   0.36052   0.00000  Uiso   1.00
C246   C     0.67382   0.27303   0.27570   0.00000  Uiso   1.00
C247   C     0.71311   0.30573   0.22291   0.00000  Uiso   1.00
C248   C     0.63524   0.31770   0.54431   0.00000  Uiso   1.00
C249   C     0.62754   0.22298   0.61402   0.00000  Uiso   1.00
C250   C     0.64567   0.23278   0.71596   0.00000  Uiso   1.00
C251   C     0.59147   0.44172   0.42204   0.00000  Uiso   1.00
C252   C     0.54696   0.45128   0.38898   0.00000  Uiso   1.00
C253   C     0.52823   0.56550   0.38802   0.00000  Uiso   1.00
H254   H     0.68382   0.59008   0.51047   0.00000  Uiso   1.00
H255   H     0.74385   0.55675   0.36287   0.00000  Uiso   1.00
H256   H     0.69757   0.50671   0.70114   0.00000  Uiso   1.00
H257   H     0.61701   0.73498   0.47613   0.00000  Uiso   1.00
H258   H     0.79942   0.47527   0.18558   0.00000  Uiso   1.00
H259   H     0.70184   0.36978   0.89885   0.00000  Uiso   1.00
H260   H     0.53194   0.85112   0.42439   0.00000  Uiso   1.00
H261   H     0.59915   0.24707   0.40512   0.00000  Uiso   1.00
H262   H     0.65453   0.19493   0.25173   0.00000  Uiso   1.00
H263   H     0.60826   0.14489   0.59000   0.00000  Uiso   1.00
H264   H     0.52769   0.37315   0.36500   0.00000  Uiso   1.00
H265   H     0.72692   0.18159   0.09538   0.00000  Uiso   1.00
H266   H     0.62934   0.07611   0.80866   0.00000  Uiso   1.00
H267   H     0.45945   0.55745   0.33419   0.00000  Uiso   1.00
O268   O     0.80114   0.30029   0.04151   0.00000  Uiso   1.00
O269   O     0.67311   0.16191   0.97729   0.00000  Uiso   1.00
O270   O     0.45021   0.79342   0.35481   0.00000  Uiso   1.00
N271   N     0.77475   0.41332   0.18539   0.00000  Uiso   1.00
N272   N     0.68353   0.31469   0.85225   0.00000  Uiso   1.00
N273   N     0.52468   0.76470   0.40870   0.00000  Uiso   1.00
N274   N     0.73574   0.25530   0.13685   0.00000  Uiso   1.00
N275   N     0.64452   0.15666   0.80371   0.00000  Uiso   1.00
N276   N     0.48568   0.60667   0.36016   0.00000  Uiso   1.00
C277   C     0.35507   0.33241   0.51575   0.00000  Uiso   1.00
C278   C     0.35381   0.24645   0.61056   0.00000  Uiso   1.00
C279   C     0.31528   0.20810   0.66339   0.00000  Uiso   1.00
C280   C     0.32124   0.12935   0.74823   0.00000  Uiso   1.00
C281   C     0.31274   0.00174   0.89072   0.00000  Uiso   1.00
C282   C     0.37978   0.26610   0.42666   0.00000  Uiso   1.00
C283   C     0.36309   0.24430   0.32487   0.00000  Uiso   1.00
C284   C     0.39092   0.18210   0.25491   0.00000  Uiso   1.00
C285   C     0.42276   0.08508   0.11187   0.00000  Uiso   1.00
C286   C     0.38583   0.43557   0.54891   0.00000  Uiso   1.00
C287   C     0.37423   0.55626   0.54987   0.00000  Uiso   1.00
C288   C     0.40716   0.63675   0.58281   0.00000  Uiso   1.00
C289   C     0.44838   0.80285   0.62957   0.00000  Uiso   1.00
C290   C     0.43416   0.26075   0.57249   0.00000  Uiso   1.00
C291   C     0.39677   0.20752   0.64137   0.00000  Uiso   1.00
C292   C     0.40279   0.12881   0.72616   0.00000  Uiso   1.00
C293   C     0.36427   0.09036   0.77911   0.00000  Uiso   1.00
C294   C     0.42274   0.22717   0.45748   0.00000  Uiso   1.00
C295   C     0.45060   0.16500   0.38765   0.00000  Uiso   1.00
C296   C     0.43396   0.14310   0.28578   0.00000  Uiso   1.00
C297   C     0.42879   0.39664   0.57973   0.00000  Uiso   1.00
C298   C     0.46174   0.47696   0.61266   0.00000  Uiso   1.00
C299   C     0.45019   0.59775   0.61368   0.00000  Uiso   1.00
H300   H     0.32163   0.36272   0.49175   0.00000  Uiso   1.00
H301   H     0.28204   0.23824   0.63950   0.00000  Uiso   1.00
H302   H     0.32985   0.27444   0.30104   0.00000  Uiso   1.00
H303   H     0.34099   0.58635   0.52602   0.00000  Uiso   1.00
H304   H     0.25710   0.08303   0.81688   0.00000  Uiso   1.00
H305   H     0.35791   0.15940   0.10320   0.00000  Uiso   1.00
H306   H     0.38139   0.81712   0.57760   0.00000  Uiso   1.00
H307   H     0.46761   0.23044   0.59648   0.00000  Uiso   1.00
H308   H     0.43603   0.09870   0.74999   0.00000  Uiso   1.00
H309   H     0.48384   0.13490   0.41152   0.00000  Uiso   1.00
H310   H     0.49498   0.44681   0.63650   0.00000  Uiso   1.00
H311   H     0.38208   0.96977   0.90656   0.00000  Uiso   1.00
H312   H     0.48289   0.04615   0.19287   0.00000  Uiso   1.00
H313   H     0.50638   0.70387   0.66728   0.00000  Uiso   1.00
O314   O     0.29618   0.94210   0.96079   0.00000  Uiso   1.00
O315   O     0.42844   0.04231   0.02446   0.00000  Uiso   1.00
O316   O     0.45926   0.90523   0.64687   0.00000  Uiso   1.00
N317   N     0.29084   0.07447   0.81694   0.00000  Uiso   1.00
N318   N     0.38509   0.14586   0.14969   0.00000  Uiso   1.00
N319   N     0.40706   0.76078   0.59319   0.00000  Uiso   1.00
N320   N     0.35810   0.01353   0.86519   0.00000  Uiso   1.00
N321   N     0.45235   0.08491   0.19794   0.00000  Uiso   1.00
N322   N     0.47431   0.69984   0.64144   0.00000  Uiso   1.00
C323   C     0.33558   0.48850   0.98632   0.00000  Uiso   1.00
C324   C     0.31471   0.55417   0.89152   0.00000  Uiso   1.00
C325   C     0.27543   0.52136   0.83885   0.00000  Uiso   1.00
C326   C     0.26193   0.59316   0.75397   0.00000  Uiso   1.00
C327   C     0.22572   0.67980   0.61151   0.00000  Uiso   1.00
C328   C     0.33984   0.58136   0.07531   0.00000  Uiso   1.00
C329   C     0.32170   0.57141   0.17717   0.00000  Uiso   1.00
C330   C     0.32937   0.66610   0.24701   0.00000  Uiso   1.00
C331   C     0.33221   0.79492   0.38991   0.00000  Uiso   1.00
C332   C     0.38362   0.45734   0.95305   0.00000  Uiso   1.00
C333   C     0.40229   0.34311   0.95214   0.00000  Uiso   1.00
C334   C     0.44681   0.33338   0.91907   0.00000  Uiso   1.00
C335   C     0.51762   0.26963   0.87214   0.00000  Uiso   1.00
C336   C     0.38145   0.67434   0.92925   0.00000  Uiso   1.00
C337   C     0.33963   0.65511   0.86052   0.00000  Uiso   1.00
C338   C     0.32618   0.72697   0.77570   0.00000  Uiso   1.00
C339   C     0.28689   0.69427   0.72291   0.00000  Uiso   1.00
C340   C     0.36476   0.68230   0.04431   0.00000  Uiso   1.00
C341   C     0.37246   0.77702   0.11402   0.00000  Uiso   1.00
C342   C     0.35433   0.76722   0.21596   0.00000  Uiso   1.00
C343   C     0.40853   0.55828   0.92204   0.00000  Uiso   1.00
C344   C     0.45304   0.54872   0.88898   0.00000  Uiso   1.00
C345   C     0.47177   0.43450   0.88802   0.00000  Uiso   1.00
H346   H     0.31618   0.40992   0.01047   0.00000  Uiso   1.00
H347   H     0.25615   0.44325   0.86287   0.00000  Uiso   1.00
H348   H     0.30243   0.49329   0.20114   0.00000  Uiso   1.00
H349   H     0.38299   0.26502   0.97613   0.00000  Uiso   1.00
H350   H     0.20058   0.52473   0.68558   0.00000  Uiso   1.00
H351   H     0.29816   0.63022   0.39885   0.00000  Uiso   1.00
H352   H     0.46806   0.14888   0.92439   0.00000  Uiso   1.00
H353   H     0.40085   0.75293   0.90512   0.00000  Uiso   1.00
H354   H     0.34547   0.80507   0.75173   0.00000  Uiso   1.00
H355   H     0.39174   0.85511   0.09000   0.00000  Uiso   1.00
H356   H     0.47231   0.62685   0.86500   0.00000  Uiso   1.00
H357   H     0.27308   0.81841   0.59538   0.00000  Uiso   1.00
H358   H     0.37066   0.92389   0.30866   0.00000  Uiso   1.00
H359   H     0.54055   0.44255   0.83419   0.00000  Uiso   1.00
O360   O     0.19886   0.69971   0.54151   0.00000  Uiso   1.00
O361   O     0.32689   0.83809   0.47729   0.00000  Uiso   1.00
O362   O     0.54979   0.20658   0.85481   0.00000  Uiso   1.00
N363   N     0.22525   0.58668   0.68539   0.00000  Uiso   1.00
N364   N     0.31647   0.68531   0.35225   0.00000  Uiso   1.00
N365   N     0.47532   0.23530   0.90870   0.00000  Uiso   1.00
N366   N     0.26426   0.74470   0.63685   0.00000  Uiso   1.00
N367   N     0.35548   0.84334   0.30371   0.00000  Uiso   1.00
N368   N     0.51432   0.39333   0.86016   0.00000  Uiso   1.00
