data_job_02550
_audit_creation_date              2018-12-19
_audit_creation_method            'Materials Studio'
_symmetry_space_group_name_H-M    'P1'
_symmetry_Int_Tables_number       1
_symmetry_cell_setting            triclinic
loop_
_symmetry_equiv_pos_as_xyz
  x,y,z
_cell_length_a                    11.8410
_cell_length_b                    11.8410
_cell_length_c                    19.9001
_cell_angle_alpha                 90.0000
_cell_angle_beta                  90.0000
_cell_angle_gamma                 90.0000
loop_
_atom_site_label
_atom_site_type_symbol
_atom_site_fract_x
_atom_site_fract_y
_atom_site_fract_z
_atom_site_U_iso_or_equiv
_atom_site_adp_type
_atom_site_occupancy
C1     C     0.30944   0.70083   0.51562   0.00000  Uiso   1.00
C2     C     0.40702   0.65998   0.55932   0.00000  Uiso   1.00
C3     C     0.51894   0.69321   0.55325   0.00000  Uiso   1.00
C4     C     0.59550   0.64613   0.59806   0.00000  Uiso   1.00
C5     C     0.75224   0.59445   0.65843   0.00000  Uiso   1.00
C6     C     0.25604   0.59498   0.48569   0.00000  Uiso   1.00
C7     C     0.24102   0.57357   0.41770   0.00000  Uiso   1.00
C8     C     0.19046   0.47178   0.40053   0.00000  Uiso   1.00
C9     C     0.11273   0.31922   0.34659   0.00000  Uiso   1.00
C10    C     0.22202   0.74974   0.56377   0.00000  Uiso   1.00
C11    C     0.17837   0.85844   0.56144   0.00000  Uiso   1.00
C12    C     0.09915   0.88694   0.61001   0.00000  Uiso   1.00
C13    C     0.96860   0.97467   0.67731   0.00000  Uiso   1.00
C14    C     0.24635   0.55814   0.60600   0.00000  Uiso   1.00
C15    C     0.37275   0.58247   0.60841   0.00000  Uiso   1.00
C16    C     0.44915   0.53534   0.65325   0.00000  Uiso   1.00
C17    C     0.56117   0.56849   0.64724   0.00000  Uiso   1.00
C18    C     0.22178   0.51748   0.53478   0.00000  Uiso   1.00
C19    C     0.17122   0.41570   0.51770   0.00000  Uiso   1.00
C20    C     0.15613   0.39414   0.44971   0.00000  Uiso   1.00
C21    C     0.18776   0.67224   0.61287   0.00000  Uiso   1.00
C22    C     0.10858   0.70057   0.66144   0.00000  Uiso   1.00
C23    C     0.06482   0.80930   0.65919   0.00000  Uiso   1.00
H24    H     0.33611   0.76116   0.47739   0.00000  Uiso   1.00
H25    H     0.54543   0.75318   0.51524   0.00000  Uiso   1.00
H26    H     0.26753   0.63356   0.37973   0.00000  Uiso   1.00
H27    H     0.20490   0.91839   0.52344   0.00000  Uiso   1.00
H28    H     0.76240   0.71012   0.57885   0.00000  Uiso   1.00
H29    H     0.17640   0.45792   0.29310   0.00000  Uiso   1.00
H30    H     0.04433   0.05853   0.59615   0.00000  Uiso   1.00
H31    H     0.21967   0.49780   0.64422   0.00000  Uiso   1.00
H32    H     0.42261   0.47537   0.69123   0.00000  Uiso   1.00
H33    H     0.14471   0.35575   0.55571   0.00000  Uiso   1.00
H34    H     0.08208   0.64058   0.69943   0.00000  Uiso   1.00
H35    H     0.66271   0.48463   0.72168   0.00000  Uiso   1.00
H36    H     0.07671   0.23243   0.43593   0.00000  Uiso   1.00
H37    H     0.94465   0.83305   0.73899   0.00000  Uiso   1.00
O38    O     0.84816   0.58734   0.67816   0.00000  Uiso   1.00
O39    O     0.07934   0.25648   0.30327   0.00000  Uiso   1.00
O40    O     0.90607   0.04447   0.70088   0.00000  Uiso   1.00
N41    N     0.71108   0.66014   0.60602   0.00000  Uiso   1.00
N42    N     0.16323   0.42435   0.33886   0.00000  Uiso   1.00
N43    N     0.03973   0.98586   0.62218   0.00000  Uiso   1.00
N44    N     0.65744   0.53881   0.68288   0.00000  Uiso   1.00
N45    N     0.10959   0.30302   0.41572   0.00000  Uiso   1.00
N46    N     0.98609   0.86453   0.69904   0.00000  Uiso   1.00
C47    C     0.69056   0.29917   0.01562   0.00000  Uiso   1.00
C48    C     0.59298   0.34002   0.05932   0.00000  Uiso   1.00
C49    C     0.48106   0.30679   0.05325   0.00000  Uiso   1.00
C50    C     0.40450   0.35387   0.09806   0.00000  Uiso   1.00
C51    C     0.24776   0.40555   0.15843   0.00000  Uiso   1.00
C52    C     0.74396   0.40502   0.98569   0.00000  Uiso   1.00
C53    C     0.75898   0.42643   0.91770   0.00000  Uiso   1.00
C54    C     0.80954   0.52822   0.90053   0.00000  Uiso   1.00
C55    C     0.88727   0.68078   0.84659   0.00000  Uiso   1.00
C56    C     0.77798   0.25026   0.06377   0.00000  Uiso   1.00
C57    C     0.82163   0.14156   0.06144   0.00000  Uiso   1.00
C58    C     0.90085   0.11306   0.11001   0.00000  Uiso   1.00
C59    C     0.03140   0.02533   0.17731   0.00000  Uiso   1.00
C60    C     0.75365   0.44186   0.10600   0.00000  Uiso   1.00
C61    C     0.62725   0.41753   0.10841   0.00000  Uiso   1.00
C62    C     0.55085   0.46466   0.15325   0.00000  Uiso   1.00
C63    C     0.43883   0.43151   0.14724   0.00000  Uiso   1.00
C64    C     0.77822   0.48252   0.03478   0.00000  Uiso   1.00
C65    C     0.82878   0.58430   0.01770   0.00000  Uiso   1.00
C66    C     0.84387   0.60586   0.94971   0.00000  Uiso   1.00
C67    C     0.81224   0.32776   0.11287   0.00000  Uiso   1.00
C68    C     0.89142   0.29943   0.16144   0.00000  Uiso   1.00
C69    C     0.93518   0.19070   0.15919   0.00000  Uiso   1.00
H70    H     0.66389   0.23884   0.97739   0.00000  Uiso   1.00
H71    H     0.45457   0.24682   0.01524   0.00000  Uiso   1.00
H72    H     0.73247   0.36644   0.87973   0.00000  Uiso   1.00
H73    H     0.79510   0.08161   0.02344   0.00000  Uiso   1.00
H74    H     0.23760   0.28988   0.07885   0.00000  Uiso   1.00
H75    H     0.82360   0.54208   0.79310   0.00000  Uiso   1.00
H76    H     0.95567   0.94147   0.09615   0.00000  Uiso   1.00
H77    H     0.78033   0.50220   0.14422   0.00000  Uiso   1.00
H78    H     0.57739   0.52463   0.19123   0.00000  Uiso   1.00
H79    H     0.85529   0.64425   0.05571   0.00000  Uiso   1.00
H80    H     0.91792   0.35942   0.19943   0.00000  Uiso   1.00
H81    H     0.33729   0.51537   0.22168   0.00000  Uiso   1.00
H82    H     0.92329   0.76757   0.93593   0.00000  Uiso   1.00
H83    H     0.05535   0.16695   0.23899   0.00000  Uiso   1.00
O84    O     0.15184   0.41266   0.17816   0.00000  Uiso   1.00
O85    O     0.92066   0.74352   0.80327   0.00000  Uiso   1.00
O86    O     0.09393   0.95553   0.20088   0.00000  Uiso   1.00
N87    N     0.28892   0.33986   0.10602   0.00000  Uiso   1.00
N88    N     0.83677   0.57565   0.83886   0.00000  Uiso   1.00
N89    N     0.96027   0.01414   0.12218   0.00000  Uiso   1.00
N90    N     0.34256   0.46119   0.18288   0.00000  Uiso   1.00
N91    N     0.89041   0.69698   0.91572   0.00000  Uiso   1.00
N92    N     0.01391   0.13547   0.19904   0.00000  Uiso   1.00
C93    C     0.29917   0.30944   0.76562   0.00000  Uiso   1.00
C94    C     0.34002   0.40702   0.80932   0.00000  Uiso   1.00
C95    C     0.30679   0.51894   0.80325   0.00000  Uiso   1.00
C96    C     0.35387   0.59550   0.84806   0.00000  Uiso   1.00
C97    C     0.40555   0.75224   0.90843   0.00000  Uiso   1.00
C98    C     0.40502   0.25604   0.73569   0.00000  Uiso   1.00
C99    C     0.42643   0.24102   0.66770   0.00000  Uiso   1.00
C100   C     0.52822   0.19046   0.65053   0.00000  Uiso   1.00
C101   C     0.68078   0.11273   0.59659   0.00000  Uiso   1.00
C102   C     0.25026   0.22202   0.81377   0.00000  Uiso   1.00
C103   C     0.14156   0.17837   0.81144   0.00000  Uiso   1.00
C104   C     0.11306   0.09915   0.86001   0.00000  Uiso   1.00
C105   C     0.02533   0.96860   0.92731   0.00000  Uiso   1.00
C106   C     0.44186   0.24635   0.85600   0.00000  Uiso   1.00
C107   C     0.41753   0.37275   0.85841   0.00000  Uiso   1.00
C108   C     0.46466   0.44915   0.90325   0.00000  Uiso   1.00
C109   C     0.43151   0.56117   0.89724   0.00000  Uiso   1.00
C110   C     0.48252   0.22178   0.78478   0.00000  Uiso   1.00
C111   C     0.58430   0.17122   0.76770   0.00000  Uiso   1.00
C112   C     0.60586   0.15613   0.69971   0.00000  Uiso   1.00
C113   C     0.32776   0.18776   0.86287   0.00000  Uiso   1.00
C114   C     0.29943   0.10858   0.91144   0.00000  Uiso   1.00
C115   C     0.19070   0.06482   0.90919   0.00000  Uiso   1.00
H116   H     0.23884   0.33611   0.72739   0.00000  Uiso   1.00
H117   H     0.24682   0.54543   0.76524   0.00000  Uiso   1.00
H118   H     0.36644   0.26753   0.62973   0.00000  Uiso   1.00
H119   H     0.08161   0.20490   0.77344   0.00000  Uiso   1.00
H120   H     0.28988   0.76240   0.82885   0.00000  Uiso   1.00
H121   H     0.54208   0.17640   0.54310   0.00000  Uiso   1.00
H122   H     0.94147   0.04433   0.84615   0.00000  Uiso   1.00
H123   H     0.50220   0.21967   0.89422   0.00000  Uiso   1.00
H124   H     0.52463   0.42261   0.94123   0.00000  Uiso   1.00
H125   H     0.64425   0.14471   0.80571   0.00000  Uiso   1.00
H126   H     0.35942   0.08208   0.94943   0.00000  Uiso   1.00
H127   H     0.51537   0.66271   0.97168   0.00000  Uiso   1.00
H128   H     0.76757   0.07671   0.68593   0.00000  Uiso   1.00
H129   H     0.16695   0.94465   0.98899   0.00000  Uiso   1.00
O130   O     0.41266   0.84816   0.92816   0.00000  Uiso   1.00
O131   O     0.74352   0.07934   0.55327   0.00000  Uiso   1.00
O132   O     0.95553   0.90607   0.95088   0.00000  Uiso   1.00
N133   N     0.33986   0.71108   0.85602   0.00000  Uiso   1.00
N134   N     0.57565   0.16323   0.58886   0.00000  Uiso   1.00
N135   N     0.01414   0.03973   0.87218   0.00000  Uiso   1.00
N136   N     0.46119   0.65744   0.93288   0.00000  Uiso   1.00
N137   N     0.69698   0.10959   0.66572   0.00000  Uiso   1.00
N138   N     0.13547   0.98609   0.94904   0.00000  Uiso   1.00
C139   C     0.70083   0.69056   0.26562   0.00000  Uiso   1.00
C140   C     0.65998   0.59298   0.30932   0.00000  Uiso   1.00
C141   C     0.69321   0.48106   0.30325   0.00000  Uiso   1.00
C142   C     0.64613   0.40450   0.34806   0.00000  Uiso   1.00
C143   C     0.59445   0.24776   0.40843   0.00000  Uiso   1.00
C144   C     0.59498   0.74396   0.23569   0.00000  Uiso   1.00
C145   C     0.57357   0.75898   0.16770   0.00000  Uiso   1.00
C146   C     0.47178   0.80954   0.15053   0.00000  Uiso   1.00
C147   C     0.31922   0.88727   0.09659   0.00000  Uiso   1.00
C148   C     0.74974   0.77798   0.31377   0.00000  Uiso   1.00
C149   C     0.85844   0.82163   0.31144   0.00000  Uiso   1.00
C150   C     0.88694   0.90085   0.36001   0.00000  Uiso   1.00
C151   C     0.97467   0.03140   0.42731   0.00000  Uiso   1.00
C152   C     0.55814   0.75365   0.35600   0.00000  Uiso   1.00
C153   C     0.58247   0.62725   0.35841   0.00000  Uiso   1.00
C154   C     0.53534   0.55085   0.40325   0.00000  Uiso   1.00
C155   C     0.56849   0.43883   0.39724   0.00000  Uiso   1.00
C156   C     0.51748   0.77822   0.28478   0.00000  Uiso   1.00
C157   C     0.41570   0.82878   0.26770   0.00000  Uiso   1.00
C158   C     0.39414   0.84387   0.19971   0.00000  Uiso   1.00
C159   C     0.67224   0.81224   0.36287   0.00000  Uiso   1.00
C160   C     0.70057   0.89142   0.41144   0.00000  Uiso   1.00
C161   C     0.80930   0.93518   0.40919   0.00000  Uiso   1.00
H162   H     0.76116   0.66389   0.22739   0.00000  Uiso   1.00
H163   H     0.75318   0.45457   0.26524   0.00000  Uiso   1.00
H164   H     0.63356   0.73247   0.12973   0.00000  Uiso   1.00
H165   H     0.91839   0.79510   0.27344   0.00000  Uiso   1.00
H166   H     0.71012   0.23760   0.32885   0.00000  Uiso   1.00
H167   H     0.45792   0.82360   0.04310   0.00000  Uiso   1.00
H168   H     0.05853   0.95567   0.34615   0.00000  Uiso   1.00
H169   H     0.49780   0.78033   0.39422   0.00000  Uiso   1.00
H170   H     0.47537   0.57739   0.44123   0.00000  Uiso   1.00
H171   H     0.35575   0.85529   0.30571   0.00000  Uiso   1.00
H172   H     0.64058   0.91792   0.44943   0.00000  Uiso   1.00
H173   H     0.48463   0.33729   0.47168   0.00000  Uiso   1.00
H174   H     0.23243   0.92329   0.18593   0.00000  Uiso   1.00
H175   H     0.83305   0.05535   0.48899   0.00000  Uiso   1.00
O176   O     0.58734   0.15184   0.42816   0.00000  Uiso   1.00
O177   O     0.25648   0.92066   0.05327   0.00000  Uiso   1.00
O178   O     0.04447   0.09393   0.45088   0.00000  Uiso   1.00
N179   N     0.66014   0.28892   0.35602   0.00000  Uiso   1.00
N180   N     0.42435   0.83677   0.08886   0.00000  Uiso   1.00
N181   N     0.98586   0.96027   0.37218   0.00000  Uiso   1.00
N182   N     0.53881   0.34256   0.43288   0.00000  Uiso   1.00
N183   N     0.30302   0.89041   0.16572   0.00000  Uiso   1.00
N184   N     0.86453   0.01391   0.44904   0.00000  Uiso   1.00
