data_job_06096
_audit_creation_date              2018-12-19
_audit_creation_method            'Materials Studio'
_symmetry_space_group_name_H-M    'P1'
_symmetry_Int_Tables_number       1
_symmetry_cell_setting            triclinic
loop_
_symmetry_equiv_pos_as_xyz
  x,y,z
_cell_length_a                    16.0277
_cell_length_b                    15.8568
_cell_length_c                    15.6167
_cell_angle_alpha                 102.8970
_cell_angle_beta                  105.0890
_cell_angle_gamma                 106.6440
loop_
_atom_site_label
_atom_site_type_symbol
_atom_site_fract_x
_atom_site_fract_y
_atom_site_fract_z
_atom_site_U_iso_or_equiv
_atom_site_adp_type
_atom_site_occupancy
C1     C     0.24563   0.31565   0.51850   0.00000  Uiso   1.00
C2     C     0.30532   0.25657   0.53024   0.00000  Uiso   1.00
C3     C     0.40063   0.28718   0.55024   0.00000  Uiso   1.00
C4     C     0.44243   0.22238   0.55821   0.00000  Uiso   1.00
C5     C     0.54298   0.14464   0.57815   0.00000  Uiso   1.00
C6     C     0.17075   0.26592   0.42180   0.00000  Uiso   1.00
C7     C     0.15291   0.30439   0.35063   0.00000  Uiso   1.00
C8     C     0.08142   0.24747   0.26732   0.00000  Uiso   1.00
C9     C     0.97301   0.18427   0.11893   0.00000  Uiso   1.00
C10    C     0.19552   0.30832   0.58878   0.00000  Uiso   1.00
C11    C     0.19849   0.38243   0.65800   0.00000  Uiso   1.00
C12    C     0.14783   0.36120   0.71525   0.00000  Uiso   1.00
C13    C     0.07788   0.36381   0.82613   0.00000  Uiso   1.00
C14    C     0.15036   0.14617   0.49708   0.00000  Uiso   1.00
C15    C     0.25358   0.16452   0.51860   0.00000  Uiso   1.00
C16    C     0.29524   0.09966   0.52654   0.00000  Uiso   1.00
C17    C     0.39059   0.13016   0.54655   0.00000  Uiso   1.00
C18    C     0.11901   0.17387   0.41016   0.00000  Uiso   1.00
C19    C     0.04752   0.11688   0.32693   0.00000  Uiso   1.00
C20    C     0.02958   0.15525   0.25566   0.00000  Uiso   1.00
C21    C     0.14378   0.21626   0.57715   0.00000  Uiso   1.00
C22    C     0.09310   0.19491   0.63430   0.00000  Uiso   1.00
C23    C     0.09599   0.26898   0.70359   0.00000  Uiso   1.00
H24    H     0.28591   0.38732   0.52756   0.00000  Uiso   1.00
H25    H     0.44065   0.35842   0.55923   0.00000  Uiso   1.00
H26    H     0.19296   0.37564   0.35966   0.00000  Uiso   1.00
H27    H     0.23854   0.45366   0.66698   0.00000  Uiso   1.00
H28    H     0.58939   0.28577   0.58919   0.00000  Uiso   1.00
H29    H     0.06711   0.32209   0.16839   0.00000  Uiso   1.00
H30    H     0.16320   0.48661   0.81643   0.00000  Uiso   1.00
H31    H     0.11008   0.07450   0.48802   0.00000  Uiso   1.00
H32    H     0.25518   0.02843   0.51753   0.00000  Uiso   1.00
H33    H     0.00749   0.04565   0.31795   0.00000  Uiso   1.00
H34    H     0.05306   0.12367   0.62527   0.00000  Uiso   1.00
H35    H     0.43885   0.01794   0.55533   0.00000  Uiso   1.00
H36    H     0.91656   0.05425   0.13454   0.00000  Uiso   1.00
H37    H     0.01267   0.21877   0.78258   0.00000  Uiso   1.00
O38    O     0.61274   0.12719   0.59236   0.00000  Uiso   1.00
O39    O     0.92751   0.17484   0.04030   0.00000  Uiso   1.00
O40    O     0.05360   0.39068   0.89051   0.00000  Uiso   1.00
N41    N     0.53405   0.22906   0.57719   0.00000  Uiso   1.00
N42    N     0.04575   0.26301   0.18376   0.00000  Uiso   1.00
N43    N     0.13558   0.41683   0.78961   0.00000  Uiso   1.00
N44    N     0.45305   0.08494   0.55898   0.00000  Uiso   1.00
N45    N     0.96475   0.11889   0.16555   0.00000  Uiso   1.00
N46    N     0.05458   0.27271   0.77140   0.00000  Uiso   1.00
C47    C     0.52164   0.23156   0.30689   0.00000  Uiso   1.00
C48    C     0.53280   0.29342   0.24541   0.00000  Uiso   1.00
C49    C     0.55377   0.38873   0.27377   0.00000  Uiso   1.00
C50    C     0.56099   0.43270   0.20700   0.00000  Uiso   1.00
C51    C     0.58030   0.53630   0.12549   0.00000  Uiso   1.00
C52    C     0.42514   0.15619   0.25706   0.00000  Uiso   1.00
C53    C     0.35559   0.13611   0.29522   0.00000  Uiso   1.00
C54    C     0.27217   0.06453   0.23826   0.00000  Uiso   1.00
C55    C     0.12436   0.95503   0.17486   0.00000  Uiso   1.00
C56    C     0.59018   0.18242   0.30239   0.00000  Uiso   1.00
C57    C     0.65940   0.18437   0.37865   0.00000  Uiso   1.00
C58    C     0.71493   0.13487   0.35985   0.00000  Uiso   1.00
C59    C     0.82337   0.06610   0.36683   0.00000  Uiso   1.00
C60    C     0.49716   0.14015   0.13790   0.00000  Uiso   1.00
C61    C     0.51950   0.24377   0.15362   0.00000  Uiso   1.00
C62    C     0.52669   0.28760   0.08679   0.00000  Uiso   1.00
C63    C     0.54767   0.38296   0.11504   0.00000  Uiso   1.00
C64    C     0.41184   0.10654   0.16528   0.00000  Uiso   1.00
C65    C     0.32851   0.03497   0.10825   0.00000  Uiso   1.00
C66    C     0.25885   0.01479   0.14630   0.00000  Uiso   1.00
C67    C     0.57689   0.13277   0.21060   0.00000  Uiso   1.00
C68    C     0.63232   0.08325   0.19168   0.00000  Uiso   1.00
C69    C     0.70160   0.08513   0.26790   0.00000  Uiso   1.00
H70    H     0.53198   0.27021   0.37836   0.00000  Uiso   1.00
H71    H     0.56405   0.42713   0.34481   0.00000  Uiso   1.00
H72    H     0.36590   0.17454   0.36626   0.00000  Uiso   1.00
H73    H     0.66967   0.22281   0.44968   0.00000  Uiso   1.00
H74    H     0.59371   0.57921   0.26712   0.00000  Uiso   1.00
H75    H     0.17591   0.04658   0.31237   0.00000  Uiso   1.00
H76    H     0.81645   0.14836   0.48827   0.00000  Uiso   1.00
H77    H     0.48680   0.10149   0.06643   0.00000  Uiso   1.00
H78    H     0.51640   0.24916   0.01576   0.00000  Uiso   1.00
H79    H     0.31824   0.99656   0.03722   0.00000  Uiso   1.00
H80    H     0.62201   0.04483   0.12063   0.00000  Uiso   1.00
H81    H     0.55502   0.43475   0.00006   0.00000  Uiso   1.00
H82    H     0.13723   0.90212   0.04531   0.00000  Uiso   1.00
H83    H     0.77777   0.00390   0.22121   0.00000  Uiso   1.00
O84    O     0.59462   0.60716   0.10588   0.00000  Uiso   1.00
O85    O     0.04649   0.90836   0.16525   0.00000  Uiso   1.00
O86    O     0.88687   0.04190   0.39603   0.00000  Uiso   1.00
N87    N     0.58056   0.52495   0.21123   0.00000  Uiso   1.00
N88    N     0.18994   0.02698   0.25353   0.00000  Uiso   1.00
N89    N     0.78878   0.12212   0.41798   0.00000  Uiso   1.00
N90    N     0.55975   0.44722   0.06752   0.00000  Uiso   1.00
N91    N     0.16913   0.94925   0.10982   0.00000  Uiso   1.00
N92    N     0.76796   0.04439   0.27428   0.00000  Uiso   1.00
C93    C     0.34650   0.53451   0.24652   0.00000  Uiso   1.00
C94    C     0.28709   0.54309   0.30763   0.00000  Uiso   1.00
C95    C     0.31660   0.56195   0.40400   0.00000  Uiso   1.00
C96    C     0.25168   0.56698   0.44701   0.00000  Uiso   1.00
C97    C     0.17328   0.58230   0.54974   0.00000  Uiso   1.00
C98    C     0.29551   0.43880   0.17230   0.00000  Uiso   1.00
C99    C     0.33211   0.36998   0.15490   0.00000  Uiso   1.00
C100   C     0.27428   0.28722   0.08398   0.00000  Uiso   1.00
C101   C     0.20898   0.14065   0.97657   0.00000  Uiso   1.00
C102   C     0.34193   0.60475   0.19451   0.00000  Uiso   1.00
C103   C     0.41755   0.67546   0.19576   0.00000  Uiso   1.00
C104   C     0.39880   0.73240   0.14352   0.00000  Uiso   1.00
C105   C     0.40557   0.84350   0.07060   0.00000  Uiso   1.00
C106   C     0.17873   0.50990   0.15151   0.00000  Uiso   1.00
C107   C     0.19596   0.52972   0.25602   0.00000  Uiso   1.00
C108   C     0.13098   0.53473   0.29890   0.00000  Uiso   1.00
C109   C     0.16039   0.55360   0.39532   0.00000  Uiso   1.00
C110   C     0.20439   0.42543   0.12070   0.00000  Uiso   1.00
C111   C     0.14649   0.34276   0.04979   0.00000  Uiso   1.00
C112   C     0.18299   0.27383   0.03228   0.00000  Uiso   1.00
C113   C     0.25080   0.59139   0.14291   0.00000  Uiso   1.00
C114   C     0.23193   0.64823   0.09065   0.00000  Uiso   1.00
C115   C     0.30751   0.71901   0.09183   0.00000  Uiso   1.00
H116   H     0.41745   0.54491   0.28669   0.00000  Uiso   1.00
H117   H     0.38713   0.57228   0.44391   0.00000  Uiso   1.00
H118   H     0.40264   0.38035   0.19484   0.00000  Uiso   1.00
H119   H     0.48806   0.68578   0.23570   0.00000  Uiso   1.00
H120   H     0.31332   0.59671   0.59546   0.00000  Uiso   1.00
H121   H     0.34603   0.19201   0.07025   0.00000  Uiso   1.00
H122   H     0.52617   0.83607   0.15642   0.00000  Uiso   1.00
H123   H     0.10778   0.49949   0.11133   0.00000  Uiso   1.00
H124   H     0.06046   0.52438   0.25894   0.00000  Uiso   1.00
H125   H     0.07598   0.33244   0.00987   0.00000  Uiso   1.00
H126   H     0.16140   0.63787   0.05073   0.00000  Uiso   1.00
H127   H     0.04818   0.55782   0.44534   0.00000  Uiso   1.00
H128   H     0.08090   0.15313   0.92012   0.00000  Uiso   1.00
H129   H     0.26104   0.79718   0.00629   0.00000  Uiso   1.00
O130   O     0.15520   0.59443   0.62066   0.00000  Uiso   1.00
O131   O     0.19814   0.06349   0.93160   0.00000  Uiso   1.00
O132   O     0.43447   0.90848   0.04465   0.00000  Uiso   1.00
N133   N     0.25742   0.58416   0.53988   0.00000  Uiso   1.00
N134   N     0.28800   0.20579   0.04885   0.00000  Uiso   1.00
N135   N     0.45641   0.80791   0.12938   0.00000  Uiso   1.00
N136   N     0.11475   0.56324   0.45910   0.00000  Uiso   1.00
N137   N     0.14533   0.18487   0.96807   0.00000  Uiso   1.00
N138   N     0.31375   0.78699   0.04860   0.00000  Uiso   1.00
C139   C     0.75437   0.68435   0.48150   0.00000  Uiso   1.00
C140   C     0.69468   0.74343   0.46976   0.00000  Uiso   1.00
C141   C     0.59937   0.71283   0.44976   0.00000  Uiso   1.00
C142   C     0.55757   0.77762   0.44179   0.00000  Uiso   1.00
C143   C     0.45702   0.85536   0.42185   0.00000  Uiso   1.00
C144   C     0.82925   0.73408   0.57820   0.00000  Uiso   1.00
C145   C     0.84709   0.69561   0.64937   0.00000  Uiso   1.00
C146   C     0.91858   0.75253   0.73268   0.00000  Uiso   1.00
C147   C     0.02699   0.81573   0.88107   0.00000  Uiso   1.00
C148   C     0.80448   0.69168   0.41122   0.00000  Uiso   1.00
C149   C     0.80151   0.61757   0.34200   0.00000  Uiso   1.00
C150   C     0.85217   0.63880   0.28475   0.00000  Uiso   1.00
C151   C     0.92212   0.63619   0.17387   0.00000  Uiso   1.00
C152   C     0.84964   0.85383   0.50292   0.00000  Uiso   1.00
C153   C     0.74642   0.83548   0.48140   0.00000  Uiso   1.00
C154   C     0.70476   0.90034   0.47346   0.00000  Uiso   1.00
C155   C     0.60941   0.86984   0.45345   0.00000  Uiso   1.00
C156   C     0.88099   0.82613   0.58984   0.00000  Uiso   1.00
C157   C     0.95248   0.88312   0.67307   0.00000  Uiso   1.00
C158   C     0.97042   0.84475   0.74434   0.00000  Uiso   1.00
C159   C     0.85622   0.78374   0.42285   0.00000  Uiso   1.00
C160   C     0.90690   0.80509   0.36570   0.00000  Uiso   1.00
C161   C     0.90401   0.73102   0.29641   0.00000  Uiso   1.00
H162   H     0.71409   0.61268   0.47244   0.00000  Uiso   1.00
H163   H     0.55935   0.64158   0.44077   0.00000  Uiso   1.00
H164   H     0.80704   0.62436   0.64034   0.00000  Uiso   1.00
H165   H     0.76146   0.54634   0.33302   0.00000  Uiso   1.00
H166   H     0.41061   0.71423   0.41081   0.00000  Uiso   1.00
H167   H     0.93289   0.67792   0.83161   0.00000  Uiso   1.00
H168   H     0.83680   0.51339   0.18357   0.00000  Uiso   1.00
H169   H     0.88992   0.92550   0.51198   0.00000  Uiso   1.00
H170   H     0.74482   0.97157   0.48247   0.00000  Uiso   1.00
H171   H     0.99251   0.95435   0.68205   0.00000  Uiso   1.00
H172   H     0.94694   0.87633   0.37473   0.00000  Uiso   1.00
H173   H     0.56115   0.98206   0.44467   0.00000  Uiso   1.00
H174   H     0.08344   0.94575   0.86546   0.00000  Uiso   1.00
H175   H     0.98733   0.78123   0.21742   0.00000  Uiso   1.00
O176   O     0.38726   0.87282   0.40764   0.00000  Uiso   1.00
O177   O     0.07249   0.82517   0.95971   0.00000  Uiso   1.00
O178   O     0.94640   0.60932   0.10949   0.00000  Uiso   1.00
N179   N     0.46595   0.77094   0.42281   0.00000  Uiso   1.00
N180   N     0.95425   0.73699   0.81624   0.00000  Uiso   1.00
N181   N     0.86442   0.58317   0.21039   0.00000  Uiso   1.00
N182   N     0.54695   0.91506   0.44102   0.00000  Uiso   1.00
N183   N     0.03525   0.88111   0.83445   0.00000  Uiso   1.00
N184   N     0.94542   0.72729   0.22860   0.00000  Uiso   1.00
C185   C     0.47836   0.76844   0.69311   0.00000  Uiso   1.00
C186   C     0.46720   0.70658   0.75458   0.00000  Uiso   1.00
C187   C     0.44623   0.61127   0.72623   0.00000  Uiso   1.00
C188   C     0.43901   0.56730   0.79300   0.00000  Uiso   1.00
C189   C     0.41970   0.46370   0.87451   0.00000  Uiso   1.00
C190   C     0.57486   0.84381   0.74294   0.00000  Uiso   1.00
C191   C     0.64441   0.86389   0.70478   0.00000  Uiso   1.00
C192   C     0.72783   0.93547   0.76174   0.00000  Uiso   1.00
C193   C     0.87564   0.04497   0.82514   0.00000  Uiso   1.00
C194   C     0.40982   0.81758   0.69761   0.00000  Uiso   1.00
C195   C     0.34060   0.81563   0.62135   0.00000  Uiso   1.00
C196   C     0.28507   0.86513   0.64015   0.00000  Uiso   1.00
C197   C     0.17663   0.93390   0.63317   0.00000  Uiso   1.00
C198   C     0.50284   0.85985   0.86210   0.00000  Uiso   1.00
C199   C     0.48050   0.75623   0.84638   0.00000  Uiso   1.00
C200   C     0.47331   0.71240   0.91321   0.00000  Uiso   1.00
C201   C     0.45233   0.61704   0.88496   0.00000  Uiso   1.00
C202   C     0.58816   0.89346   0.83472   0.00000  Uiso   1.00
C203   C     0.67149   0.96503   0.89175   0.00000  Uiso   1.00
C204   C     0.74115   0.98521   0.85370   0.00000  Uiso   1.00
C205   C     0.42311   0.86723   0.78940   0.00000  Uiso   1.00
C206   C     0.36768   0.91675   0.80832   0.00000  Uiso   1.00
C207   C     0.29840   0.91487   0.73210   0.00000  Uiso   1.00
H208   H     0.46802   0.72979   0.62164   0.00000  Uiso   1.00
H209   H     0.43595   0.57287   0.65519   0.00000  Uiso   1.00
H210   H     0.63410   0.82546   0.63374   0.00000  Uiso   1.00
H211   H     0.33034   0.77719   0.55032   0.00000  Uiso   1.00
H212   H     0.40629   0.42080   0.73288   0.00000  Uiso   1.00
H213   H     0.82409   0.95342   0.68763   0.00000  Uiso   1.00
H214   H     0.18355   0.85164   0.51173   0.00000  Uiso   1.00
H215   H     0.51320   0.89851   0.93357   0.00000  Uiso   1.00
H216   H     0.48360   0.75084   0.98424   0.00000  Uiso   1.00
H217   H     0.68176   0.00344   0.96278   0.00000  Uiso   1.00
H218   H     0.37799   0.95517   0.87937   0.00000  Uiso   1.00
H219   H     0.44498   0.56525   0.99994   0.00000  Uiso   1.00
H220   H     0.86277   0.09788   0.95469   0.00000  Uiso   1.00
H221   H     0.22223   0.99610   0.77880   0.00000  Uiso   1.00
O222   O     0.40538   0.39284   0.89412   0.00000  Uiso   1.00
O223   O     0.95351   0.09164   0.83475   0.00000  Uiso   1.00
O224   O     0.11313   0.95810   0.60397   0.00000  Uiso   1.00
N225   N     0.41944   0.47505   0.78877   0.00000  Uiso   1.00
N226   N     0.81006   0.97302   0.74647   0.00000  Uiso   1.00
N227   N     0.21122   0.87788   0.58202   0.00000  Uiso   1.00
N228   N     0.44025   0.55278   0.93248   0.00000  Uiso   1.00
N229   N     0.83087   0.05075   0.89018   0.00000  Uiso   1.00
N230   N     0.23204   0.95561   0.72572   0.00000  Uiso   1.00
C231   C     0.65350   0.46549   0.75348   0.00000  Uiso   1.00
C232   C     0.71291   0.45691   0.69237   0.00000  Uiso   1.00
C233   C     0.68340   0.43805   0.59600   0.00000  Uiso   1.00
C234   C     0.74832   0.43302   0.55299   0.00000  Uiso   1.00
C235   C     0.82672   0.41770   0.45026   0.00000  Uiso   1.00
C236   C     0.70449   0.56120   0.82770   0.00000  Uiso   1.00
C237   C     0.66789   0.63002   0.84510   0.00000  Uiso   1.00
C238   C     0.72572   0.71278   0.91602   0.00000  Uiso   1.00
C239   C     0.79102   0.85935   0.02343   0.00000  Uiso   1.00
C240   C     0.65807   0.39525   0.80549   0.00000  Uiso   1.00
C241   C     0.58245   0.32454   0.80424   0.00000  Uiso   1.00
C242   C     0.60120   0.26760   0.85648   0.00000  Uiso   1.00
C243   C     0.59443   0.15650   0.92940   0.00000  Uiso   1.00
C244   C     0.82127   0.49010   0.84849   0.00000  Uiso   1.00
C245   C     0.80404   0.47028   0.74398   0.00000  Uiso   1.00
C246   C     0.86902   0.46527   0.70110   0.00000  Uiso   1.00
C247   C     0.83961   0.44640   0.60468   0.00000  Uiso   1.00
C248   C     0.79561   0.57457   0.87930   0.00000  Uiso   1.00
C249   C     0.85351   0.65724   0.95021   0.00000  Uiso   1.00
C250   C     0.81701   0.72617   0.96772   0.00000  Uiso   1.00
C251   C     0.74920   0.40861   0.85709   0.00000  Uiso   1.00
C252   C     0.76807   0.35177   0.90934   0.00000  Uiso   1.00
C253   C     0.69249   0.28099   0.90817   0.00000  Uiso   1.00
H254   H     0.58255   0.45509   0.71331   0.00000  Uiso   1.00
H255   H     0.61287   0.42772   0.55609   0.00000  Uiso   1.00
H256   H     0.59736   0.61965   0.80516   0.00000  Uiso   1.00
H257   H     0.51194   0.31422   0.76430   0.00000  Uiso   1.00
H258   H     0.68668   0.40329   0.40454   0.00000  Uiso   1.00
H259   H     0.65397   0.80799   0.92974   0.00000  Uiso   1.00
H260   H     0.47383   0.16393   0.84358   0.00000  Uiso   1.00
H261   H     0.89222   0.50051   0.88867   0.00000  Uiso   1.00
H262   H     0.93954   0.47562   0.74106   0.00000  Uiso   1.00
H263   H     0.92402   0.66756   0.99013   0.00000  Uiso   1.00
H264   H     0.83860   0.36213   0.94927   0.00000  Uiso   1.00
H265   H     0.95182   0.44218   0.55466   0.00000  Uiso   1.00
H266   H     0.91910   0.84687   0.07988   0.00000  Uiso   1.00
H267   H     0.73896   0.20282   0.99371   0.00000  Uiso   1.00
O268   O     0.84480   0.40557   0.37934   0.00000  Uiso   1.00
O269   O     0.80186   0.93651   0.06840   0.00000  Uiso   1.00
O270   O     0.56553   0.09152   0.95535   0.00000  Uiso   1.00
N271   N     0.74258   0.41584   0.46012   0.00000  Uiso   1.00
N272   N     0.71200   0.79421   0.95115   0.00000  Uiso   1.00
N273   N     0.54359   0.19209   0.87062   0.00000  Uiso   1.00
N274   N     0.88525   0.43676   0.54090   0.00000  Uiso   1.00
N275   N     0.85467   0.81513   0.03193   0.00000  Uiso   1.00
N276   N     0.68625   0.21301   0.95140   0.00000  Uiso   1.00
