data_job_03825
_audit_creation_date              2018-12-19
_audit_creation_method            'Materials Studio'
_symmetry_space_group_name_H-M    'P1'
_symmetry_Int_Tables_number       1
_symmetry_cell_setting            triclinic
loop_
_symmetry_equiv_pos_as_xyz
  x,y,z
_cell_length_a                    37.5251
_cell_length_b                    22.0768
_cell_length_c                    9.4238
_cell_angle_alpha                 90.0000
_cell_angle_beta                  84.2705
_cell_angle_gamma                 90.0000
loop_
_atom_site_label
_atom_site_type_symbol
_atom_site_fract_x
_atom_site_fract_y
_atom_site_fract_z
_atom_site_U_iso_or_equiv
_atom_site_adp_type
_atom_site_occupancy
C1     C     0.13425   0.81328   0.27825   0.00000  Uiso   1.00
C2     C     0.16639   0.77340   0.23031   0.00000  Uiso   1.00
C3     C     0.17136   0.74136   0.10318   0.00000  Uiso   1.00
C4     C     0.20255   0.70749   0.07911   0.00000  Uiso   1.00
C5     C     0.24860   0.64580   0.98957   0.00000  Uiso   1.00
C6     C     0.11886   0.78863   0.42269   0.00000  Uiso   1.00
C7     C     0.08386   0.76941   0.45730   0.00000  Uiso   1.00
C8     C     0.07504   0.74837   0.59518   0.00000  Uiso   1.00
C9     C     0.04730   0.71038   0.80433   0.00000  Uiso   1.00
C10    C     0.14941   0.87563   0.30739   0.00000  Uiso   1.00
C11    C     0.14008   0.92957   0.24509   0.00000  Uiso   1.00
C12    C     0.15698   0.98179   0.28593   0.00000  Uiso   1.00
C13    C     0.17666   0.07888   0.31606   0.00000  Uiso   1.00
C14    C     0.18083   0.81011   0.46159   0.00000  Uiso   1.00
C15    C     0.19169   0.77168   0.32990   0.00000  Uiso   1.00
C16    C     0.22289   0.73785   0.30602   0.00000  Uiso   1.00
C17    C     0.22789   0.70577   0.17887   0.00000  Uiso   1.00
C18    C     0.14416   0.78691   0.52227   0.00000  Uiso   1.00
C19    C     0.13539   0.76590   0.66014   0.00000  Uiso   1.00
C20    C     0.10039   0.74665   0.69495   0.00000  Uiso   1.00
C21    C     0.17471   0.87391   0.40697   0.00000  Uiso   1.00
C22    C     0.19162   0.92606   0.44793   0.00000  Uiso   1.00
C23    C     0.18232   0.98007   0.38570   0.00000  Uiso   1.00
H24    H     0.11455   0.81462   0.20073   0.00000  Uiso   1.00
H25    H     0.15177   0.74269   0.02614   0.00000  Uiso   1.00
H26    H     0.06429   0.77075   0.38022   0.00000  Uiso   1.00
H27    H     0.12051   0.93088   0.16803   0.00000  Uiso   1.00
H28    H     0.20418   0.66218   0.87653   0.00000  Uiso   1.00
H29    H     0.01972   0.72135   0.62312   0.00000  Uiso   1.00
H30    H     0.13826   0.05903   0.17569   0.00000  Uiso   1.00
H31    H     0.20052   0.80877   0.53912   0.00000  Uiso   1.00
H32    H     0.24246   0.73653   0.38310   0.00000  Uiso   1.00
H33    H     0.15498   0.76458   0.73718   0.00000  Uiso   1.00
H34    H     0.21119   0.92472   0.52499   0.00000  Uiso   1.00
H35    H     0.27779   0.65717   0.16625   0.00000  Uiso   1.00
H36    H     0.09332   0.71635   0.91285   0.00000  Uiso   1.00
H37    H     0.21187   0.05402   0.46542   0.00000  Uiso   1.00
O38    O     0.26702   0.61224   0.91267   0.00000  Uiso   1.00
O39    O     0.02501   0.68989   0.89218   0.00000  Uiso   1.00
O40    O     0.18053   0.13291   0.30516   0.00000  Uiso   1.00
N41    N     0.21575   0.67093   0.96611   0.00000  Uiso   1.00
N42    N     0.04329   0.72624   0.66413   0.00000  Uiso   1.00
N43    N     0.15411   0.04194   0.24585   0.00000  Uiso   1.00
N44    N     0.25536   0.66823   0.12201   0.00000  Uiso   1.00
N45    N     0.08290   0.72355   0.82002   0.00000  Uiso   1.00
N46    N     0.19372   0.03925   0.40174   0.00000  Uiso   1.00
C47    C     0.63425   0.31328   0.27825   0.00000  Uiso   1.00
C48    C     0.66639   0.27340   0.23031   0.00000  Uiso   1.00
C49    C     0.67136   0.24136   0.10318   0.00000  Uiso   1.00
C50    C     0.70255   0.20749   0.07911   0.00000  Uiso   1.00
C51    C     0.74860   0.14580   0.98957   0.00000  Uiso   1.00
C52    C     0.61886   0.28863   0.42269   0.00000  Uiso   1.00
C53    C     0.58386   0.26941   0.45730   0.00000  Uiso   1.00
C54    C     0.57504   0.24837   0.59518   0.00000  Uiso   1.00
C55    C     0.54730   0.21038   0.80433   0.00000  Uiso   1.00
C56    C     0.64941   0.37563   0.30739   0.00000  Uiso   1.00
C57    C     0.64008   0.42957   0.24509   0.00000  Uiso   1.00
C58    C     0.65698   0.48179   0.28593   0.00000  Uiso   1.00
C59    C     0.67666   0.57888   0.31606   0.00000  Uiso   1.00
C60    C     0.68083   0.31011   0.46159   0.00000  Uiso   1.00
C61    C     0.69169   0.27168   0.32990   0.00000  Uiso   1.00
C62    C     0.72289   0.23785   0.30602   0.00000  Uiso   1.00
C63    C     0.72789   0.20577   0.17887   0.00000  Uiso   1.00
C64    C     0.64416   0.28691   0.52227   0.00000  Uiso   1.00
C65    C     0.63539   0.26590   0.66014   0.00000  Uiso   1.00
C66    C     0.60039   0.24665   0.69495   0.00000  Uiso   1.00
C67    C     0.67471   0.37391   0.40697   0.00000  Uiso   1.00
C68    C     0.69162   0.42606   0.44793   0.00000  Uiso   1.00
C69    C     0.68232   0.48007   0.38570   0.00000  Uiso   1.00
H70    H     0.61455   0.31462   0.20073   0.00000  Uiso   1.00
H71    H     0.65177   0.24269   0.02614   0.00000  Uiso   1.00
H72    H     0.56429   0.27075   0.38022   0.00000  Uiso   1.00
H73    H     0.62051   0.43088   0.16803   0.00000  Uiso   1.00
H74    H     0.70418   0.16218   0.87653   0.00000  Uiso   1.00
H75    H     0.51972   0.22135   0.62312   0.00000  Uiso   1.00
H76    H     0.63826   0.55903   0.17569   0.00000  Uiso   1.00
H77    H     0.70052   0.30877   0.53912   0.00000  Uiso   1.00
H78    H     0.74246   0.23653   0.38310   0.00000  Uiso   1.00
H79    H     0.65498   0.26458   0.73718   0.00000  Uiso   1.00
H80    H     0.71119   0.42472   0.52499   0.00000  Uiso   1.00
H81    H     0.77779   0.15717   0.16625   0.00000  Uiso   1.00
H82    H     0.59332   0.21635   0.91285   0.00000  Uiso   1.00
H83    H     0.71187   0.55402   0.46542   0.00000  Uiso   1.00
O84    O     0.76702   0.11224   0.91267   0.00000  Uiso   1.00
O85    O     0.52501   0.18989   0.89218   0.00000  Uiso   1.00
O86    O     0.68053   0.63291   0.30516   0.00000  Uiso   1.00
N87    N     0.71575   0.17093   0.96611   0.00000  Uiso   1.00
N88    N     0.54329   0.22624   0.66413   0.00000  Uiso   1.00
N89    N     0.65411   0.54194   0.24585   0.00000  Uiso   1.00
N90    N     0.75536   0.16823   0.12201   0.00000  Uiso   1.00
N91    N     0.58290   0.22355   0.82002   0.00000  Uiso   1.00
N92    N     0.69372   0.53925   0.40174   0.00000  Uiso   1.00
C93    C     0.86575   0.81328   0.22175   0.00000  Uiso   1.00
C94    C     0.83361   0.77340   0.26969   0.00000  Uiso   1.00
C95    C     0.82864   0.74136   0.39682   0.00000  Uiso   1.00
C96    C     0.79745   0.70749   0.42089   0.00000  Uiso   1.00
C97    C     0.75140   0.64580   0.51043   0.00000  Uiso   1.00
C98    C     0.88114   0.78863   0.07731   0.00000  Uiso   1.00
C99    C     0.91614   0.76941   0.04270   0.00000  Uiso   1.00
C100   C     0.92496   0.74837   0.90482   0.00000  Uiso   1.00
C101   C     0.95270   0.71038   0.69567   0.00000  Uiso   1.00
C102   C     0.85059   0.87563   0.19261   0.00000  Uiso   1.00
C103   C     0.85992   0.92957   0.25491   0.00000  Uiso   1.00
C104   C     0.84302   0.98179   0.21407   0.00000  Uiso   1.00
C105   C     0.82334   0.07888   0.18394   0.00000  Uiso   1.00
C106   C     0.81917   0.81011   0.03841   0.00000  Uiso   1.00
C107   C     0.80831   0.77168   0.17010   0.00000  Uiso   1.00
C108   C     0.77711   0.73785   0.19398   0.00000  Uiso   1.00
C109   C     0.77211   0.70577   0.32113   0.00000  Uiso   1.00
C110   C     0.85584   0.78691   0.97773   0.00000  Uiso   1.00
C111   C     0.86461   0.76590   0.83986   0.00000  Uiso   1.00
C112   C     0.89961   0.74665   0.80505   0.00000  Uiso   1.00
C113   C     0.82529   0.87391   0.09303   0.00000  Uiso   1.00
C114   C     0.80838   0.92606   0.05207   0.00000  Uiso   1.00
C115   C     0.81768   0.98007   0.11430   0.00000  Uiso   1.00
H116   H     0.88545   0.81462   0.29927   0.00000  Uiso   1.00
H117   H     0.84823   0.74269   0.47386   0.00000  Uiso   1.00
H118   H     0.93571   0.77075   0.11978   0.00000  Uiso   1.00
H119   H     0.87949   0.93088   0.33197   0.00000  Uiso   1.00
H120   H     0.79582   0.66218   0.62347   0.00000  Uiso   1.00
H121   H     0.98028   0.72135   0.87688   0.00000  Uiso   1.00
H122   H     0.86174   0.05903   0.32431   0.00000  Uiso   1.00
H123   H     0.79948   0.80877   0.96088   0.00000  Uiso   1.00
H124   H     0.75754   0.73653   0.11690   0.00000  Uiso   1.00
H125   H     0.84502   0.76458   0.76282   0.00000  Uiso   1.00
H126   H     0.78881   0.92472   0.97501   0.00000  Uiso   1.00
H127   H     0.72221   0.65717   0.33375   0.00000  Uiso   1.00
H128   H     0.90668   0.71635   0.58715   0.00000  Uiso   1.00
H129   H     0.78813   0.05402   0.03458   0.00000  Uiso   1.00
O130   O     0.73298   0.61224   0.58733   0.00000  Uiso   1.00
O131   O     0.97499   0.68989   0.60782   0.00000  Uiso   1.00
O132   O     0.81947   0.13291   0.19484   0.00000  Uiso   1.00
N133   N     0.78425   0.67093   0.53389   0.00000  Uiso   1.00
N134   N     0.95671   0.72624   0.83587   0.00000  Uiso   1.00
N135   N     0.84589   0.04194   0.25415   0.00000  Uiso   1.00
N136   N     0.74464   0.66823   0.37799   0.00000  Uiso   1.00
N137   N     0.91710   0.72355   0.67998   0.00000  Uiso   1.00
N138   N     0.80628   0.03925   0.09826   0.00000  Uiso   1.00
C139   C     0.36575   0.31328   0.22175   0.00000  Uiso   1.00
C140   C     0.33361   0.27340   0.26969   0.00000  Uiso   1.00
C141   C     0.32864   0.24136   0.39682   0.00000  Uiso   1.00
C142   C     0.29745   0.20749   0.42089   0.00000  Uiso   1.00
C143   C     0.25140   0.14580   0.51043   0.00000  Uiso   1.00
C144   C     0.38114   0.28863   0.07731   0.00000  Uiso   1.00
C145   C     0.41614   0.26941   0.04270   0.00000  Uiso   1.00
C146   C     0.42496   0.24837   0.90482   0.00000  Uiso   1.00
C147   C     0.45270   0.21038   0.69567   0.00000  Uiso   1.00
C148   C     0.35059   0.37563   0.19261   0.00000  Uiso   1.00
C149   C     0.35992   0.42957   0.25491   0.00000  Uiso   1.00
C150   C     0.34302   0.48179   0.21407   0.00000  Uiso   1.00
C151   C     0.32334   0.57888   0.18394   0.00000  Uiso   1.00
C152   C     0.31917   0.31011   0.03841   0.00000  Uiso   1.00
C153   C     0.30831   0.27168   0.17010   0.00000  Uiso   1.00
C154   C     0.27711   0.23785   0.19398   0.00000  Uiso   1.00
C155   C     0.27211   0.20577   0.32113   0.00000  Uiso   1.00
C156   C     0.35584   0.28691   0.97773   0.00000  Uiso   1.00
C157   C     0.36461   0.26590   0.83986   0.00000  Uiso   1.00
C158   C     0.39961   0.24665   0.80505   0.00000  Uiso   1.00
C159   C     0.32529   0.37391   0.09303   0.00000  Uiso   1.00
C160   C     0.30838   0.42606   0.05207   0.00000  Uiso   1.00
C161   C     0.31768   0.48007   0.11430   0.00000  Uiso   1.00
H162   H     0.38545   0.31462   0.29927   0.00000  Uiso   1.00
H163   H     0.34823   0.24269   0.47386   0.00000  Uiso   1.00
H164   H     0.43571   0.27075   0.11978   0.00000  Uiso   1.00
H165   H     0.37949   0.43088   0.33197   0.00000  Uiso   1.00
H166   H     0.29582   0.16218   0.62347   0.00000  Uiso   1.00
H167   H     0.48028   0.22135   0.87688   0.00000  Uiso   1.00
H168   H     0.36174   0.55903   0.32431   0.00000  Uiso   1.00
H169   H     0.29948   0.30877   0.96088   0.00000  Uiso   1.00
H170   H     0.25754   0.23653   0.11690   0.00000  Uiso   1.00
H171   H     0.34502   0.26458   0.76282   0.00000  Uiso   1.00
H172   H     0.28881   0.42472   0.97501   0.00000  Uiso   1.00
H173   H     0.22221   0.15717   0.33375   0.00000  Uiso   1.00
H174   H     0.40668   0.21635   0.58715   0.00000  Uiso   1.00
H175   H     0.28813   0.55402   0.03458   0.00000  Uiso   1.00
O176   O     0.23298   0.11224   0.58733   0.00000  Uiso   1.00
O177   O     0.47499   0.18989   0.60782   0.00000  Uiso   1.00
O178   O     0.31947   0.63291   0.19484   0.00000  Uiso   1.00
N179   N     0.28425   0.17093   0.53389   0.00000  Uiso   1.00
N180   N     0.45671   0.22624   0.83587   0.00000  Uiso   1.00
N181   N     0.34589   0.54194   0.25415   0.00000  Uiso   1.00
N182   N     0.24464   0.16823   0.37799   0.00000  Uiso   1.00
N183   N     0.41710   0.22355   0.67998   0.00000  Uiso   1.00
N184   N     0.30628   0.53925   0.09826   0.00000  Uiso   1.00
C185   C     0.86575   0.18672   0.72175   0.00000  Uiso   1.00
C186   C     0.83361   0.22660   0.76969   0.00000  Uiso   1.00
C187   C     0.82864   0.25864   0.89682   0.00000  Uiso   1.00
C188   C     0.79745   0.29251   0.92089   0.00000  Uiso   1.00
C189   C     0.75140   0.35420   0.01043   0.00000  Uiso   1.00
C190   C     0.88114   0.21137   0.57731   0.00000  Uiso   1.00
C191   C     0.91614   0.23059   0.54270   0.00000  Uiso   1.00
C192   C     0.92496   0.25163   0.40482   0.00000  Uiso   1.00
C193   C     0.95270   0.28962   0.19567   0.00000  Uiso   1.00
C194   C     0.85059   0.12437   0.69261   0.00000  Uiso   1.00
C195   C     0.85992   0.07043   0.75491   0.00000  Uiso   1.00
C196   C     0.84302   0.01821   0.71407   0.00000  Uiso   1.00
C197   C     0.82334   0.92112   0.68394   0.00000  Uiso   1.00
C198   C     0.81917   0.18989   0.53841   0.00000  Uiso   1.00
C199   C     0.80831   0.22832   0.67010   0.00000  Uiso   1.00
C200   C     0.77711   0.26215   0.69398   0.00000  Uiso   1.00
C201   C     0.77211   0.29423   0.82113   0.00000  Uiso   1.00
C202   C     0.85584   0.21309   0.47773   0.00000  Uiso   1.00
C203   C     0.86461   0.23410   0.33986   0.00000  Uiso   1.00
C204   C     0.89961   0.25335   0.30505   0.00000  Uiso   1.00
C205   C     0.82529   0.12609   0.59303   0.00000  Uiso   1.00
C206   C     0.80838   0.07394   0.55207   0.00000  Uiso   1.00
C207   C     0.81768   0.01993   0.61430   0.00000  Uiso   1.00
H208   H     0.88545   0.18538   0.79927   0.00000  Uiso   1.00
H209   H     0.84823   0.25731   0.97386   0.00000  Uiso   1.00
H210   H     0.93571   0.22925   0.61978   0.00000  Uiso   1.00
H211   H     0.87949   0.06912   0.83197   0.00000  Uiso   1.00
H212   H     0.79582   0.33782   0.12347   0.00000  Uiso   1.00
H213   H     0.98028   0.27865   0.37688   0.00000  Uiso   1.00
H214   H     0.86174   0.94097   0.82431   0.00000  Uiso   1.00
H215   H     0.79948   0.19123   0.46088   0.00000  Uiso   1.00
H216   H     0.75754   0.26347   0.61690   0.00000  Uiso   1.00
H217   H     0.84502   0.23542   0.26282   0.00000  Uiso   1.00
H218   H     0.78881   0.07528   0.47501   0.00000  Uiso   1.00
H219   H     0.72221   0.34283   0.83375   0.00000  Uiso   1.00
H220   H     0.90668   0.28365   0.08715   0.00000  Uiso   1.00
H221   H     0.78813   0.94598   0.53458   0.00000  Uiso   1.00
O222   O     0.73298   0.38776   0.08733   0.00000  Uiso   1.00
O223   O     0.97499   0.31011   0.10782   0.00000  Uiso   1.00
O224   O     0.81947   0.86709   0.69484   0.00000  Uiso   1.00
N225   N     0.78425   0.32907   0.03389   0.00000  Uiso   1.00
N226   N     0.95671   0.27376   0.33587   0.00000  Uiso   1.00
N227   N     0.84589   0.95806   0.75415   0.00000  Uiso   1.00
N228   N     0.74464   0.33177   0.87799   0.00000  Uiso   1.00
N229   N     0.91710   0.27645   0.17998   0.00000  Uiso   1.00
N230   N     0.80628   0.96075   0.59826   0.00000  Uiso   1.00
C231   C     0.36575   0.68672   0.72175   0.00000  Uiso   1.00
C232   C     0.33361   0.72660   0.76969   0.00000  Uiso   1.00
C233   C     0.32864   0.75864   0.89682   0.00000  Uiso   1.00
C234   C     0.29745   0.79251   0.92089   0.00000  Uiso   1.00
C235   C     0.25140   0.85420   0.01043   0.00000  Uiso   1.00
C236   C     0.38114   0.71137   0.57731   0.00000  Uiso   1.00
C237   C     0.41614   0.73059   0.54270   0.00000  Uiso   1.00
C238   C     0.42496   0.75163   0.40482   0.00000  Uiso   1.00
C239   C     0.45270   0.78962   0.19567   0.00000  Uiso   1.00
C240   C     0.35059   0.62437   0.69261   0.00000  Uiso   1.00
C241   C     0.35992   0.57043   0.75491   0.00000  Uiso   1.00
C242   C     0.34302   0.51821   0.71407   0.00000  Uiso   1.00
C243   C     0.32334   0.42112   0.68394   0.00000  Uiso   1.00
C244   C     0.31917   0.68989   0.53841   0.00000  Uiso   1.00
C245   C     0.30831   0.72832   0.67010   0.00000  Uiso   1.00
C246   C     0.27711   0.76215   0.69398   0.00000  Uiso   1.00
C247   C     0.27211   0.79423   0.82113   0.00000  Uiso   1.00
C248   C     0.35584   0.71309   0.47773   0.00000  Uiso   1.00
C249   C     0.36461   0.73410   0.33986   0.00000  Uiso   1.00
C250   C     0.39961   0.75335   0.30505   0.00000  Uiso   1.00
C251   C     0.32529   0.62609   0.59303   0.00000  Uiso   1.00
C252   C     0.30838   0.57394   0.55207   0.00000  Uiso   1.00
C253   C     0.31768   0.51993   0.61430   0.00000  Uiso   1.00
H254   H     0.38545   0.68538   0.79927   0.00000  Uiso   1.00
H255   H     0.34823   0.75731   0.97386   0.00000  Uiso   1.00
H256   H     0.43571   0.72925   0.61978   0.00000  Uiso   1.00
H257   H     0.37949   0.56912   0.83197   0.00000  Uiso   1.00
H258   H     0.29582   0.83782   0.12347   0.00000  Uiso   1.00
H259   H     0.48028   0.77865   0.37688   0.00000  Uiso   1.00
H260   H     0.36174   0.44097   0.82431   0.00000  Uiso   1.00
H261   H     0.29948   0.69123   0.46088   0.00000  Uiso   1.00
H262   H     0.25754   0.76347   0.61690   0.00000  Uiso   1.00
H263   H     0.34502   0.73542   0.26282   0.00000  Uiso   1.00
H264   H     0.28881   0.57528   0.47501   0.00000  Uiso   1.00
H265   H     0.22221   0.84283   0.83375   0.00000  Uiso   1.00
H266   H     0.40668   0.78365   0.08715   0.00000  Uiso   1.00
H267   H     0.28813   0.44598   0.53458   0.00000  Uiso   1.00
O268   O     0.23298   0.88776   0.08733   0.00000  Uiso   1.00
O269   O     0.47499   0.81011   0.10782   0.00000  Uiso   1.00
O270   O     0.31947   0.36709   0.69484   0.00000  Uiso   1.00
N271   N     0.28425   0.82907   0.03389   0.00000  Uiso   1.00
N272   N     0.45671   0.77376   0.33587   0.00000  Uiso   1.00
N273   N     0.34589   0.45806   0.75415   0.00000  Uiso   1.00
N274   N     0.24464   0.83177   0.87799   0.00000  Uiso   1.00
N275   N     0.41710   0.77645   0.17998   0.00000  Uiso   1.00
N276   N     0.30628   0.46075   0.59826   0.00000  Uiso   1.00
C277   C     0.13425   0.18672   0.77825   0.00000  Uiso   1.00
C278   C     0.16639   0.22660   0.73031   0.00000  Uiso   1.00
C279   C     0.17136   0.25864   0.60318   0.00000  Uiso   1.00
C280   C     0.20255   0.29251   0.57911   0.00000  Uiso   1.00
C281   C     0.24860   0.35420   0.48957   0.00000  Uiso   1.00
C282   C     0.11886   0.21137   0.92269   0.00000  Uiso   1.00
C283   C     0.08386   0.23059   0.95730   0.00000  Uiso   1.00
C284   C     0.07504   0.25163   0.09518   0.00000  Uiso   1.00
C285   C     0.04730   0.28962   0.30433   0.00000  Uiso   1.00
C286   C     0.14941   0.12437   0.80739   0.00000  Uiso   1.00
C287   C     0.14008   0.07043   0.74509   0.00000  Uiso   1.00
C288   C     0.15698   0.01821   0.78593   0.00000  Uiso   1.00
C289   C     0.17666   0.92112   0.81606   0.00000  Uiso   1.00
C290   C     0.18083   0.18989   0.96159   0.00000  Uiso   1.00
C291   C     0.19169   0.22832   0.82990   0.00000  Uiso   1.00
C292   C     0.22289   0.26215   0.80602   0.00000  Uiso   1.00
C293   C     0.22789   0.29423   0.67887   0.00000  Uiso   1.00
C294   C     0.14416   0.21309   0.02227   0.00000  Uiso   1.00
C295   C     0.13539   0.23410   0.16014   0.00000  Uiso   1.00
C296   C     0.10039   0.25335   0.19495   0.00000  Uiso   1.00
C297   C     0.17471   0.12609   0.90697   0.00000  Uiso   1.00
C298   C     0.19162   0.07394   0.94793   0.00000  Uiso   1.00
C299   C     0.18232   0.01993   0.88570   0.00000  Uiso   1.00
H300   H     0.11455   0.18538   0.70073   0.00000  Uiso   1.00
H301   H     0.15177   0.25731   0.52614   0.00000  Uiso   1.00
H302   H     0.06429   0.22925   0.88022   0.00000  Uiso   1.00
H303   H     0.12051   0.06912   0.66803   0.00000  Uiso   1.00
H304   H     0.20418   0.33782   0.37653   0.00000  Uiso   1.00
H305   H     0.01972   0.27865   0.12312   0.00000  Uiso   1.00
H306   H     0.13826   0.94097   0.67569   0.00000  Uiso   1.00
H307   H     0.20052   0.19123   0.03912   0.00000  Uiso   1.00
H308   H     0.24246   0.26347   0.88310   0.00000  Uiso   1.00
H309   H     0.15498   0.23542   0.23718   0.00000  Uiso   1.00
H310   H     0.21119   0.07528   0.02499   0.00000  Uiso   1.00
H311   H     0.27779   0.34283   0.66625   0.00000  Uiso   1.00
H312   H     0.09332   0.28365   0.41285   0.00000  Uiso   1.00
H313   H     0.21187   0.94598   0.96542   0.00000  Uiso   1.00
O314   O     0.26702   0.38776   0.41267   0.00000  Uiso   1.00
O315   O     0.02501   0.31011   0.39218   0.00000  Uiso   1.00
O316   O     0.18053   0.86709   0.80516   0.00000  Uiso   1.00
N317   N     0.21575   0.32907   0.46611   0.00000  Uiso   1.00
N318   N     0.04329   0.27376   0.16413   0.00000  Uiso   1.00
N319   N     0.15411   0.95806   0.74585   0.00000  Uiso   1.00
N320   N     0.25536   0.33177   0.62201   0.00000  Uiso   1.00
N321   N     0.08290   0.27645   0.32002   0.00000  Uiso   1.00
N322   N     0.19372   0.96075   0.90174   0.00000  Uiso   1.00
C323   C     0.63425   0.68672   0.77825   0.00000  Uiso   1.00
C324   C     0.66639   0.72660   0.73031   0.00000  Uiso   1.00
C325   C     0.67136   0.75864   0.60318   0.00000  Uiso   1.00
C326   C     0.70255   0.79251   0.57911   0.00000  Uiso   1.00
C327   C     0.74860   0.85420   0.48957   0.00000  Uiso   1.00
C328   C     0.61886   0.71137   0.92269   0.00000  Uiso   1.00
C329   C     0.58386   0.73059   0.95730   0.00000  Uiso   1.00
C330   C     0.57504   0.75163   0.09518   0.00000  Uiso   1.00
C331   C     0.54730   0.78962   0.30433   0.00000  Uiso   1.00
C332   C     0.64941   0.62437   0.80739   0.00000  Uiso   1.00
C333   C     0.64008   0.57043   0.74509   0.00000  Uiso   1.00
C334   C     0.65698   0.51821   0.78593   0.00000  Uiso   1.00
C335   C     0.67666   0.42112   0.81606   0.00000  Uiso   1.00
C336   C     0.68083   0.68989   0.96159   0.00000  Uiso   1.00
C337   C     0.69169   0.72832   0.82990   0.00000  Uiso   1.00
C338   C     0.72289   0.76215   0.80602   0.00000  Uiso   1.00
C339   C     0.72789   0.79423   0.67887   0.00000  Uiso   1.00
C340   C     0.64416   0.71309   0.02227   0.00000  Uiso   1.00
C341   C     0.63539   0.73410   0.16014   0.00000  Uiso   1.00
C342   C     0.60039   0.75335   0.19495   0.00000  Uiso   1.00
C343   C     0.67471   0.62609   0.90697   0.00000  Uiso   1.00
C344   C     0.69162   0.57394   0.94793   0.00000  Uiso   1.00
C345   C     0.68232   0.51993   0.88570   0.00000  Uiso   1.00
H346   H     0.61455   0.68538   0.70073   0.00000  Uiso   1.00
H347   H     0.65177   0.75731   0.52614   0.00000  Uiso   1.00
H348   H     0.56429   0.72925   0.88022   0.00000  Uiso   1.00
H349   H     0.62051   0.56912   0.66803   0.00000  Uiso   1.00
H350   H     0.70418   0.83782   0.37653   0.00000  Uiso   1.00
H351   H     0.51972   0.77865   0.12312   0.00000  Uiso   1.00
H352   H     0.63826   0.44097   0.67569   0.00000  Uiso   1.00
H353   H     0.70052   0.69123   0.03912   0.00000  Uiso   1.00
H354   H     0.74246   0.76347   0.88310   0.00000  Uiso   1.00
H355   H     0.65498   0.73542   0.23718   0.00000  Uiso   1.00
H356   H     0.71119   0.57528   0.02499   0.00000  Uiso   1.00
H357   H     0.77779   0.84283   0.66625   0.00000  Uiso   1.00
H358   H     0.59332   0.78365   0.41285   0.00000  Uiso   1.00
H359   H     0.71187   0.44598   0.96542   0.00000  Uiso   1.00
O360   O     0.76702   0.88776   0.41267   0.00000  Uiso   1.00
O361   O     0.52501   0.81011   0.39218   0.00000  Uiso   1.00
O362   O     0.68053   0.36709   0.80516   0.00000  Uiso   1.00
N363   N     0.71575   0.82907   0.46611   0.00000  Uiso   1.00
N364   N     0.54329   0.77376   0.16413   0.00000  Uiso   1.00
N365   N     0.65411   0.45806   0.74585   0.00000  Uiso   1.00
N366   N     0.75536   0.83177   0.62201   0.00000  Uiso   1.00
N367   N     0.58290   0.77645   0.32002   0.00000  Uiso   1.00
N368   N     0.69372   0.46075   0.90174   0.00000  Uiso   1.00
