data_job_02213
_audit_creation_date              2018-12-19
_audit_creation_method            'Materials Studio'
_symmetry_space_group_name_H-M    'P1'
_symmetry_Int_Tables_number       1
_symmetry_cell_setting            triclinic
loop_
_symmetry_equiv_pos_as_xyz
  x,y,z
_cell_length_a                    15.3794
_cell_length_b                    19.8967
_cell_length_c                    32.8432
_cell_angle_alpha                 90.0000
_cell_angle_beta                  96.6807
_cell_angle_gamma                 90.0000
loop_
_atom_site_label
_atom_site_type_symbol
_atom_site_fract_x
_atom_site_fract_y
_atom_site_fract_z
_atom_site_U_iso_or_equiv
_atom_site_adp_type
_atom_site_occupancy
C1     C     0.25443   0.32832   0.88100   0.00000  Uiso   1.00
C2     C     0.27033   0.35711   0.83947   0.00000  Uiso   1.00
C3     C     0.34403   0.39256   0.83127   0.00000  Uiso   1.00
C4     C     0.34609   0.41470   0.79130   0.00000  Uiso   1.00
C5     C     0.38127   0.46138   0.73149   0.00000  Uiso   1.00
C6     C     0.16792   0.35819   0.89076   0.00000  Uiso   1.00
C7     C     0.15552   0.39455   0.92568   0.00000  Uiso   1.00
C8     C     0.07138   0.41759   0.92889   0.00000  Uiso   1.00
C9     C     0.94757   0.46592   0.94872   0.00000  Uiso   1.00
C10    C     0.23774   0.25341   0.87412   0.00000  Uiso   1.00
C11    C     0.28403   0.20165   0.89506   0.00000  Uiso   1.00
C12    C     0.25865   0.13647   0.88426   0.00000  Uiso   1.00
C13    C     0.24325   0.02210   0.87825   0.00000  Uiso   1.00
C14    C     0.12704   0.30459   0.82460   0.00000  Uiso   1.00
C15    C     0.20113   0.34422   0.80884   0.00000  Uiso   1.00
C16    C     0.20308   0.36630   0.76888   0.00000  Uiso   1.00
C17    C     0.27677   0.40178   0.76062   0.00000  Uiso   1.00
C18    C     0.09873   0.34530   0.86013   0.00000  Uiso   1.00
C19    C     0.01458   0.36829   0.86329   0.00000  Uiso   1.00
C20    C     0.00206   0.40468   0.89821   0.00000  Uiso   1.00
C21    C     0.16855   0.24051   0.84349   0.00000  Uiso   1.00
C22    C     0.14309   0.17540   0.83266   0.00000  Uiso   1.00
C23    C     0.18933   0.12356   0.85358   0.00000  Uiso   1.00
H24    H     0.30830   0.33836   0.90485   0.00000  Uiso   1.00
H25    H     0.39756   0.40253   0.85498   0.00000  Uiso   1.00
H26    H     0.20908   0.40451   0.94938   0.00000  Uiso   1.00
H27    H     0.33757   0.21165   0.91876   0.00000  Uiso   1.00
H28    H     0.46599   0.46801   0.78620   0.00000  Uiso   1.00
H29    H     0.06857   0.47217   0.98525   0.00000  Uiso   1.00
H30    H     0.33952   0.06548   0.92067   0.00000  Uiso   1.00
H31    H     0.07316   0.29455   0.80076   0.00000  Uiso   1.00
H32    H     0.14952   0.35632   0.74518   0.00000  Uiso   1.00
H33    H     0.96105   0.35830   0.83958   0.00000  Uiso   1.00
H34    H     0.08954   0.16544   0.80896   0.00000  Uiso   1.00
H35    H     0.26467   0.43051   0.69708   0.00000  Uiso   1.00
H36    H     0.86726   0.43467   0.89613   0.00000  Uiso   1.00
H37    H     0.13820   0.02798   0.83155   0.00000  Uiso   1.00
O38    O     0.41979   0.49070   0.70696   0.00000  Uiso   1.00
O39    O     0.89840   0.49615   0.96811   0.00000  Uiso   1.00
O40    O     0.25387   0.96258   0.88338   0.00000  Uiso   1.00
N41    N     0.40814   0.45070   0.77285   0.00000  Uiso   1.00
N42    N     0.03658   0.45460   0.95895   0.00000  Uiso   1.00
N43    N     0.28988   0.07437   0.89858   0.00000  Uiso   1.00
N44    N     0.29981   0.43052   0.72489   0.00000  Uiso   1.00
N45    N     0.92825   0.43442   0.91099   0.00000  Uiso   1.00
N46    N     0.18155   0.05419   0.85063   0.00000  Uiso   1.00
C47    C     0.75443   0.82832   0.88100   0.00000  Uiso   1.00
C48    C     0.77033   0.85711   0.83947   0.00000  Uiso   1.00
C49    C     0.84403   0.89256   0.83127   0.00000  Uiso   1.00
C50    C     0.84609   0.91470   0.79130   0.00000  Uiso   1.00
C51    C     0.88127   0.96138   0.73149   0.00000  Uiso   1.00
C52    C     0.66792   0.85819   0.89076   0.00000  Uiso   1.00
C53    C     0.65552   0.89455   0.92568   0.00000  Uiso   1.00
C54    C     0.57138   0.91759   0.92889   0.00000  Uiso   1.00
C55    C     0.44757   0.96592   0.94872   0.00000  Uiso   1.00
C56    C     0.73774   0.75341   0.87412   0.00000  Uiso   1.00
C57    C     0.78403   0.70165   0.89506   0.00000  Uiso   1.00
C58    C     0.75865   0.63647   0.88426   0.00000  Uiso   1.00
C59    C     0.74325   0.52210   0.87825   0.00000  Uiso   1.00
C60    C     0.62704   0.80459   0.82460   0.00000  Uiso   1.00
C61    C     0.70113   0.84422   0.80884   0.00000  Uiso   1.00
C62    C     0.70308   0.86630   0.76888   0.00000  Uiso   1.00
C63    C     0.77677   0.90178   0.76062   0.00000  Uiso   1.00
C64    C     0.59873   0.84530   0.86013   0.00000  Uiso   1.00
C65    C     0.51458   0.86829   0.86329   0.00000  Uiso   1.00
C66    C     0.50206   0.90468   0.89821   0.00000  Uiso   1.00
C67    C     0.66855   0.74051   0.84349   0.00000  Uiso   1.00
C68    C     0.64309   0.67540   0.83266   0.00000  Uiso   1.00
C69    C     0.68933   0.62356   0.85358   0.00000  Uiso   1.00
H70    H     0.80830   0.83836   0.90485   0.00000  Uiso   1.00
H71    H     0.89756   0.90253   0.85498   0.00000  Uiso   1.00
H72    H     0.70908   0.90451   0.94938   0.00000  Uiso   1.00
H73    H     0.83757   0.71165   0.91876   0.00000  Uiso   1.00
H74    H     0.96599   0.96801   0.78620   0.00000  Uiso   1.00
H75    H     0.56857   0.97217   0.98525   0.00000  Uiso   1.00
H76    H     0.83952   0.56548   0.92067   0.00000  Uiso   1.00
H77    H     0.57316   0.79455   0.80076   0.00000  Uiso   1.00
H78    H     0.64952   0.85632   0.74518   0.00000  Uiso   1.00
H79    H     0.46105   0.85830   0.83958   0.00000  Uiso   1.00
H80    H     0.58954   0.66544   0.80896   0.00000  Uiso   1.00
H81    H     0.76467   0.93051   0.69708   0.00000  Uiso   1.00
H82    H     0.36726   0.93467   0.89613   0.00000  Uiso   1.00
H83    H     0.63820   0.52798   0.83155   0.00000  Uiso   1.00
O84    O     0.91979   0.99070   0.70696   0.00000  Uiso   1.00
O85    O     0.39840   0.99615   0.96811   0.00000  Uiso   1.00
O86    O     0.75387   0.46258   0.88338   0.00000  Uiso   1.00
N87    N     0.90814   0.95070   0.77285   0.00000  Uiso   1.00
N88    N     0.53658   0.95460   0.95895   0.00000  Uiso   1.00
N89    N     0.78988   0.57437   0.89858   0.00000  Uiso   1.00
N90    N     0.79981   0.93052   0.72489   0.00000  Uiso   1.00
N91    N     0.42825   0.93442   0.91099   0.00000  Uiso   1.00
N92    N     0.68155   0.55419   0.85063   0.00000  Uiso   1.00
C93    C     0.74557   0.32832   0.61900   0.00000  Uiso   1.00
C94    C     0.72967   0.35711   0.66053   0.00000  Uiso   1.00
C95    C     0.65597   0.39256   0.66873   0.00000  Uiso   1.00
C96    C     0.65391   0.41470   0.70870   0.00000  Uiso   1.00
C97    C     0.61873   0.46138   0.76851   0.00000  Uiso   1.00
C98    C     0.83208   0.35819   0.60924   0.00000  Uiso   1.00
C99    C     0.84448   0.39455   0.57432   0.00000  Uiso   1.00
C100   C     0.92862   0.41759   0.57111   0.00000  Uiso   1.00
C101   C     0.05243   0.46592   0.55128   0.00000  Uiso   1.00
C102   C     0.76226   0.25341   0.62588   0.00000  Uiso   1.00
C103   C     0.71597   0.20165   0.60494   0.00000  Uiso   1.00
C104   C     0.74135   0.13647   0.61574   0.00000  Uiso   1.00
C105   C     0.75675   0.02210   0.62175   0.00000  Uiso   1.00
C106   C     0.87296   0.30459   0.67540   0.00000  Uiso   1.00
C107   C     0.79887   0.34422   0.69116   0.00000  Uiso   1.00
C108   C     0.79692   0.36630   0.73112   0.00000  Uiso   1.00
C109   C     0.72323   0.40178   0.73938   0.00000  Uiso   1.00
C110   C     0.90127   0.34530   0.63987   0.00000  Uiso   1.00
C111   C     0.98542   0.36829   0.63671   0.00000  Uiso   1.00
C112   C     0.99794   0.40468   0.60179   0.00000  Uiso   1.00
C113   C     0.83145   0.24051   0.65651   0.00000  Uiso   1.00
C114   C     0.85691   0.17540   0.66734   0.00000  Uiso   1.00
C115   C     0.81067   0.12356   0.64642   0.00000  Uiso   1.00
H116   H     0.69170   0.33836   0.59515   0.00000  Uiso   1.00
H117   H     0.60244   0.40253   0.64502   0.00000  Uiso   1.00
H118   H     0.79092   0.40451   0.55062   0.00000  Uiso   1.00
H119   H     0.66243   0.21165   0.58124   0.00000  Uiso   1.00
H120   H     0.53401   0.46801   0.71380   0.00000  Uiso   1.00
H121   H     0.93143   0.47217   0.51475   0.00000  Uiso   1.00
H122   H     0.66048   0.06548   0.57933   0.00000  Uiso   1.00
H123   H     0.92684   0.29455   0.69924   0.00000  Uiso   1.00
H124   H     0.85048   0.35632   0.75482   0.00000  Uiso   1.00
H125   H     0.03895   0.35830   0.66042   0.00000  Uiso   1.00
H126   H     0.91046   0.16544   0.69104   0.00000  Uiso   1.00
H127   H     0.73533   0.43051   0.80292   0.00000  Uiso   1.00
H128   H     0.13274   0.43467   0.60387   0.00000  Uiso   1.00
H129   H     0.86180   0.02798   0.66845   0.00000  Uiso   1.00
O130   O     0.58021   0.49070   0.79304   0.00000  Uiso   1.00
O131   O     0.10160   0.49615   0.53189   0.00000  Uiso   1.00
O132   O     0.74613   0.96258   0.61662   0.00000  Uiso   1.00
N133   N     0.59186   0.45070   0.72715   0.00000  Uiso   1.00
N134   N     0.96342   0.45460   0.54105   0.00000  Uiso   1.00
N135   N     0.71012   0.07437   0.60142   0.00000  Uiso   1.00
N136   N     0.70019   0.43052   0.77511   0.00000  Uiso   1.00
N137   N     0.07175   0.43442   0.58901   0.00000  Uiso   1.00
N138   N     0.81845   0.05419   0.64937   0.00000  Uiso   1.00
C139   C     0.24557   0.82832   0.61900   0.00000  Uiso   1.00
C140   C     0.22967   0.85711   0.66053   0.00000  Uiso   1.00
C141   C     0.15597   0.89256   0.66873   0.00000  Uiso   1.00
C142   C     0.15391   0.91470   0.70870   0.00000  Uiso   1.00
C143   C     0.11873   0.96138   0.76851   0.00000  Uiso   1.00
C144   C     0.33208   0.85819   0.60924   0.00000  Uiso   1.00
C145   C     0.34448   0.89455   0.57432   0.00000  Uiso   1.00
C146   C     0.42862   0.91759   0.57111   0.00000  Uiso   1.00
C147   C     0.55243   0.96592   0.55128   0.00000  Uiso   1.00
C148   C     0.26226   0.75341   0.62588   0.00000  Uiso   1.00
C149   C     0.21597   0.70165   0.60494   0.00000  Uiso   1.00
C150   C     0.24135   0.63647   0.61574   0.00000  Uiso   1.00
C151   C     0.25675   0.52210   0.62175   0.00000  Uiso   1.00
C152   C     0.37296   0.80459   0.67540   0.00000  Uiso   1.00
C153   C     0.29887   0.84422   0.69116   0.00000  Uiso   1.00
C154   C     0.29692   0.86630   0.73112   0.00000  Uiso   1.00
C155   C     0.22323   0.90178   0.73938   0.00000  Uiso   1.00
C156   C     0.40127   0.84530   0.63987   0.00000  Uiso   1.00
C157   C     0.48542   0.86829   0.63671   0.00000  Uiso   1.00
C158   C     0.49794   0.90468   0.60179   0.00000  Uiso   1.00
C159   C     0.33145   0.74051   0.65651   0.00000  Uiso   1.00
C160   C     0.35691   0.67540   0.66734   0.00000  Uiso   1.00
C161   C     0.31067   0.62356   0.64642   0.00000  Uiso   1.00
H162   H     0.19170   0.83836   0.59515   0.00000  Uiso   1.00
H163   H     0.10244   0.90253   0.64502   0.00000  Uiso   1.00
H164   H     0.29092   0.90451   0.55062   0.00000  Uiso   1.00
H165   H     0.16243   0.71165   0.58124   0.00000  Uiso   1.00
H166   H     0.03401   0.96801   0.71380   0.00000  Uiso   1.00
H167   H     0.43143   0.97217   0.51475   0.00000  Uiso   1.00
H168   H     0.16048   0.56548   0.57933   0.00000  Uiso   1.00
H169   H     0.42684   0.79455   0.69924   0.00000  Uiso   1.00
H170   H     0.35048   0.85632   0.75482   0.00000  Uiso   1.00
H171   H     0.53895   0.85830   0.66042   0.00000  Uiso   1.00
H172   H     0.41046   0.66544   0.69104   0.00000  Uiso   1.00
H173   H     0.23533   0.93051   0.80292   0.00000  Uiso   1.00
H174   H     0.63274   0.93467   0.60387   0.00000  Uiso   1.00
H175   H     0.36180   0.52798   0.66845   0.00000  Uiso   1.00
O176   O     0.08021   0.99070   0.79304   0.00000  Uiso   1.00
O177   O     0.60160   0.99615   0.53189   0.00000  Uiso   1.00
O178   O     0.24613   0.46258   0.61662   0.00000  Uiso   1.00
N179   N     0.09186   0.95070   0.72715   0.00000  Uiso   1.00
N180   N     0.46342   0.95460   0.54105   0.00000  Uiso   1.00
N181   N     0.21012   0.57437   0.60142   0.00000  Uiso   1.00
N182   N     0.20019   0.93052   0.77511   0.00000  Uiso   1.00
N183   N     0.57175   0.93442   0.58901   0.00000  Uiso   1.00
N184   N     0.31845   0.55419   0.64937   0.00000  Uiso   1.00
C185   C     0.74557   0.67168   0.11900   0.00000  Uiso   1.00
C186   C     0.72967   0.64289   0.16053   0.00000  Uiso   1.00
C187   C     0.65597   0.60744   0.16873   0.00000  Uiso   1.00
C188   C     0.65391   0.58530   0.20870   0.00000  Uiso   1.00
C189   C     0.61873   0.53862   0.26851   0.00000  Uiso   1.00
C190   C     0.83208   0.64181   0.10924   0.00000  Uiso   1.00
C191   C     0.84448   0.60545   0.07432   0.00000  Uiso   1.00
C192   C     0.92862   0.58241   0.07111   0.00000  Uiso   1.00
C193   C     0.05243   0.53408   0.05128   0.00000  Uiso   1.00
C194   C     0.76226   0.74659   0.12588   0.00000  Uiso   1.00
C195   C     0.71597   0.79835   0.10494   0.00000  Uiso   1.00
C196   C     0.74135   0.86353   0.11574   0.00000  Uiso   1.00
C197   C     0.75675   0.97790   0.12175   0.00000  Uiso   1.00
C198   C     0.87296   0.69541   0.17540   0.00000  Uiso   1.00
C199   C     0.79887   0.65578   0.19116   0.00000  Uiso   1.00
C200   C     0.79692   0.63370   0.23112   0.00000  Uiso   1.00
C201   C     0.72323   0.59822   0.23938   0.00000  Uiso   1.00
C202   C     0.90127   0.65470   0.13987   0.00000  Uiso   1.00
C203   C     0.98542   0.63171   0.13671   0.00000  Uiso   1.00
C204   C     0.99794   0.59532   0.10179   0.00000  Uiso   1.00
C205   C     0.83145   0.75949   0.15651   0.00000  Uiso   1.00
C206   C     0.85691   0.82460   0.16734   0.00000  Uiso   1.00
C207   C     0.81067   0.87644   0.14642   0.00000  Uiso   1.00
H208   H     0.69170   0.66164   0.09515   0.00000  Uiso   1.00
H209   H     0.60244   0.59747   0.14502   0.00000  Uiso   1.00
H210   H     0.79092   0.59549   0.05062   0.00000  Uiso   1.00
H211   H     0.66243   0.78835   0.08124   0.00000  Uiso   1.00
H212   H     0.53401   0.53199   0.21380   0.00000  Uiso   1.00
H213   H     0.93143   0.52783   0.01475   0.00000  Uiso   1.00
H214   H     0.66048   0.93452   0.07933   0.00000  Uiso   1.00
H215   H     0.92684   0.70545   0.19924   0.00000  Uiso   1.00
H216   H     0.85048   0.64368   0.25482   0.00000  Uiso   1.00
H217   H     0.03895   0.64170   0.16042   0.00000  Uiso   1.00
H218   H     0.91046   0.83456   0.19104   0.00000  Uiso   1.00
H219   H     0.73533   0.56949   0.30292   0.00000  Uiso   1.00
H220   H     0.13274   0.56533   0.10387   0.00000  Uiso   1.00
H221   H     0.86180   0.97202   0.16845   0.00000  Uiso   1.00
O222   O     0.58021   0.50930   0.29304   0.00000  Uiso   1.00
O223   O     0.10160   0.50385   0.03189   0.00000  Uiso   1.00
O224   O     0.74613   0.03742   0.11662   0.00000  Uiso   1.00
N225   N     0.59186   0.54930   0.22715   0.00000  Uiso   1.00
N226   N     0.96342   0.54540   0.04105   0.00000  Uiso   1.00
N227   N     0.71012   0.92563   0.10142   0.00000  Uiso   1.00
N228   N     0.70019   0.56948   0.27511   0.00000  Uiso   1.00
N229   N     0.07175   0.56558   0.08901   0.00000  Uiso   1.00
N230   N     0.81845   0.94581   0.14937   0.00000  Uiso   1.00
C231   C     0.24557   0.17168   0.11900   0.00000  Uiso   1.00
C232   C     0.22967   0.14289   0.16053   0.00000  Uiso   1.00
C233   C     0.15597   0.10744   0.16873   0.00000  Uiso   1.00
C234   C     0.15391   0.08530   0.20870   0.00000  Uiso   1.00
C235   C     0.11873   0.03862   0.26851   0.00000  Uiso   1.00
C236   C     0.33208   0.14181   0.10924   0.00000  Uiso   1.00
C237   C     0.34448   0.10545   0.07432   0.00000  Uiso   1.00
C238   C     0.42862   0.08241   0.07111   0.00000  Uiso   1.00
C239   C     0.55243   0.03408   0.05128   0.00000  Uiso   1.00
C240   C     0.26226   0.24659   0.12588   0.00000  Uiso   1.00
C241   C     0.21597   0.29835   0.10494   0.00000  Uiso   1.00
C242   C     0.24135   0.36353   0.11574   0.00000  Uiso   1.00
C243   C     0.25675   0.47790   0.12175   0.00000  Uiso   1.00
C244   C     0.37296   0.19541   0.17540   0.00000  Uiso   1.00
C245   C     0.29887   0.15578   0.19116   0.00000  Uiso   1.00
C246   C     0.29692   0.13370   0.23112   0.00000  Uiso   1.00
C247   C     0.22323   0.09822   0.23938   0.00000  Uiso   1.00
C248   C     0.40127   0.15470   0.13987   0.00000  Uiso   1.00
C249   C     0.48542   0.13171   0.13671   0.00000  Uiso   1.00
C250   C     0.49794   0.09532   0.10179   0.00000  Uiso   1.00
C251   C     0.33145   0.25949   0.15651   0.00000  Uiso   1.00
C252   C     0.35691   0.32460   0.16734   0.00000  Uiso   1.00
C253   C     0.31067   0.37644   0.14642   0.00000  Uiso   1.00
H254   H     0.19170   0.16164   0.09515   0.00000  Uiso   1.00
H255   H     0.10244   0.09747   0.14502   0.00000  Uiso   1.00
H256   H     0.29092   0.09549   0.05062   0.00000  Uiso   1.00
H257   H     0.16243   0.28835   0.08124   0.00000  Uiso   1.00
H258   H     0.03401   0.03199   0.21380   0.00000  Uiso   1.00
H259   H     0.43143   0.02783   0.01475   0.00000  Uiso   1.00
H260   H     0.16048   0.43452   0.07933   0.00000  Uiso   1.00
H261   H     0.42684   0.20545   0.19924   0.00000  Uiso   1.00
H262   H     0.35048   0.14368   0.25482   0.00000  Uiso   1.00
H263   H     0.53895   0.14170   0.16042   0.00000  Uiso   1.00
H264   H     0.41046   0.33456   0.19104   0.00000  Uiso   1.00
H265   H     0.23533   0.06949   0.30292   0.00000  Uiso   1.00
H266   H     0.63274   0.06533   0.10387   0.00000  Uiso   1.00
H267   H     0.36180   0.47202   0.16845   0.00000  Uiso   1.00
O268   O     0.08021   0.00930   0.29304   0.00000  Uiso   1.00
O269   O     0.60160   0.00385   0.03189   0.00000  Uiso   1.00
O270   O     0.24613   0.53742   0.11662   0.00000  Uiso   1.00
N271   N     0.09186   0.04930   0.22715   0.00000  Uiso   1.00
N272   N     0.46342   0.04540   0.04105   0.00000  Uiso   1.00
N273   N     0.21012   0.42563   0.10142   0.00000  Uiso   1.00
N274   N     0.20019   0.06948   0.27511   0.00000  Uiso   1.00
N275   N     0.57175   0.06558   0.08901   0.00000  Uiso   1.00
N276   N     0.31845   0.44581   0.14937   0.00000  Uiso   1.00
C277   C     0.25443   0.67168   0.38100   0.00000  Uiso   1.00
C278   C     0.27033   0.64289   0.33947   0.00000  Uiso   1.00
C279   C     0.34403   0.60744   0.33127   0.00000  Uiso   1.00
C280   C     0.34609   0.58530   0.29130   0.00000  Uiso   1.00
C281   C     0.38127   0.53862   0.23149   0.00000  Uiso   1.00
C282   C     0.16792   0.64181   0.39076   0.00000  Uiso   1.00
C283   C     0.15552   0.60545   0.42568   0.00000  Uiso   1.00
C284   C     0.07138   0.58241   0.42889   0.00000  Uiso   1.00
C285   C     0.94757   0.53408   0.44872   0.00000  Uiso   1.00
C286   C     0.23774   0.74659   0.37412   0.00000  Uiso   1.00
C287   C     0.28403   0.79835   0.39506   0.00000  Uiso   1.00
C288   C     0.25865   0.86353   0.38426   0.00000  Uiso   1.00
C289   C     0.24325   0.97790   0.37825   0.00000  Uiso   1.00
C290   C     0.12704   0.69541   0.32460   0.00000  Uiso   1.00
C291   C     0.20113   0.65578   0.30884   0.00000  Uiso   1.00
C292   C     0.20308   0.63370   0.26888   0.00000  Uiso   1.00
C293   C     0.27677   0.59822   0.26062   0.00000  Uiso   1.00
C294   C     0.09873   0.65470   0.36013   0.00000  Uiso   1.00
C295   C     0.01458   0.63171   0.36329   0.00000  Uiso   1.00
C296   C     0.00206   0.59532   0.39821   0.00000  Uiso   1.00
C297   C     0.16855   0.75949   0.34349   0.00000  Uiso   1.00
C298   C     0.14309   0.82460   0.33266   0.00000  Uiso   1.00
C299   C     0.18933   0.87644   0.35358   0.00000  Uiso   1.00
H300   H     0.30830   0.66164   0.40485   0.00000  Uiso   1.00
H301   H     0.39756   0.59747   0.35498   0.00000  Uiso   1.00
H302   H     0.20908   0.59549   0.44938   0.00000  Uiso   1.00
H303   H     0.33757   0.78835   0.41876   0.00000  Uiso   1.00
H304   H     0.46599   0.53199   0.28620   0.00000  Uiso   1.00
H305   H     0.06857   0.52783   0.48525   0.00000  Uiso   1.00
H306   H     0.33952   0.93452   0.42067   0.00000  Uiso   1.00
H307   H     0.07316   0.70545   0.30076   0.00000  Uiso   1.00
H308   H     0.14952   0.64368   0.24518   0.00000  Uiso   1.00
H309   H     0.96105   0.64170   0.33958   0.00000  Uiso   1.00
H310   H     0.08954   0.83456   0.30896   0.00000  Uiso   1.00
H311   H     0.26467   0.56949   0.19708   0.00000  Uiso   1.00
H312   H     0.86726   0.56533   0.39613   0.00000  Uiso   1.00
H313   H     0.13820   0.97202   0.33155   0.00000  Uiso   1.00
O314   O     0.41979   0.50930   0.20696   0.00000  Uiso   1.00
O315   O     0.89840   0.50385   0.46811   0.00000  Uiso   1.00
O316   O     0.25387   0.03742   0.38338   0.00000  Uiso   1.00
N317   N     0.40814   0.54930   0.27285   0.00000  Uiso   1.00
N318   N     0.03658   0.54540   0.45895   0.00000  Uiso   1.00
N319   N     0.28988   0.92563   0.39858   0.00000  Uiso   1.00
N320   N     0.29981   0.56948   0.22489   0.00000  Uiso   1.00
N321   N     0.92825   0.56558   0.41099   0.00000  Uiso   1.00
N322   N     0.18155   0.94581   0.35063   0.00000  Uiso   1.00
C323   C     0.75443   0.17168   0.38100   0.00000  Uiso   1.00
C324   C     0.77033   0.14289   0.33947   0.00000  Uiso   1.00
C325   C     0.84403   0.10744   0.33127   0.00000  Uiso   1.00
C326   C     0.84609   0.08530   0.29130   0.00000  Uiso   1.00
C327   C     0.88127   0.03862   0.23149   0.00000  Uiso   1.00
C328   C     0.66792   0.14181   0.39076   0.00000  Uiso   1.00
C329   C     0.65552   0.10545   0.42568   0.00000  Uiso   1.00
C330   C     0.57138   0.08241   0.42889   0.00000  Uiso   1.00
C331   C     0.44757   0.03408   0.44872   0.00000  Uiso   1.00
C332   C     0.73774   0.24659   0.37412   0.00000  Uiso   1.00
C333   C     0.78403   0.29835   0.39506   0.00000  Uiso   1.00
C334   C     0.75865   0.36353   0.38426   0.00000  Uiso   1.00
C335   C     0.74325   0.47790   0.37825   0.00000  Uiso   1.00
C336   C     0.62704   0.19541   0.32460   0.00000  Uiso   1.00
C337   C     0.70113   0.15578   0.30884   0.00000  Uiso   1.00
C338   C     0.70308   0.13370   0.26888   0.00000  Uiso   1.00
C339   C     0.77677   0.09822   0.26062   0.00000  Uiso   1.00
C340   C     0.59873   0.15470   0.36013   0.00000  Uiso   1.00
C341   C     0.51458   0.13171   0.36329   0.00000  Uiso   1.00
C342   C     0.50206   0.09532   0.39821   0.00000  Uiso   1.00
C343   C     0.66855   0.25949   0.34349   0.00000  Uiso   1.00
C344   C     0.64309   0.32460   0.33266   0.00000  Uiso   1.00
C345   C     0.68933   0.37644   0.35358   0.00000  Uiso   1.00
H346   H     0.80830   0.16164   0.40485   0.00000  Uiso   1.00
H347   H     0.89756   0.09747   0.35498   0.00000  Uiso   1.00
H348   H     0.70908   0.09549   0.44938   0.00000  Uiso   1.00
H349   H     0.83757   0.28835   0.41876   0.00000  Uiso   1.00
H350   H     0.96599   0.03199   0.28620   0.00000  Uiso   1.00
H351   H     0.56857   0.02783   0.48525   0.00000  Uiso   1.00
H352   H     0.83952   0.43452   0.42067   0.00000  Uiso   1.00
H353   H     0.57316   0.20545   0.30076   0.00000  Uiso   1.00
H354   H     0.64952   0.14368   0.24518   0.00000  Uiso   1.00
H355   H     0.46105   0.14170   0.33958   0.00000  Uiso   1.00
H356   H     0.58954   0.33456   0.30896   0.00000  Uiso   1.00
H357   H     0.76467   0.06949   0.19708   0.00000  Uiso   1.00
H358   H     0.36726   0.06533   0.39613   0.00000  Uiso   1.00
H359   H     0.63820   0.47202   0.33155   0.00000  Uiso   1.00
O360   O     0.91979   0.00930   0.20696   0.00000  Uiso   1.00
O361   O     0.39840   0.00385   0.46811   0.00000  Uiso   1.00
O362   O     0.75387   0.53742   0.38338   0.00000  Uiso   1.00
N363   N     0.90814   0.04930   0.27285   0.00000  Uiso   1.00
N364   N     0.53658   0.04540   0.45895   0.00000  Uiso   1.00
N365   N     0.78988   0.42563   0.39858   0.00000  Uiso   1.00
N366   N     0.79981   0.06948   0.22489   0.00000  Uiso   1.00
N367   N     0.42825   0.06558   0.41099   0.00000  Uiso   1.00
N368   N     0.68155   0.44581   0.35063   0.00000  Uiso   1.00
