data_job_01224
_audit_creation_date              2018-12-19
_audit_creation_method            'Materials Studio'
_symmetry_space_group_name_H-M    'P1'
_symmetry_Int_Tables_number       1
_symmetry_cell_setting            triclinic
loop_
_symmetry_equiv_pos_as_xyz
  x,y,z
_cell_length_a                    38.5898
_cell_length_b                    19.7062
_cell_length_c                    24.4850
_cell_angle_alpha                 90.0000
_cell_angle_beta                  147.1247
_cell_angle_gamma                 90.0000
loop_
_atom_site_label
_atom_site_type_symbol
_atom_site_fract_x
_atom_site_fract_y
_atom_site_fract_z
_atom_site_U_iso_or_equiv
_atom_site_adp_type
_atom_site_occupancy
C1     C     0.19145   0.18752   0.79637   0.00000  Uiso   1.00
C2     C     0.15382   0.25278   0.73738   0.00000  Uiso   1.00
C3     C     0.17724   0.31819   0.77470   0.00000  Uiso   1.00
C4     C     0.13523   0.37115   0.70875   0.00000  Uiso   1.00
C5     C     0.08640   0.47431   0.63233   0.00000  Uiso   1.00
C6     C     0.15389   0.14686   0.78879   0.00000  Uiso   1.00
C7     C     0.17738   0.12320   0.86935   0.00000  Uiso   1.00
C8     C     0.13543   0.08699   0.84667   0.00000  Uiso   1.00
C9     C     0.08672   0.02567   0.85006   0.00000  Uiso   1.00
C10    C     0.18697   0.14768   0.73720   0.00000  Uiso   1.00
C11    C     0.23827   0.12470   0.77437   0.00000  Uiso   1.00
C12    C     0.22418   0.08917   0.70826   0.00000  Uiso   1.00
C13    C     0.22684   0.02913   0.63154   0.00000  Uiso   1.00
C14    C     0.07520   0.16527   0.61288   0.00000  Uiso   1.00
C15    C     0.09068   0.24069   0.63772   0.00000  Uiso   1.00
C16    C     0.04863   0.29356   0.57169   0.00000  Uiso   1.00
C17    C     0.07198   0.35904   0.60890   0.00000  Uiso   1.00
C18    C     0.09075   0.13477   0.68913   0.00000  Uiso   1.00
C19    C     0.04877   0.09858   0.66633   0.00000  Uiso   1.00
C20    C     0.07218   0.07488   0.74682   0.00000  Uiso   1.00
C21    C     0.12383   0.13560   0.63753   0.00000  Uiso   1.00
C22    C     0.10966   0.10009   0.57135   0.00000  Uiso   1.00
C23    C     0.16093   0.07706   0.60841   0.00000  Uiso   1.00
H24    H     0.24060   0.19693   0.87397   0.00000  Uiso   1.00
H25    H     0.22610   0.32752   0.85184   0.00000  Uiso   1.00
H26    H     0.22624   0.13256   0.94647   0.00000  Uiso   1.00
H27    H     0.28713   0.13407   0.85150   0.00000  Uiso   1.00
H28    H     0.18217   0.46697   0.78337   0.00000  Uiso   1.00
H29    H     0.18247   0.05587   0.98289   0.00000  Uiso   1.00
H30    H     0.31086   0.05904   0.78264   0.00000  Uiso   1.00
H31    H     0.02605   0.15586   0.53528   0.00000  Uiso   1.00
H32    H     0.99977   0.28419   0.49456   0.00000  Uiso   1.00
H33    H     0.99991   0.08923   0.58919   0.00000  Uiso   1.00
H34    H     0.06080   0.09074   0.49423   0.00000  Uiso   1.00
H35    H     0.99847   0.43180   0.49339   0.00000  Uiso   1.00
H36    H     0.99877   0.02070   0.69291   0.00000  Uiso   1.00
H37    H     0.12716   0.02387   0.49266   0.00000  Uiso   1.00
O38    O     0.07690   0.53455   0.61771   0.00000  Uiso   1.00
O39    O     0.07730   0.99519   0.87948   0.00000  Uiso   1.00
O40    O     0.24575   0.99936   0.61676   0.00000  Uiso   1.00
N41    N     0.14255   0.44108   0.72070   0.00000  Uiso   1.00
N42    N     0.14283   0.05673   0.90724   0.00000  Uiso   1.00
N43    N     0.26286   0.05968   0.72004   0.00000  Uiso   1.00
N44    N     0.04370   0.42216   0.56467   0.00000  Uiso   1.00
N45    N     0.04398   0.03781   0.75120   0.00000  Uiso   1.00
N46    N     0.16401   0.04076   0.56400   0.00000  Uiso   1.00
C47    C     0.69145   0.68752   0.79637   0.00000  Uiso   1.00
C48    C     0.65382   0.75278   0.73738   0.00000  Uiso   1.00
C49    C     0.67724   0.81819   0.77470   0.00000  Uiso   1.00
C50    C     0.63523   0.87115   0.70875   0.00000  Uiso   1.00
C51    C     0.58640   0.97431   0.63233   0.00000  Uiso   1.00
C52    C     0.65389   0.64686   0.78879   0.00000  Uiso   1.00
C53    C     0.67738   0.62320   0.86935   0.00000  Uiso   1.00
C54    C     0.63543   0.58699   0.84667   0.00000  Uiso   1.00
C55    C     0.58672   0.52567   0.85006   0.00000  Uiso   1.00
C56    C     0.68697   0.64768   0.73720   0.00000  Uiso   1.00
C57    C     0.73827   0.62470   0.77437   0.00000  Uiso   1.00
C58    C     0.72418   0.58917   0.70826   0.00000  Uiso   1.00
C59    C     0.72684   0.52913   0.63154   0.00000  Uiso   1.00
C60    C     0.57520   0.66527   0.61288   0.00000  Uiso   1.00
C61    C     0.59068   0.74069   0.63772   0.00000  Uiso   1.00
C62    C     0.54863   0.79356   0.57169   0.00000  Uiso   1.00
C63    C     0.57198   0.85904   0.60890   0.00000  Uiso   1.00
C64    C     0.59075   0.63477   0.68913   0.00000  Uiso   1.00
C65    C     0.54877   0.59858   0.66633   0.00000  Uiso   1.00
C66    C     0.57218   0.57488   0.74682   0.00000  Uiso   1.00
C67    C     0.62383   0.63560   0.63753   0.00000  Uiso   1.00
C68    C     0.60966   0.60009   0.57135   0.00000  Uiso   1.00
C69    C     0.66093   0.57706   0.60841   0.00000  Uiso   1.00
H70    H     0.74060   0.69693   0.87397   0.00000  Uiso   1.00
H71    H     0.72610   0.82752   0.85184   0.00000  Uiso   1.00
H72    H     0.72624   0.63256   0.94647   0.00000  Uiso   1.00
H73    H     0.78713   0.63407   0.85150   0.00000  Uiso   1.00
H74    H     0.68217   0.96697   0.78337   0.00000  Uiso   1.00
H75    H     0.68247   0.55587   0.98289   0.00000  Uiso   1.00
H76    H     0.81086   0.55904   0.78264   0.00000  Uiso   1.00
H77    H     0.52605   0.65586   0.53528   0.00000  Uiso   1.00
H78    H     0.49977   0.78419   0.49456   0.00000  Uiso   1.00
H79    H     0.49991   0.58923   0.58919   0.00000  Uiso   1.00
H80    H     0.56080   0.59074   0.49423   0.00000  Uiso   1.00
H81    H     0.49847   0.93180   0.49339   0.00000  Uiso   1.00
H82    H     0.49877   0.52070   0.69291   0.00000  Uiso   1.00
H83    H     0.62716   0.52387   0.49266   0.00000  Uiso   1.00
O84    O     0.57690   0.03455   0.61771   0.00000  Uiso   1.00
O85    O     0.57730   0.49519   0.87948   0.00000  Uiso   1.00
O86    O     0.74575   0.49936   0.61676   0.00000  Uiso   1.00
N87    N     0.64255   0.94108   0.72070   0.00000  Uiso   1.00
N88    N     0.64283   0.55673   0.90724   0.00000  Uiso   1.00
N89    N     0.76286   0.55968   0.72004   0.00000  Uiso   1.00
N90    N     0.54370   0.92216   0.56467   0.00000  Uiso   1.00
N91    N     0.54398   0.53781   0.75120   0.00000  Uiso   1.00
N92    N     0.66401   0.54076   0.56400   0.00000  Uiso   1.00
C93    C     0.80855   0.18752   0.70363   0.00000  Uiso   1.00
C94    C     0.84618   0.25278   0.76262   0.00000  Uiso   1.00
C95    C     0.82276   0.31819   0.72530   0.00000  Uiso   1.00
C96    C     0.86477   0.37115   0.79125   0.00000  Uiso   1.00
C97    C     0.91360   0.47431   0.86767   0.00000  Uiso   1.00
C98    C     0.84611   0.14686   0.71121   0.00000  Uiso   1.00
C99    C     0.82262   0.12320   0.63065   0.00000  Uiso   1.00
C100   C     0.86457   0.08699   0.65333   0.00000  Uiso   1.00
C101   C     0.91328   0.02567   0.64994   0.00000  Uiso   1.00
C102   C     0.81303   0.14768   0.76280   0.00000  Uiso   1.00
C103   C     0.76173   0.12470   0.72563   0.00000  Uiso   1.00
C104   C     0.77582   0.08917   0.79174   0.00000  Uiso   1.00
C105   C     0.77316   0.02913   0.86846   0.00000  Uiso   1.00
C106   C     0.92480   0.16527   0.88712   0.00000  Uiso   1.00
C107   C     0.90932   0.24069   0.86228   0.00000  Uiso   1.00
C108   C     0.95137   0.29356   0.92831   0.00000  Uiso   1.00
C109   C     0.92802   0.35904   0.89110   0.00000  Uiso   1.00
C110   C     0.90925   0.13477   0.81087   0.00000  Uiso   1.00
C111   C     0.95123   0.09858   0.83367   0.00000  Uiso   1.00
C112   C     0.92782   0.07488   0.75318   0.00000  Uiso   1.00
C113   C     0.87617   0.13560   0.86247   0.00000  Uiso   1.00
C114   C     0.89034   0.10009   0.92865   0.00000  Uiso   1.00
C115   C     0.83907   0.07706   0.89159   0.00000  Uiso   1.00
H116   H     0.75940   0.19693   0.62603   0.00000  Uiso   1.00
H117   H     0.77390   0.32752   0.64816   0.00000  Uiso   1.00
H118   H     0.77376   0.13256   0.55353   0.00000  Uiso   1.00
H119   H     0.71287   0.13407   0.64850   0.00000  Uiso   1.00
H120   H     0.81783   0.46697   0.71663   0.00000  Uiso   1.00
H121   H     0.81753   0.05587   0.51711   0.00000  Uiso   1.00
H122   H     0.68914   0.05904   0.71736   0.00000  Uiso   1.00
H123   H     0.97395   0.15586   0.96472   0.00000  Uiso   1.00
H124   H     0.00023   0.28419   0.00544   0.00000  Uiso   1.00
H125   H     0.00009   0.08923   0.91081   0.00000  Uiso   1.00
H126   H     0.93920   0.09074   0.00577   0.00000  Uiso   1.00
H127   H     0.00153   0.43180   0.00661   0.00000  Uiso   1.00
H128   H     0.00123   0.02070   0.80709   0.00000  Uiso   1.00
H129   H     0.87284   0.02387   0.00734   0.00000  Uiso   1.00
O130   O     0.92310   0.53455   0.88229   0.00000  Uiso   1.00
O131   O     0.92270   0.99519   0.62052   0.00000  Uiso   1.00
O132   O     0.75425   0.99936   0.88324   0.00000  Uiso   1.00
N133   N     0.85745   0.44108   0.77930   0.00000  Uiso   1.00
N134   N     0.85717   0.05673   0.59276   0.00000  Uiso   1.00
N135   N     0.73714   0.05968   0.77996   0.00000  Uiso   1.00
N136   N     0.95630   0.42216   0.93533   0.00000  Uiso   1.00
N137   N     0.95602   0.03781   0.74880   0.00000  Uiso   1.00
N138   N     0.83599   0.04076   0.93600   0.00000  Uiso   1.00
C139   C     0.30855   0.68752   0.70363   0.00000  Uiso   1.00
C140   C     0.34618   0.75278   0.76262   0.00000  Uiso   1.00
C141   C     0.32276   0.81819   0.72530   0.00000  Uiso   1.00
C142   C     0.36477   0.87115   0.79125   0.00000  Uiso   1.00
C143   C     0.41360   0.97431   0.86767   0.00000  Uiso   1.00
C144   C     0.34611   0.64686   0.71121   0.00000  Uiso   1.00
C145   C     0.32262   0.62320   0.63065   0.00000  Uiso   1.00
C146   C     0.36457   0.58699   0.65333   0.00000  Uiso   1.00
C147   C     0.41328   0.52567   0.64994   0.00000  Uiso   1.00
C148   C     0.31303   0.64768   0.76280   0.00000  Uiso   1.00
C149   C     0.26173   0.62470   0.72563   0.00000  Uiso   1.00
C150   C     0.27582   0.58917   0.79174   0.00000  Uiso   1.00
C151   C     0.27316   0.52913   0.86846   0.00000  Uiso   1.00
C152   C     0.42480   0.66527   0.88712   0.00000  Uiso   1.00
C153   C     0.40932   0.74069   0.86228   0.00000  Uiso   1.00
C154   C     0.45137   0.79356   0.92831   0.00000  Uiso   1.00
C155   C     0.42802   0.85904   0.89110   0.00000  Uiso   1.00
C156   C     0.40925   0.63477   0.81087   0.00000  Uiso   1.00
C157   C     0.45123   0.59858   0.83367   0.00000  Uiso   1.00
C158   C     0.42782   0.57488   0.75318   0.00000  Uiso   1.00
C159   C     0.37617   0.63560   0.86247   0.00000  Uiso   1.00
C160   C     0.39034   0.60009   0.92865   0.00000  Uiso   1.00
C161   C     0.33907   0.57706   0.89159   0.00000  Uiso   1.00
H162   H     0.25940   0.69693   0.62603   0.00000  Uiso   1.00
H163   H     0.27390   0.82752   0.64816   0.00000  Uiso   1.00
H164   H     0.27376   0.63256   0.55353   0.00000  Uiso   1.00
H165   H     0.21287   0.63407   0.64850   0.00000  Uiso   1.00
H166   H     0.31783   0.96697   0.71663   0.00000  Uiso   1.00
H167   H     0.31753   0.55587   0.51711   0.00000  Uiso   1.00
H168   H     0.18914   0.55904   0.71736   0.00000  Uiso   1.00
H169   H     0.47395   0.65586   0.96472   0.00000  Uiso   1.00
H170   H     0.50023   0.78419   0.00544   0.00000  Uiso   1.00
H171   H     0.50009   0.58923   0.91081   0.00000  Uiso   1.00
H172   H     0.43920   0.59074   0.00577   0.00000  Uiso   1.00
H173   H     0.50153   0.93180   0.00661   0.00000  Uiso   1.00
H174   H     0.50123   0.52070   0.80709   0.00000  Uiso   1.00
H175   H     0.37284   0.52387   0.00734   0.00000  Uiso   1.00
O176   O     0.42310   0.03455   0.88229   0.00000  Uiso   1.00
O177   O     0.42270   0.49519   0.62052   0.00000  Uiso   1.00
O178   O     0.25425   0.49936   0.88324   0.00000  Uiso   1.00
N179   N     0.35745   0.94108   0.77930   0.00000  Uiso   1.00
N180   N     0.35717   0.55673   0.59276   0.00000  Uiso   1.00
N181   N     0.23714   0.55968   0.77996   0.00000  Uiso   1.00
N182   N     0.45630   0.92216   0.93533   0.00000  Uiso   1.00
N183   N     0.45602   0.53781   0.74880   0.00000  Uiso   1.00
N184   N     0.33599   0.54076   0.93600   0.00000  Uiso   1.00
C185   C     0.80855   0.81248   0.20363   0.00000  Uiso   1.00
C186   C     0.84618   0.74722   0.26262   0.00000  Uiso   1.00
C187   C     0.82276   0.68181   0.22530   0.00000  Uiso   1.00
C188   C     0.86477   0.62885   0.29125   0.00000  Uiso   1.00
C189   C     0.91360   0.52569   0.36767   0.00000  Uiso   1.00
C190   C     0.84611   0.85314   0.21121   0.00000  Uiso   1.00
C191   C     0.82262   0.87680   0.13065   0.00000  Uiso   1.00
C192   C     0.86457   0.91301   0.15333   0.00000  Uiso   1.00
C193   C     0.91328   0.97433   0.14994   0.00000  Uiso   1.00
C194   C     0.81303   0.85232   0.26280   0.00000  Uiso   1.00
C195   C     0.76173   0.87530   0.22563   0.00000  Uiso   1.00
C196   C     0.77582   0.91083   0.29174   0.00000  Uiso   1.00
C197   C     0.77316   0.97087   0.36846   0.00000  Uiso   1.00
C198   C     0.92480   0.83473   0.38712   0.00000  Uiso   1.00
C199   C     0.90932   0.75931   0.36228   0.00000  Uiso   1.00
C200   C     0.95137   0.70644   0.42831   0.00000  Uiso   1.00
C201   C     0.92802   0.64096   0.39110   0.00000  Uiso   1.00
C202   C     0.90925   0.86523   0.31087   0.00000  Uiso   1.00
C203   C     0.95123   0.90142   0.33367   0.00000  Uiso   1.00
C204   C     0.92782   0.92512   0.25318   0.00000  Uiso   1.00
C205   C     0.87617   0.86440   0.36247   0.00000  Uiso   1.00
C206   C     0.89034   0.89991   0.42865   0.00000  Uiso   1.00
C207   C     0.83907   0.92294   0.39159   0.00000  Uiso   1.00
H208   H     0.75940   0.80307   0.12603   0.00000  Uiso   1.00
H209   H     0.77390   0.67248   0.14816   0.00000  Uiso   1.00
H210   H     0.77376   0.86744   0.05353   0.00000  Uiso   1.00
H211   H     0.71287   0.86593   0.14850   0.00000  Uiso   1.00
H212   H     0.81783   0.53303   0.21663   0.00000  Uiso   1.00
H213   H     0.81753   0.94413   0.01711   0.00000  Uiso   1.00
H214   H     0.68914   0.94096   0.21736   0.00000  Uiso   1.00
H215   H     0.97395   0.84414   0.46472   0.00000  Uiso   1.00
H216   H     0.00023   0.71581   0.50544   0.00000  Uiso   1.00
H217   H     0.00009   0.91077   0.41081   0.00000  Uiso   1.00
H218   H     0.93920   0.90926   0.50577   0.00000  Uiso   1.00
H219   H     0.00153   0.56820   0.50661   0.00000  Uiso   1.00
H220   H     0.00123   0.97930   0.30709   0.00000  Uiso   1.00
H221   H     0.87284   0.97613   0.50734   0.00000  Uiso   1.00
O222   O     0.92310   0.46545   0.38229   0.00000  Uiso   1.00
O223   O     0.92270   0.00481   0.12052   0.00000  Uiso   1.00
O224   O     0.75425   0.00064   0.38324   0.00000  Uiso   1.00
N225   N     0.85745   0.55892   0.27930   0.00000  Uiso   1.00
N226   N     0.85717   0.94327   0.09276   0.00000  Uiso   1.00
N227   N     0.73714   0.94032   0.27996   0.00000  Uiso   1.00
N228   N     0.95630   0.57784   0.43533   0.00000  Uiso   1.00
N229   N     0.95602   0.96219   0.24880   0.00000  Uiso   1.00
N230   N     0.83599   0.95924   0.43600   0.00000  Uiso   1.00
C231   C     0.30855   0.31248   0.20363   0.00000  Uiso   1.00
C232   C     0.34618   0.24722   0.26262   0.00000  Uiso   1.00
C233   C     0.32276   0.18181   0.22530   0.00000  Uiso   1.00
C234   C     0.36477   0.12885   0.29125   0.00000  Uiso   1.00
C235   C     0.41360   0.02569   0.36767   0.00000  Uiso   1.00
C236   C     0.34611   0.35314   0.21121   0.00000  Uiso   1.00
C237   C     0.32262   0.37680   0.13065   0.00000  Uiso   1.00
C238   C     0.36457   0.41301   0.15333   0.00000  Uiso   1.00
C239   C     0.41328   0.47433   0.14994   0.00000  Uiso   1.00
C240   C     0.31303   0.35232   0.26280   0.00000  Uiso   1.00
C241   C     0.26173   0.37530   0.22563   0.00000  Uiso   1.00
C242   C     0.27582   0.41083   0.29174   0.00000  Uiso   1.00
C243   C     0.27316   0.47087   0.36846   0.00000  Uiso   1.00
C244   C     0.42480   0.33473   0.38712   0.00000  Uiso   1.00
C245   C     0.40932   0.25931   0.36228   0.00000  Uiso   1.00
C246   C     0.45137   0.20644   0.42831   0.00000  Uiso   1.00
C247   C     0.42802   0.14096   0.39110   0.00000  Uiso   1.00
C248   C     0.40925   0.36523   0.31087   0.00000  Uiso   1.00
C249   C     0.45123   0.40142   0.33367   0.00000  Uiso   1.00
C250   C     0.42782   0.42512   0.25318   0.00000  Uiso   1.00
C251   C     0.37617   0.36440   0.36247   0.00000  Uiso   1.00
C252   C     0.39034   0.39991   0.42865   0.00000  Uiso   1.00
C253   C     0.33907   0.42294   0.39159   0.00000  Uiso   1.00
H254   H     0.25940   0.30307   0.12603   0.00000  Uiso   1.00
H255   H     0.27390   0.17248   0.14816   0.00000  Uiso   1.00
H256   H     0.27376   0.36744   0.05353   0.00000  Uiso   1.00
H257   H     0.21287   0.36593   0.14850   0.00000  Uiso   1.00
H258   H     0.31783   0.03303   0.21663   0.00000  Uiso   1.00
H259   H     0.31753   0.44413   0.01711   0.00000  Uiso   1.00
H260   H     0.18914   0.44096   0.21736   0.00000  Uiso   1.00
H261   H     0.47395   0.34414   0.46472   0.00000  Uiso   1.00
H262   H     0.50023   0.21581   0.50544   0.00000  Uiso   1.00
H263   H     0.50009   0.41077   0.41081   0.00000  Uiso   1.00
H264   H     0.43920   0.40926   0.50577   0.00000  Uiso   1.00
H265   H     0.50153   0.06820   0.50661   0.00000  Uiso   1.00
H266   H     0.50123   0.47930   0.30709   0.00000  Uiso   1.00
H267   H     0.37284   0.47613   0.50734   0.00000  Uiso   1.00
O268   O     0.42310   0.96545   0.38229   0.00000  Uiso   1.00
O269   O     0.42270   0.50481   0.12052   0.00000  Uiso   1.00
O270   O     0.25425   0.50064   0.38324   0.00000  Uiso   1.00
N271   N     0.35745   0.05892   0.27930   0.00000  Uiso   1.00
N272   N     0.35717   0.44327   0.09276   0.00000  Uiso   1.00
N273   N     0.23714   0.44032   0.27996   0.00000  Uiso   1.00
N274   N     0.45630   0.07784   0.43533   0.00000  Uiso   1.00
N275   N     0.45602   0.46219   0.24880   0.00000  Uiso   1.00
N276   N     0.33599   0.45924   0.43600   0.00000  Uiso   1.00
C277   C     0.19145   0.81248   0.29637   0.00000  Uiso   1.00
C278   C     0.15382   0.74722   0.23738   0.00000  Uiso   1.00
C279   C     0.17724   0.68181   0.27470   0.00000  Uiso   1.00
C280   C     0.13523   0.62885   0.20875   0.00000  Uiso   1.00
C281   C     0.08640   0.52569   0.13233   0.00000  Uiso   1.00
C282   C     0.15389   0.85314   0.28879   0.00000  Uiso   1.00
C283   C     0.17738   0.87680   0.36935   0.00000  Uiso   1.00
C284   C     0.13543   0.91301   0.34667   0.00000  Uiso   1.00
C285   C     0.08672   0.97433   0.35006   0.00000  Uiso   1.00
C286   C     0.18697   0.85232   0.23720   0.00000  Uiso   1.00
C287   C     0.23827   0.87530   0.27437   0.00000  Uiso   1.00
C288   C     0.22418   0.91083   0.20826   0.00000  Uiso   1.00
C289   C     0.22684   0.97087   0.13154   0.00000  Uiso   1.00
C290   C     0.07520   0.83473   0.11288   0.00000  Uiso   1.00
C291   C     0.09068   0.75931   0.13772   0.00000  Uiso   1.00
C292   C     0.04863   0.70644   0.07169   0.00000  Uiso   1.00
C293   C     0.07198   0.64096   0.10890   0.00000  Uiso   1.00
C294   C     0.09075   0.86523   0.18913   0.00000  Uiso   1.00
C295   C     0.04877   0.90142   0.16633   0.00000  Uiso   1.00
C296   C     0.07218   0.92512   0.24682   0.00000  Uiso   1.00
C297   C     0.12383   0.86440   0.13753   0.00000  Uiso   1.00
C298   C     0.10966   0.89991   0.07135   0.00000  Uiso   1.00
C299   C     0.16093   0.92294   0.10841   0.00000  Uiso   1.00
H300   H     0.24060   0.80307   0.37397   0.00000  Uiso   1.00
H301   H     0.22610   0.67248   0.35184   0.00000  Uiso   1.00
H302   H     0.22624   0.86744   0.44647   0.00000  Uiso   1.00
H303   H     0.28713   0.86593   0.35150   0.00000  Uiso   1.00
H304   H     0.18217   0.53303   0.28337   0.00000  Uiso   1.00
H305   H     0.18247   0.94413   0.48289   0.00000  Uiso   1.00
H306   H     0.31086   0.94096   0.28264   0.00000  Uiso   1.00
H307   H     0.02605   0.84414   0.03528   0.00000  Uiso   1.00
H308   H     0.99977   0.71581   0.99456   0.00000  Uiso   1.00
H309   H     0.99991   0.91077   0.08919   0.00000  Uiso   1.00
H310   H     0.06080   0.90926   0.99423   0.00000  Uiso   1.00
H311   H     0.99847   0.56820   0.99339   0.00000  Uiso   1.00
H312   H     0.99877   0.97930   0.19291   0.00000  Uiso   1.00
H313   H     0.12716   0.97613   0.99266   0.00000  Uiso   1.00
O314   O     0.07690   0.46545   0.11771   0.00000  Uiso   1.00
O315   O     0.07730   0.00481   0.37948   0.00000  Uiso   1.00
O316   O     0.24575   0.00064   0.11676   0.00000  Uiso   1.00
N317   N     0.14255   0.55892   0.22070   0.00000  Uiso   1.00
N318   N     0.14283   0.94327   0.40724   0.00000  Uiso   1.00
N319   N     0.26286   0.94032   0.22004   0.00000  Uiso   1.00
N320   N     0.04370   0.57784   0.06467   0.00000  Uiso   1.00
N321   N     0.04398   0.96219   0.25120   0.00000  Uiso   1.00
N322   N     0.16401   0.95924   0.06400   0.00000  Uiso   1.00
C323   C     0.69145   0.31248   0.29637   0.00000  Uiso   1.00
C324   C     0.65382   0.24722   0.23738   0.00000  Uiso   1.00
C325   C     0.67724   0.18181   0.27470   0.00000  Uiso   1.00
C326   C     0.63523   0.12885   0.20875   0.00000  Uiso   1.00
C327   C     0.58640   0.02569   0.13233   0.00000  Uiso   1.00
C328   C     0.65389   0.35314   0.28879   0.00000  Uiso   1.00
C329   C     0.67738   0.37680   0.36935   0.00000  Uiso   1.00
C330   C     0.63543   0.41301   0.34667   0.00000  Uiso   1.00
C331   C     0.58672   0.47433   0.35006   0.00000  Uiso   1.00
C332   C     0.68697   0.35232   0.23720   0.00000  Uiso   1.00
C333   C     0.73827   0.37530   0.27437   0.00000  Uiso   1.00
C334   C     0.72418   0.41083   0.20826   0.00000  Uiso   1.00
C335   C     0.72684   0.47087   0.13154   0.00000  Uiso   1.00
C336   C     0.57520   0.33473   0.11288   0.00000  Uiso   1.00
C337   C     0.59068   0.25931   0.13772   0.00000  Uiso   1.00
C338   C     0.54863   0.20644   0.07169   0.00000  Uiso   1.00
C339   C     0.57198   0.14096   0.10890   0.00000  Uiso   1.00
C340   C     0.59075   0.36523   0.18913   0.00000  Uiso   1.00
C341   C     0.54877   0.40142   0.16633   0.00000  Uiso   1.00
C342   C     0.57218   0.42512   0.24682   0.00000  Uiso   1.00
C343   C     0.62383   0.36440   0.13753   0.00000  Uiso   1.00
C344   C     0.60966   0.39991   0.07135   0.00000  Uiso   1.00
C345   C     0.66093   0.42294   0.10841   0.00000  Uiso   1.00
H346   H     0.74060   0.30307   0.37397   0.00000  Uiso   1.00
H347   H     0.72610   0.17248   0.35184   0.00000  Uiso   1.00
H348   H     0.72624   0.36744   0.44647   0.00000  Uiso   1.00
H349   H     0.78713   0.36593   0.35150   0.00000  Uiso   1.00
H350   H     0.68217   0.03303   0.28337   0.00000  Uiso   1.00
H351   H     0.68247   0.44413   0.48289   0.00000  Uiso   1.00
H352   H     0.81086   0.44096   0.28264   0.00000  Uiso   1.00
H353   H     0.52605   0.34414   0.03528   0.00000  Uiso   1.00
H354   H     0.49977   0.21581   0.99456   0.00000  Uiso   1.00
H355   H     0.49991   0.41077   0.08919   0.00000  Uiso   1.00
H356   H     0.56080   0.40926   0.99423   0.00000  Uiso   1.00
H357   H     0.49847   0.06820   0.99339   0.00000  Uiso   1.00
H358   H     0.49877   0.47930   0.19291   0.00000  Uiso   1.00
H359   H     0.62716   0.47613   0.99266   0.00000  Uiso   1.00
O360   O     0.57690   0.96545   0.11771   0.00000  Uiso   1.00
O361   O     0.57730   0.50481   0.37948   0.00000  Uiso   1.00
O362   O     0.74575   0.50064   0.11676   0.00000  Uiso   1.00
N363   N     0.64255   0.05892   0.22070   0.00000  Uiso   1.00
N364   N     0.64283   0.44327   0.40724   0.00000  Uiso   1.00
N365   N     0.76286   0.44032   0.22004   0.00000  Uiso   1.00
N366   N     0.54370   0.07784   0.06467   0.00000  Uiso   1.00
N367   N     0.54398   0.46219   0.25120   0.00000  Uiso   1.00
N368   N     0.66401   0.45924   0.06400   0.00000  Uiso   1.00
