data_job_02499
_audit_creation_date              2018-12-19
_audit_creation_method            'Materials Studio'
_symmetry_space_group_name_H-M    'P1'
_symmetry_Int_Tables_number       1
_symmetry_cell_setting            triclinic
loop_
_symmetry_equiv_pos_as_xyz
  x,y,z
_cell_length_a                    11.9272
_cell_length_b                    11.9272
_cell_length_c                    41.4261
_cell_angle_alpha                 90.0000
_cell_angle_beta                  90.0000
_cell_angle_gamma                 90.0000
loop_
_atom_site_label
_atom_site_type_symbol
_atom_site_fract_x
_atom_site_fract_y
_atom_site_fract_z
_atom_site_U_iso_or_equiv
_atom_site_adp_type
_atom_site_occupancy
C1     C     0.05375   0.64532   0.33461   0.00000  Uiso   1.00
C2     C     0.93307   0.64597   0.32246   0.00000  Uiso   1.00
C3     C     0.86468   0.55257   0.31908   0.00000  Uiso   1.00
C4     C     0.75688   0.57073   0.30756   0.00000  Uiso   1.00
C5     C     0.57527   0.55535   0.28987   0.00000  Uiso   1.00
C6     C     0.12356   0.70052   0.30818   0.00000  Uiso   1.00
C7     C     0.21535   0.65298   0.29279   0.00000  Uiso   1.00
C8     C     0.26791   0.71707   0.26926   0.00000  Uiso   1.00
C9     C     0.38210   0.78640   0.22942   0.00000  Uiso   1.00
C10    C     0.05678   0.72539   0.36329   0.00000  Uiso   1.00
C11    C     0.09245   0.69877   0.39425   0.00000  Uiso   1.00
C12    C     0.08882   0.78381   0.41711   0.00000  Uiso   1.00
C13    C     0.09932   0.89175   0.46284   0.00000  Uiso   1.00
C14    C     0.98392   0.84366   0.32017   0.00000  Uiso   1.00
C15    C     0.89514   0.75370   0.31462   0.00000  Uiso   1.00
C16    C     0.78741   0.77201   0.30311   0.00000  Uiso   1.00
C17    C     0.71887   0.67866   0.29971   0.00000  Uiso   1.00
C18    C     0.08563   0.80824   0.30034   0.00000  Uiso   1.00
C19    C     0.13808   0.87242   0.27682   0.00000  Uiso   1.00
C20    C     0.22991   0.82499   0.26140   0.00000  Uiso   1.00
C21    C     0.01885   0.83312   0.35545   0.00000  Uiso   1.00
C22    C     0.01517   0.91821   0.37828   0.00000  Uiso   1.00
C23    C     0.05082   0.89173   0.40926   0.00000  Uiso   1.00
H24    H     0.08329   0.56145   0.34071   0.00000  Uiso   1.00
H25    H     0.89407   0.46921   0.32514   0.00000  Uiso   1.00
H26    H     0.24469   0.56961   0.29887   0.00000  Uiso   1.00
H27    H     0.12180   0.61540   0.40030   0.00000  Uiso   1.00
H28    H     0.66757   0.41446   0.30442   0.00000  Uiso   1.00
H29    H     0.40689   0.62617   0.24902   0.00000  Uiso   1.00
H30    H     0.14776   0.72272   0.46292   0.00000  Uiso   1.00
H31    H     0.95438   0.92754   0.31407   0.00000  Uiso   1.00
H32    H     0.75808   0.85539   0.29704   0.00000  Uiso   1.00
H33    H     0.10870   0.95579   0.27076   0.00000  Uiso   1.00
H34    H     0.98581   0.00157   0.37220   0.00000  Uiso   1.00
H35    H     0.55719   0.72789   0.28161   0.00000  Uiso   1.00
H36    H     0.29652   0.93960   0.22621   0.00000  Uiso   1.00
H37    H     0.03738   0.03615   0.44011   0.00000  Uiso   1.00
O38    O     0.48558   0.51711   0.28228   0.00000  Uiso   1.00
O39    O     0.45556   0.79487   0.20961   0.00000  Uiso   1.00
O40    O     0.11557   0.92153   0.49024   0.00000  Uiso   1.00
N41    N     0.66852   0.49813   0.30139   0.00000  Uiso   1.00
N42    N     0.35973   0.69606   0.24959   0.00000  Uiso   1.00
N43    N     0.11749   0.78633   0.44957   0.00000  Uiso   1.00
N44    N     0.60913   0.66679   0.28912   0.00000  Uiso   1.00
N45    N     0.30034   0.86472   0.23732   0.00000  Uiso   1.00
N46    N     0.05810   0.95498   0.43730   0.00000  Uiso   1.00
C47    C     0.15302   0.63555   0.67481   0.00000  Uiso   1.00
C48    C     0.17246   0.51706   0.68745   0.00000  Uiso   1.00
C49    C     0.09185   0.44837   0.70133   0.00000  Uiso   1.00
C50    C     0.12639   0.34282   0.71137   0.00000  Uiso   1.00
C51    C     0.13967   0.16425   0.73158   0.00000  Uiso   1.00
C52    C     0.23622   0.71027   0.69265   0.00000  Uiso   1.00
C53    C     0.20923   0.80404   0.71090   0.00000  Uiso   1.00
C54    C     0.29746   0.86114   0.72532   0.00000  Uiso   1.00
C55    C     0.40974   0.98258   0.75359   0.00000  Uiso   1.00
C56    C     0.19065   0.63457   0.63963   0.00000  Uiso   1.00
C57    C     0.12535   0.66473   0.61330   0.00000  Uiso   1.00
C58    C     0.17522   0.65813   0.58307   0.00000  Uiso   1.00
C59    C     0.21675   0.66203   0.52902   0.00000  Uiso   1.00
C60    C     0.35771   0.57023   0.66796   0.00000  Uiso   1.00
C61    C     0.28364   0.48158   0.68373   0.00000  Uiso   1.00
C62    C     0.31831   0.37610   0.69375   0.00000  Uiso   1.00
C63    C     0.23777   0.30727   0.70764   0.00000  Uiso   1.00
C64    C     0.34740   0.67479   0.68893   0.00000  Uiso   1.00
C65    C     0.43569   0.73177   0.70332   0.00000  Uiso   1.00
C66    C     0.40884   0.82560   0.72159   0.00000  Uiso   1.00
C67    C     0.30183   0.59909   0.63591   0.00000  Uiso   1.00
C68    C     0.35181   0.59245   0.60572   0.00000  Uiso   1.00
C69    C     0.28660   0.62258   0.57934   0.00000  Uiso   1.00
H70    H     0.06647   0.66318   0.67771   0.00000  Uiso   1.00
H71    H     0.00582   0.47587   0.70421   0.00000  Uiso   1.00
H72    H     0.12319   0.83148   0.71378   0.00000  Uiso   1.00
H73    H     0.03932   0.69218   0.61619   0.00000  Uiso   1.00
H74    H     0.98762   0.25256   0.73196   0.00000  Uiso   1.00
H75    H     0.23509   0.00242   0.75212   0.00000  Uiso   1.00
H76    H     0.05825   0.70869   0.54634   0.00000  Uiso   1.00
H77    H     0.44427   0.54261   0.66506   0.00000  Uiso   1.00
H78    H     0.40435   0.34867   0.69087   0.00000  Uiso   1.00
H79    H     0.52171   0.70429   0.70044   0.00000  Uiso   1.00
H80    H     0.43785   0.56499   0.60285   0.00000  Uiso   1.00
H81    H     0.31109   0.14933   0.72113   0.00000  Uiso   1.00
H82    H     0.55856   0.89919   0.74130   0.00000  Uiso   1.00
H83    H     0.38171   0.60545   0.53551   0.00000  Uiso   1.00
O84    O     0.11629   0.07556   0.74376   0.00000  Uiso   1.00
O85    O     0.44096   0.05936   0.77021   0.00000  Uiso   1.00
O86    O     0.20894   0.67398   0.50023   0.00000  Uiso   1.00
N87    N     0.06922   0.25487   0.72586   0.00000  Uiso   1.00
N88    N     0.30059   0.95594   0.74472   0.00000  Uiso   1.00
N89    N     0.13526   0.68135   0.55233   0.00000  Uiso   1.00
N90    N     0.24328   0.19932   0.72004   0.00000  Uiso   1.00
N91    N     0.47464   0.90039   0.73889   0.00000  Uiso   1.00
N92    N     0.30931   0.62580   0.54650   0.00000  Uiso   1.00
C93    C     0.94625   0.35468   0.83461   0.00000  Uiso   1.00
C94    C     0.06693   0.35403   0.82246   0.00000  Uiso   1.00
C95    C     0.13532   0.44743   0.81908   0.00000  Uiso   1.00
C96    C     0.24312   0.42927   0.80756   0.00000  Uiso   1.00
C97    C     0.42473   0.44465   0.78987   0.00000  Uiso   1.00
C98    C     0.87644   0.29948   0.80818   0.00000  Uiso   1.00
C99    C     0.78465   0.34702   0.79279   0.00000  Uiso   1.00
C100   C     0.73209   0.28293   0.76926   0.00000  Uiso   1.00
C101   C     0.61790   0.21360   0.72942   0.00000  Uiso   1.00
C102   C     0.94322   0.27461   0.86329   0.00000  Uiso   1.00
C103   C     0.90755   0.30123   0.89425   0.00000  Uiso   1.00
C104   C     0.91118   0.21619   0.91711   0.00000  Uiso   1.00
C105   C     0.90068   0.10825   0.96284   0.00000  Uiso   1.00
C106   C     0.01608   0.15634   0.82017   0.00000  Uiso   1.00
C107   C     0.10486   0.24630   0.81462   0.00000  Uiso   1.00
C108   C     0.21259   0.22799   0.80311   0.00000  Uiso   1.00
C109   C     0.28113   0.32134   0.79971   0.00000  Uiso   1.00
C110   C     0.91437   0.19176   0.80034   0.00000  Uiso   1.00
C111   C     0.86192   0.12758   0.77682   0.00000  Uiso   1.00
C112   C     0.77009   0.17501   0.76140   0.00000  Uiso   1.00
C113   C     0.98115   0.16688   0.85545   0.00000  Uiso   1.00
C114   C     0.98483   0.08179   0.87828   0.00000  Uiso   1.00
C115   C     0.94918   0.10827   0.90926   0.00000  Uiso   1.00
H116   H     0.91671   0.43855   0.84071   0.00000  Uiso   1.00
H117   H     0.10593   0.53079   0.82514   0.00000  Uiso   1.00
H118   H     0.75531   0.43039   0.79887   0.00000  Uiso   1.00
H119   H     0.87820   0.38460   0.90030   0.00000  Uiso   1.00
H120   H     0.33243   0.58554   0.80442   0.00000  Uiso   1.00
H121   H     0.59311   0.37383   0.74902   0.00000  Uiso   1.00
H122   H     0.85224   0.27728   0.96292   0.00000  Uiso   1.00
H123   H     0.04562   0.07246   0.81407   0.00000  Uiso   1.00
H124   H     0.24192   0.14461   0.79704   0.00000  Uiso   1.00
H125   H     0.89130   0.04421   0.77076   0.00000  Uiso   1.00
H126   H     0.01419   0.99843   0.87220   0.00000  Uiso   1.00
H127   H     0.44281   0.27211   0.78161   0.00000  Uiso   1.00
H128   H     0.70348   0.06040   0.72621   0.00000  Uiso   1.00
H129   H     0.96262   0.96385   0.94011   0.00000  Uiso   1.00
O130   O     0.51442   0.48289   0.78228   0.00000  Uiso   1.00
O131   O     0.54444   0.20513   0.70961   0.00000  Uiso   1.00
O132   O     0.88443   0.07847   0.99024   0.00000  Uiso   1.00
N133   N     0.33148   0.50187   0.80139   0.00000  Uiso   1.00
N134   N     0.64027   0.30394   0.74959   0.00000  Uiso   1.00
N135   N     0.88251   0.21367   0.94957   0.00000  Uiso   1.00
N136   N     0.39087   0.33321   0.78912   0.00000  Uiso   1.00
N137   N     0.69966   0.13528   0.73732   0.00000  Uiso   1.00
N138   N     0.94190   0.04502   0.93730   0.00000  Uiso   1.00
C139   C     0.84698   0.36445   0.17481   0.00000  Uiso   1.00
C140   C     0.82754   0.48294   0.18745   0.00000  Uiso   1.00
C141   C     0.90815   0.55163   0.20133   0.00000  Uiso   1.00
C142   C     0.87361   0.65718   0.21137   0.00000  Uiso   1.00
C143   C     0.86033   0.83575   0.23158   0.00000  Uiso   1.00
C144   C     0.76378   0.28973   0.19265   0.00000  Uiso   1.00
C145   C     0.79077   0.19596   0.21090   0.00000  Uiso   1.00
C146   C     0.70254   0.13886   0.22532   0.00000  Uiso   1.00
C147   C     0.59026   0.01742   0.25359   0.00000  Uiso   1.00
C148   C     0.80935   0.36543   0.13963   0.00000  Uiso   1.00
C149   C     0.87465   0.33527   0.11330   0.00000  Uiso   1.00
C150   C     0.82478   0.34187   0.08307   0.00000  Uiso   1.00
C151   C     0.78325   0.33797   0.02902   0.00000  Uiso   1.00
C152   C     0.64229   0.42977   0.16796   0.00000  Uiso   1.00
C153   C     0.71636   0.51842   0.18373   0.00000  Uiso   1.00
C154   C     0.68169   0.62390   0.19375   0.00000  Uiso   1.00
C155   C     0.76223   0.69273   0.20764   0.00000  Uiso   1.00
C156   C     0.65260   0.32521   0.18893   0.00000  Uiso   1.00
C157   C     0.56431   0.26823   0.20332   0.00000  Uiso   1.00
C158   C     0.59116   0.17440   0.22159   0.00000  Uiso   1.00
C159   C     0.69817   0.40091   0.13591   0.00000  Uiso   1.00
C160   C     0.64819   0.40755   0.10572   0.00000  Uiso   1.00
C161   C     0.71340   0.37742   0.07934   0.00000  Uiso   1.00
H162   H     0.93353   0.33682   0.17771   0.00000  Uiso   1.00
H163   H     0.99418   0.52413   0.20421   0.00000  Uiso   1.00
H164   H     0.87681   0.16852   0.21378   0.00000  Uiso   1.00
H165   H     0.96068   0.30782   0.11619   0.00000  Uiso   1.00
H166   H     0.01238   0.74744   0.23196   0.00000  Uiso   1.00
H167   H     0.76491   0.99758   0.25212   0.00000  Uiso   1.00
H168   H     0.94175   0.29131   0.04634   0.00000  Uiso   1.00
H169   H     0.55573   0.45739   0.16506   0.00000  Uiso   1.00
H170   H     0.59565   0.65133   0.19087   0.00000  Uiso   1.00
H171   H     0.47829   0.29571   0.20044   0.00000  Uiso   1.00
H172   H     0.56215   0.43501   0.10285   0.00000  Uiso   1.00
H173   H     0.68891   0.85067   0.22113   0.00000  Uiso   1.00
H174   H     0.44144   0.10081   0.24130   0.00000  Uiso   1.00
H175   H     0.61829   0.39455   0.03551   0.00000  Uiso   1.00
O176   O     0.88371   0.92444   0.24376   0.00000  Uiso   1.00
O177   O     0.55904   0.94064   0.27021   0.00000  Uiso   1.00
O178   O     0.79106   0.32602   0.00023   0.00000  Uiso   1.00
N179   N     0.93078   0.74513   0.22586   0.00000  Uiso   1.00
N180   N     0.69941   0.04406   0.24472   0.00000  Uiso   1.00
N181   N     0.86474   0.31865   0.05233   0.00000  Uiso   1.00
N182   N     0.75672   0.80068   0.22004   0.00000  Uiso   1.00
N183   N     0.52536   0.09961   0.23889   0.00000  Uiso   1.00
N184   N     0.69069   0.37420   0.04650   0.00000  Uiso   1.00
C185   C     0.35468   0.05375   0.08461   0.00000  Uiso   1.00
C186   C     0.35403   0.93307   0.07246   0.00000  Uiso   1.00
C187   C     0.44743   0.86468   0.06908   0.00000  Uiso   1.00
C188   C     0.42927   0.75688   0.05756   0.00000  Uiso   1.00
C189   C     0.44465   0.57527   0.03987   0.00000  Uiso   1.00
C190   C     0.29948   0.12356   0.05818   0.00000  Uiso   1.00
C191   C     0.34702   0.21535   0.04279   0.00000  Uiso   1.00
C192   C     0.28293   0.26791   0.01926   0.00000  Uiso   1.00
C193   C     0.21360   0.38210   0.97942   0.00000  Uiso   1.00
C194   C     0.27461   0.05678   0.11329   0.00000  Uiso   1.00
C195   C     0.30123   0.09245   0.14425   0.00000  Uiso   1.00
C196   C     0.21619   0.08882   0.16711   0.00000  Uiso   1.00
C197   C     0.10825   0.09932   0.21284   0.00000  Uiso   1.00
C198   C     0.15634   0.98392   0.07017   0.00000  Uiso   1.00
C199   C     0.24630   0.89514   0.06462   0.00000  Uiso   1.00
C200   C     0.22799   0.78741   0.05311   0.00000  Uiso   1.00
C201   C     0.32134   0.71887   0.04971   0.00000  Uiso   1.00
C202   C     0.19176   0.08563   0.05034   0.00000  Uiso   1.00
C203   C     0.12758   0.13808   0.02682   0.00000  Uiso   1.00
C204   C     0.17501   0.22991   0.01140   0.00000  Uiso   1.00
C205   C     0.16688   0.01885   0.10545   0.00000  Uiso   1.00
C206   C     0.08179   0.01517   0.12828   0.00000  Uiso   1.00
C207   C     0.10827   0.05082   0.15926   0.00000  Uiso   1.00
H208   H     0.43855   0.08329   0.09071   0.00000  Uiso   1.00
H209   H     0.53079   0.89407   0.07514   0.00000  Uiso   1.00
H210   H     0.43039   0.24469   0.04887   0.00000  Uiso   1.00
H211   H     0.38460   0.12180   0.15030   0.00000  Uiso   1.00
H212   H     0.58554   0.66757   0.05442   0.00000  Uiso   1.00
H213   H     0.37383   0.40689   0.99902   0.00000  Uiso   1.00
H214   H     0.27728   0.14776   0.21292   0.00000  Uiso   1.00
H215   H     0.07246   0.95438   0.06407   0.00000  Uiso   1.00
H216   H     0.14461   0.75808   0.04704   0.00000  Uiso   1.00
H217   H     0.04421   0.10870   0.02076   0.00000  Uiso   1.00
H218   H     0.99843   0.98581   0.12220   0.00000  Uiso   1.00
H219   H     0.27211   0.55719   0.03161   0.00000  Uiso   1.00
H220   H     0.06040   0.29652   0.97621   0.00000  Uiso   1.00
H221   H     0.96385   0.03738   0.19011   0.00000  Uiso   1.00
O222   O     0.48289   0.48558   0.03228   0.00000  Uiso   1.00
O223   O     0.20513   0.45556   0.95961   0.00000  Uiso   1.00
O224   O     0.07847   0.11557   0.24024   0.00000  Uiso   1.00
N225   N     0.50187   0.66852   0.05139   0.00000  Uiso   1.00
N226   N     0.30394   0.35973   0.99959   0.00000  Uiso   1.00
N227   N     0.21367   0.11749   0.19957   0.00000  Uiso   1.00
N228   N     0.33321   0.60913   0.03912   0.00000  Uiso   1.00
N229   N     0.13528   0.30034   0.98732   0.00000  Uiso   1.00
N230   N     0.04502   0.05810   0.18730   0.00000  Uiso   1.00
C231   C     0.36445   0.15302   0.42481   0.00000  Uiso   1.00
C232   C     0.48294   0.17246   0.43745   0.00000  Uiso   1.00
C233   C     0.55163   0.09185   0.45133   0.00000  Uiso   1.00
C234   C     0.65718   0.12639   0.46137   0.00000  Uiso   1.00
C235   C     0.83575   0.13967   0.48158   0.00000  Uiso   1.00
C236   C     0.28973   0.23622   0.44265   0.00000  Uiso   1.00
C237   C     0.19596   0.20923   0.46090   0.00000  Uiso   1.00
C238   C     0.13886   0.29746   0.47532   0.00000  Uiso   1.00
C239   C     0.01742   0.40974   0.50359   0.00000  Uiso   1.00
C240   C     0.36543   0.19065   0.38963   0.00000  Uiso   1.00
C241   C     0.33527   0.12535   0.36330   0.00000  Uiso   1.00
C242   C     0.34187   0.17522   0.33307   0.00000  Uiso   1.00
C243   C     0.33797   0.21675   0.27902   0.00000  Uiso   1.00
C244   C     0.42977   0.35771   0.41796   0.00000  Uiso   1.00
C245   C     0.51842   0.28364   0.43373   0.00000  Uiso   1.00
C246   C     0.62390   0.31831   0.44375   0.00000  Uiso   1.00
C247   C     0.69273   0.23777   0.45764   0.00000  Uiso   1.00
C248   C     0.32521   0.34740   0.43893   0.00000  Uiso   1.00
C249   C     0.26823   0.43569   0.45332   0.00000  Uiso   1.00
C250   C     0.17440   0.40884   0.47159   0.00000  Uiso   1.00
C251   C     0.40091   0.30183   0.38591   0.00000  Uiso   1.00
C252   C     0.40755   0.35181   0.35572   0.00000  Uiso   1.00
C253   C     0.37742   0.28660   0.32934   0.00000  Uiso   1.00
H254   H     0.33682   0.06647   0.42771   0.00000  Uiso   1.00
H255   H     0.52413   0.00582   0.45421   0.00000  Uiso   1.00
H256   H     0.16852   0.12319   0.46378   0.00000  Uiso   1.00
H257   H     0.30782   0.03932   0.36619   0.00000  Uiso   1.00
H258   H     0.74744   0.98762   0.48196   0.00000  Uiso   1.00
H259   H     0.99758   0.23509   0.50212   0.00000  Uiso   1.00
H260   H     0.29131   0.05825   0.29634   0.00000  Uiso   1.00
H261   H     0.45739   0.44427   0.41506   0.00000  Uiso   1.00
H262   H     0.65133   0.40435   0.44087   0.00000  Uiso   1.00
H263   H     0.29571   0.52171   0.45044   0.00000  Uiso   1.00
H264   H     0.43501   0.43785   0.35285   0.00000  Uiso   1.00
H265   H     0.85067   0.31109   0.47113   0.00000  Uiso   1.00
H266   H     0.10081   0.55856   0.49130   0.00000  Uiso   1.00
H267   H     0.39455   0.38171   0.28551   0.00000  Uiso   1.00
O268   O     0.92444   0.11629   0.49376   0.00000  Uiso   1.00
O269   O     0.94064   0.44096   0.52021   0.00000  Uiso   1.00
O270   O     0.32602   0.20894   0.25023   0.00000  Uiso   1.00
N271   N     0.74513   0.06922   0.47586   0.00000  Uiso   1.00
N272   N     0.04406   0.30059   0.49472   0.00000  Uiso   1.00
N273   N     0.31865   0.13526   0.30233   0.00000  Uiso   1.00
N274   N     0.80068   0.24328   0.47004   0.00000  Uiso   1.00
N275   N     0.09961   0.47464   0.48889   0.00000  Uiso   1.00
N276   N     0.37420   0.30931   0.29650   0.00000  Uiso   1.00
C277   C     0.64532   0.94625   0.58461   0.00000  Uiso   1.00
C278   C     0.64597   0.06693   0.57246   0.00000  Uiso   1.00
C279   C     0.55257   0.13532   0.56908   0.00000  Uiso   1.00
C280   C     0.57073   0.24312   0.55756   0.00000  Uiso   1.00
C281   C     0.55535   0.42473   0.53987   0.00000  Uiso   1.00
C282   C     0.70052   0.87644   0.55818   0.00000  Uiso   1.00
C283   C     0.65298   0.78465   0.54279   0.00000  Uiso   1.00
C284   C     0.71707   0.73209   0.51926   0.00000  Uiso   1.00
C285   C     0.78640   0.61790   0.47942   0.00000  Uiso   1.00
C286   C     0.72539   0.94322   0.61329   0.00000  Uiso   1.00
C287   C     0.69877   0.90755   0.64425   0.00000  Uiso   1.00
C288   C     0.78381   0.91118   0.66711   0.00000  Uiso   1.00
C289   C     0.89175   0.90068   0.71284   0.00000  Uiso   1.00
C290   C     0.84366   0.01608   0.57017   0.00000  Uiso   1.00
C291   C     0.75370   0.10486   0.56462   0.00000  Uiso   1.00
C292   C     0.77201   0.21259   0.55311   0.00000  Uiso   1.00
C293   C     0.67866   0.28113   0.54971   0.00000  Uiso   1.00
C294   C     0.80824   0.91437   0.55034   0.00000  Uiso   1.00
C295   C     0.87242   0.86192   0.52682   0.00000  Uiso   1.00
C296   C     0.82499   0.77009   0.51140   0.00000  Uiso   1.00
C297   C     0.83312   0.98115   0.60545   0.00000  Uiso   1.00
C298   C     0.91821   0.98483   0.62828   0.00000  Uiso   1.00
C299   C     0.89173   0.94918   0.65926   0.00000  Uiso   1.00
H300   H     0.56145   0.91671   0.59071   0.00000  Uiso   1.00
H301   H     0.46921   0.10593   0.57514   0.00000  Uiso   1.00
H302   H     0.56961   0.75531   0.54887   0.00000  Uiso   1.00
H303   H     0.61540   0.87820   0.65030   0.00000  Uiso   1.00
H304   H     0.41446   0.33243   0.55442   0.00000  Uiso   1.00
H305   H     0.62617   0.59311   0.49902   0.00000  Uiso   1.00
H306   H     0.72272   0.85224   0.71292   0.00000  Uiso   1.00
H307   H     0.92754   0.04562   0.56407   0.00000  Uiso   1.00
H308   H     0.85539   0.24192   0.54704   0.00000  Uiso   1.00
H309   H     0.95579   0.89130   0.52076   0.00000  Uiso   1.00
H310   H     0.00157   0.01419   0.62220   0.00000  Uiso   1.00
H311   H     0.72789   0.44281   0.53161   0.00000  Uiso   1.00
H312   H     0.93960   0.70348   0.47621   0.00000  Uiso   1.00
H313   H     0.03615   0.96262   0.69011   0.00000  Uiso   1.00
O314   O     0.51711   0.51442   0.53228   0.00000  Uiso   1.00
O315   O     0.79487   0.54444   0.45961   0.00000  Uiso   1.00
O316   O     0.92153   0.88443   0.74024   0.00000  Uiso   1.00
N317   N     0.49813   0.33148   0.55139   0.00000  Uiso   1.00
N318   N     0.69606   0.64027   0.49959   0.00000  Uiso   1.00
N319   N     0.78633   0.88251   0.69957   0.00000  Uiso   1.00
N320   N     0.66679   0.39087   0.53912   0.00000  Uiso   1.00
N321   N     0.86472   0.69966   0.48732   0.00000  Uiso   1.00
N322   N     0.95498   0.94190   0.68730   0.00000  Uiso   1.00
C323   C     0.63555   0.84698   0.92481   0.00000  Uiso   1.00
C324   C     0.51706   0.82754   0.93745   0.00000  Uiso   1.00
C325   C     0.44837   0.90815   0.95133   0.00000  Uiso   1.00
C326   C     0.34282   0.87361   0.96137   0.00000  Uiso   1.00
C327   C     0.16425   0.86033   0.98158   0.00000  Uiso   1.00
C328   C     0.71027   0.76378   0.94265   0.00000  Uiso   1.00
C329   C     0.80404   0.79077   0.96090   0.00000  Uiso   1.00
C330   C     0.86114   0.70254   0.97532   0.00000  Uiso   1.00
C331   C     0.98258   0.59026   0.00359   0.00000  Uiso   1.00
C332   C     0.63457   0.80935   0.88963   0.00000  Uiso   1.00
C333   C     0.66473   0.87465   0.86330   0.00000  Uiso   1.00
C334   C     0.65813   0.82478   0.83307   0.00000  Uiso   1.00
C335   C     0.66203   0.78325   0.77902   0.00000  Uiso   1.00
C336   C     0.57023   0.64229   0.91796   0.00000  Uiso   1.00
C337   C     0.48158   0.71636   0.93373   0.00000  Uiso   1.00
C338   C     0.37610   0.68169   0.94375   0.00000  Uiso   1.00
C339   C     0.30727   0.76223   0.95764   0.00000  Uiso   1.00
C340   C     0.67479   0.65260   0.93893   0.00000  Uiso   1.00
C341   C     0.73177   0.56431   0.95332   0.00000  Uiso   1.00
C342   C     0.82560   0.59116   0.97159   0.00000  Uiso   1.00
C343   C     0.59909   0.69817   0.88591   0.00000  Uiso   1.00
C344   C     0.59245   0.64819   0.85572   0.00000  Uiso   1.00
C345   C     0.62258   0.71340   0.82934   0.00000  Uiso   1.00
H346   H     0.66318   0.93353   0.92771   0.00000  Uiso   1.00
H347   H     0.47587   0.99418   0.95421   0.00000  Uiso   1.00
H348   H     0.83148   0.87681   0.96378   0.00000  Uiso   1.00
H349   H     0.69218   0.96068   0.86619   0.00000  Uiso   1.00
H350   H     0.25256   0.01238   0.98196   0.00000  Uiso   1.00
H351   H     0.00242   0.76491   0.00212   0.00000  Uiso   1.00
H352   H     0.70869   0.94175   0.79634   0.00000  Uiso   1.00
H353   H     0.54261   0.55573   0.91506   0.00000  Uiso   1.00
H354   H     0.34867   0.59565   0.94087   0.00000  Uiso   1.00
H355   H     0.70429   0.47829   0.95044   0.00000  Uiso   1.00
H356   H     0.56499   0.56215   0.85285   0.00000  Uiso   1.00
H357   H     0.14933   0.68891   0.97113   0.00000  Uiso   1.00
H358   H     0.89919   0.44144   0.99130   0.00000  Uiso   1.00
H359   H     0.60545   0.61829   0.78551   0.00000  Uiso   1.00
O360   O     0.07556   0.88371   0.99376   0.00000  Uiso   1.00
O361   O     0.05936   0.55904   0.02021   0.00000  Uiso   1.00
O362   O     0.67398   0.79106   0.75023   0.00000  Uiso   1.00
N363   N     0.25487   0.93078   0.97586   0.00000  Uiso   1.00
N364   N     0.95594   0.69941   0.99472   0.00000  Uiso   1.00
N365   N     0.68135   0.86474   0.80233   0.00000  Uiso   1.00
N366   N     0.19932   0.75672   0.97004   0.00000  Uiso   1.00
N367   N     0.90039   0.52536   0.98889   0.00000  Uiso   1.00
N368   N     0.62580   0.69069   0.79650   0.00000  Uiso   1.00
