data_job_01562
_audit_creation_date              2018-12-19
_audit_creation_method            'Materials Studio'
_symmetry_space_group_name_H-M    'P1'
_symmetry_Int_Tables_number       1
_symmetry_cell_setting            triclinic
loop_
_symmetry_equiv_pos_as_xyz
  x,y,z
_cell_length_a                    13.8945
_cell_length_b                    12.4372
_cell_length_c                    27.2573
_cell_angle_alpha                 90.0000
_cell_angle_beta                  90.0000
_cell_angle_gamma                 90.0000
loop_
_atom_site_label
_atom_site_type_symbol
_atom_site_fract_x
_atom_site_fract_y
_atom_site_fract_z
_atom_site_U_iso_or_equiv
_atom_site_adp_type
_atom_site_occupancy
C1     C     0.86513   0.44791   0.40164   0.00000  Uiso   1.00
C2     C     0.86975   0.33950   0.37561   0.00000  Uiso   1.00
C3     C     0.79142   0.27539   0.36368   0.00000  Uiso   1.00
C4     C     0.81072   0.17905   0.33991   0.00000  Uiso   1.00
C5     C     0.80356   0.01541   0.30124   0.00000  Uiso   1.00
C6     C     0.92876   0.43732   0.44697   0.00000  Uiso   1.00
C7     C     0.90005   0.45547   0.49503   0.00000  Uiso   1.00
C8     C     0.96904   0.44149   0.53132   0.00000  Uiso   1.00
C9     C     0.05352   0.42979   0.60344   0.00000  Uiso   1.00
C10    C     0.91581   0.52777   0.36796   0.00000  Uiso   1.00
C11    C     0.87623   0.62199   0.34961   0.00000  Uiso   1.00
C12    C     0.93433   0.68417   0.31939   0.00000  Uiso   1.00
C13    C     0.99870   0.81291   0.26884   0.00000  Uiso   1.00
C14    C     0.03869   0.39081   0.38064   0.00000  Uiso   1.00
C15    C     0.96402   0.30849   0.36421   0.00000  Uiso   1.00
C16    C     0.98345   0.21222   0.34044   0.00000  Uiso   1.00
C17    C     0.90516   0.14798   0.32848   0.00000  Uiso   1.00
C18    C     0.02303   0.40631   0.43556   0.00000  Uiso   1.00
C19    C     0.09208   0.39230   0.47180   0.00000  Uiso   1.00
C20    C     0.06348   0.41042   0.51990   0.00000  Uiso   1.00
C21    C     0.01009   0.49675   0.35656   0.00000  Uiso   1.00
C22    C     0.06826   0.55880   0.32637   0.00000  Uiso   1.00
C23    C     0.02877   0.65310   0.30797   0.00000  Uiso   1.00
H24    H     0.79173   0.47206   0.41053   0.00000  Uiso   1.00
H25    H     0.71848   0.29942   0.37252   0.00000  Uiso   1.00
H26    H     0.82710   0.47948   0.50384   0.00000  Uiso   1.00
H27    H     0.80328   0.64596   0.35844   0.00000  Uiso   1.00
H28    H     0.67883   0.09432   0.32536   0.00000  Uiso   1.00
H29    H     0.90787   0.47403   0.60227   0.00000  Uiso   1.00
H30    H     0.85765   0.82509   0.29566   0.00000  Uiso   1.00
H31    H     0.11209   0.36666   0.37177   0.00000  Uiso   1.00
H32    H     0.05641   0.18824   0.33162   0.00000  Uiso   1.00
H33    H     0.16503   0.36830   0.46295   0.00000  Uiso   1.00
H34    H     0.14121   0.53478   0.31755   0.00000  Uiso   1.00
H35    H     0.95311   0.00408   0.29217   0.00000  Uiso   1.00
H36    H     0.18215   0.38380   0.56908   0.00000  Uiso   1.00
H37    H     0.13192   0.73485   0.26248   0.00000  Uiso   1.00
O38    O     0.77357   0.93372   0.28307   0.00000  Uiso   1.00
O39    O     0.07406   0.43190   0.64637   0.00000  Uiso   1.00
O40    O     0.00816   0.89248   0.24410   0.00000  Uiso   1.00
N41    N     0.75103   0.09758   0.32305   0.00000  Uiso   1.00
N42    N     0.96516   0.45257   0.58194   0.00000  Uiso   1.00
N43    N     0.91821   0.78080   0.29530   0.00000  Uiso   1.00
N44    N     0.89861   0.04902   0.30519   0.00000  Uiso   1.00
N45    N     0.11274   0.40401   0.56409   0.00000  Uiso   1.00
N46    N     0.06580   0.73224   0.27744   0.00000  Uiso   1.00
C47    C     0.80082   0.03391   0.60202   0.00000  Uiso   1.00
C48    C     0.79707   0.92365   0.62642   0.00000  Uiso   1.00
C49    C     0.87536   0.85694   0.63496   0.00000  Uiso   1.00
C50    C     0.85693   0.75924   0.65774   0.00000  Uiso   1.00
C51    C     0.86531   0.59255   0.69352   0.00000  Uiso   1.00
C52    C     0.73193   0.02828   0.55854   0.00000  Uiso   1.00
C53    C     0.75545   0.04955   0.51002   0.00000  Uiso   1.00
C54    C     0.68218   0.03993   0.47566   0.00000  Uiso   1.00
C55    C     0.58940   0.03575   0.40606   0.00000  Uiso   1.00
C56    C     0.75563   0.11217   0.63840   0.00000  Uiso   1.00
C57    C     0.79906   0.20401   0.65701   0.00000  Uiso   1.00
C58    C     0.74573   0.26504   0.68988   0.00000  Uiso   1.00
C59    C     0.68976   0.39113   0.74427   0.00000  Uiso   1.00
C60    C     0.62888   0.97902   0.62728   0.00000  Uiso   1.00
C61    C     0.70368   0.89384   0.64014   0.00000  Uiso   1.00
C62    C     0.68513   0.79622   0.66291   0.00000  Uiso   1.00
C63    C     0.76338   0.72937   0.67149   0.00000  Uiso   1.00
C64    C     0.63854   0.99846   0.57226   0.00000  Uiso   1.00
C65    C     0.56521   0.98882   0.53797   0.00000  Uiso   1.00
C66    C     0.58862   0.01007   0.48940   0.00000  Uiso   1.00
C67    C     0.66223   0.08236   0.65212   0.00000  Uiso   1.00
C68    C     0.60883   0.14328   0.68496   0.00000  Uiso   1.00
C69    C     0.65217   0.23518   0.70362   0.00000  Uiso   1.00
H70    H     0.87352   0.05712   0.59133   0.00000  Uiso   1.00
H71    H     0.94762   0.88004   0.62433   0.00000  Uiso   1.00
H72    H     0.82772   0.07263   0.49941   0.00000  Uiso   1.00
H73    H     0.87133   0.22705   0.64638   0.00000  Uiso   1.00
H74    H     0.98858   0.67055   0.66696   0.00000  Uiso   1.00
H75    H     0.73576   0.07666   0.40355   0.00000  Uiso   1.00
H76    H     0.82771   0.40231   0.71347   0.00000  Uiso   1.00
H77    H     0.55616   0.95581   0.63796   0.00000  Uiso   1.00
H78    H     0.61285   0.77317   0.67353   0.00000  Uiso   1.00
H79    H     0.49295   0.96576   0.54860   0.00000  Uiso   1.00
H80    H     0.53656   0.12018   0.69557   0.00000  Uiso   1.00
H81    H     0.71687   0.58381   0.70688   0.00000  Uiso   1.00
H82    H     0.46404   0.98993   0.44348   0.00000  Uiso   1.00
H83    H     0.55600   0.31557   0.75339   0.00000  Uiso   1.00
O84    O     0.89573   0.50884   0.70946   0.00000  Uiso   1.00
O85    O     0.56404   0.04167   0.36389   0.00000  Uiso   1.00
O86    O     0.68468   0.46891   0.77049   0.00000  Uiso   1.00
N87    N     0.91686   0.67521   0.67148   0.00000  Uiso   1.00
N88    N     0.68049   0.05489   0.42521   0.00000  Uiso   1.00
N89    N     0.76645   0.35935   0.71495   0.00000  Uiso   1.00
N90    N     0.77065   0.62853   0.69296   0.00000  Uiso   1.00
N91    N     0.53428   0.00821   0.44670   0.00000  Uiso   1.00
N92    N     0.62024   0.31268   0.73643   0.00000  Uiso   1.00
C93    C     0.13487   0.55209   0.90164   0.00000  Uiso   1.00
C94    C     0.13025   0.66050   0.87561   0.00000  Uiso   1.00
C95    C     0.20858   0.72461   0.86368   0.00000  Uiso   1.00
C96    C     0.18928   0.82095   0.83991   0.00000  Uiso   1.00
C97    C     0.19644   0.98459   0.80124   0.00000  Uiso   1.00
C98    C     0.07124   0.56268   0.94697   0.00000  Uiso   1.00
C99    C     0.09995   0.54453   0.99503   0.00000  Uiso   1.00
C100   C     0.03096   0.55851   0.03132   0.00000  Uiso   1.00
C101   C     0.94648   0.57021   0.10344   0.00000  Uiso   1.00
C102   C     0.08419   0.47223   0.86796   0.00000  Uiso   1.00
C103   C     0.12377   0.37801   0.84961   0.00000  Uiso   1.00
C104   C     0.06567   0.31583   0.81939   0.00000  Uiso   1.00
C105   C     0.00130   0.18709   0.76884   0.00000  Uiso   1.00
C106   C     0.96131   0.60919   0.88064   0.00000  Uiso   1.00
C107   C     0.03598   0.69151   0.86421   0.00000  Uiso   1.00
C108   C     0.01655   0.78778   0.84044   0.00000  Uiso   1.00
C109   C     0.09484   0.85202   0.82848   0.00000  Uiso   1.00
C110   C     0.97697   0.59369   0.93556   0.00000  Uiso   1.00
C111   C     0.90792   0.60770   0.97180   0.00000  Uiso   1.00
C112   C     0.93652   0.58958   0.01990   0.00000  Uiso   1.00
C113   C     0.98991   0.50325   0.85656   0.00000  Uiso   1.00
C114   C     0.93174   0.44120   0.82637   0.00000  Uiso   1.00
C115   C     0.97123   0.34690   0.80797   0.00000  Uiso   1.00
H116   H     0.20827   0.52794   0.91053   0.00000  Uiso   1.00
H117   H     0.28152   0.70058   0.87252   0.00000  Uiso   1.00
H118   H     0.17290   0.52052   0.00384   0.00000  Uiso   1.00
H119   H     0.19672   0.35404   0.85844   0.00000  Uiso   1.00
H120   H     0.32117   0.90568   0.82536   0.00000  Uiso   1.00
H121   H     0.09213   0.52597   0.10227   0.00000  Uiso   1.00
H122   H     0.14235   0.17491   0.79566   0.00000  Uiso   1.00
H123   H     0.88791   0.63334   0.87177   0.00000  Uiso   1.00
H124   H     0.94359   0.81176   0.83162   0.00000  Uiso   1.00
H125   H     0.83497   0.63170   0.96295   0.00000  Uiso   1.00
H126   H     0.85879   0.46522   0.81755   0.00000  Uiso   1.00
H127   H     0.04689   0.99592   0.79217   0.00000  Uiso   1.00
H128   H     0.81785   0.61620   0.06908   0.00000  Uiso   1.00
H129   H     0.86808   0.26515   0.76248   0.00000  Uiso   1.00
O130   O     0.22643   0.06628   0.78307   0.00000  Uiso   1.00
O131   O     0.92594   0.56810   0.14637   0.00000  Uiso   1.00
O132   O     0.99184   0.10752   0.74410   0.00000  Uiso   1.00
N133   N     0.24897   0.90242   0.82305   0.00000  Uiso   1.00
N134   N     0.03484   0.54743   0.08194   0.00000  Uiso   1.00
N135   N     0.08179   0.21920   0.79530   0.00000  Uiso   1.00
N136   N     0.10139   0.95098   0.80519   0.00000  Uiso   1.00
N137   N     0.88726   0.59599   0.06409   0.00000  Uiso   1.00
N138   N     0.93420   0.26776   0.77744   0.00000  Uiso   1.00
C139   C     0.19918   0.96609   0.10202   0.00000  Uiso   1.00
C140   C     0.20293   0.07635   0.12642   0.00000  Uiso   1.00
C141   C     0.12464   0.14306   0.13496   0.00000  Uiso   1.00
C142   C     0.14307   0.24076   0.15774   0.00000  Uiso   1.00
C143   C     0.13469   0.40745   0.19352   0.00000  Uiso   1.00
C144   C     0.26807   0.97172   0.05854   0.00000  Uiso   1.00
C145   C     0.24455   0.95045   0.01002   0.00000  Uiso   1.00
C146   C     0.31782   0.96007   0.97566   0.00000  Uiso   1.00
C147   C     0.41060   0.96425   0.90606   0.00000  Uiso   1.00
C148   C     0.24437   0.88783   0.13840   0.00000  Uiso   1.00
C149   C     0.20094   0.79599   0.15701   0.00000  Uiso   1.00
C150   C     0.25427   0.73496   0.18988   0.00000  Uiso   1.00
C151   C     0.31024   0.60887   0.24427   0.00000  Uiso   1.00
C152   C     0.37112   0.02098   0.12728   0.00000  Uiso   1.00
C153   C     0.29632   0.10616   0.14014   0.00000  Uiso   1.00
C154   C     0.31487   0.20378   0.16291   0.00000  Uiso   1.00
C155   C     0.23662   0.27063   0.17149   0.00000  Uiso   1.00
C156   C     0.36146   0.00154   0.07226   0.00000  Uiso   1.00
C157   C     0.43479   0.01118   0.03797   0.00000  Uiso   1.00
C158   C     0.41138   0.98993   0.98940   0.00000  Uiso   1.00
C159   C     0.33777   0.91764   0.15212   0.00000  Uiso   1.00
C160   C     0.39117   0.85672   0.18496   0.00000  Uiso   1.00
C161   C     0.34783   0.76482   0.20362   0.00000  Uiso   1.00
H162   H     0.12648   0.94288   0.09133   0.00000  Uiso   1.00
H163   H     0.05238   0.11996   0.12433   0.00000  Uiso   1.00
H164   H     0.17228   0.92737   0.99941   0.00000  Uiso   1.00
H165   H     0.12867   0.77295   0.14638   0.00000  Uiso   1.00
H166   H     0.01142   0.32945   0.16696   0.00000  Uiso   1.00
H167   H     0.26424   0.92334   0.90355   0.00000  Uiso   1.00
H168   H     0.17229   0.59769   0.21347   0.00000  Uiso   1.00
H169   H     0.44384   0.04419   0.13796   0.00000  Uiso   1.00
H170   H     0.38715   0.22683   0.17353   0.00000  Uiso   1.00
H171   H     0.50705   0.03424   0.04860   0.00000  Uiso   1.00
H172   H     0.46344   0.87982   0.19557   0.00000  Uiso   1.00
H173   H     0.28313   0.41619   0.20688   0.00000  Uiso   1.00
H174   H     0.53596   0.01007   0.94348   0.00000  Uiso   1.00
H175   H     0.44400   0.68443   0.25339   0.00000  Uiso   1.00
O176   O     0.10427   0.49116   0.20946   0.00000  Uiso   1.00
O177   O     0.43596   0.95833   0.86389   0.00000  Uiso   1.00
O178   O     0.31532   0.53109   0.27049   0.00000  Uiso   1.00
N179   N     0.08314   0.32479   0.17148   0.00000  Uiso   1.00
N180   N     0.31951   0.94511   0.92521   0.00000  Uiso   1.00
N181   N     0.23355   0.64065   0.21495   0.00000  Uiso   1.00
N182   N     0.22935   0.37147   0.19296   0.00000  Uiso   1.00
N183   N     0.46572   0.99179   0.94670   0.00000  Uiso   1.00
N184   N     0.37976   0.68732   0.23643   0.00000  Uiso   1.00
C185   C     0.36513   0.55209   0.40164   0.00000  Uiso   1.00
C186   C     0.36975   0.66050   0.37561   0.00000  Uiso   1.00
C187   C     0.29142   0.72461   0.36368   0.00000  Uiso   1.00
C188   C     0.31072   0.82095   0.33991   0.00000  Uiso   1.00
C189   C     0.30356   0.98459   0.30124   0.00000  Uiso   1.00
C190   C     0.42876   0.56268   0.44697   0.00000  Uiso   1.00
C191   C     0.40005   0.54453   0.49503   0.00000  Uiso   1.00
C192   C     0.46904   0.55851   0.53132   0.00000  Uiso   1.00
C193   C     0.55352   0.57021   0.60344   0.00000  Uiso   1.00
C194   C     0.41581   0.47223   0.36796   0.00000  Uiso   1.00
C195   C     0.37623   0.37801   0.34961   0.00000  Uiso   1.00
C196   C     0.43433   0.31583   0.31939   0.00000  Uiso   1.00
C197   C     0.49870   0.18709   0.26884   0.00000  Uiso   1.00
C198   C     0.53869   0.60919   0.38064   0.00000  Uiso   1.00
C199   C     0.46402   0.69151   0.36421   0.00000  Uiso   1.00
C200   C     0.48345   0.78778   0.34044   0.00000  Uiso   1.00
C201   C     0.40516   0.85202   0.32848   0.00000  Uiso   1.00
C202   C     0.52303   0.59369   0.43556   0.00000  Uiso   1.00
C203   C     0.59208   0.60770   0.47180   0.00000  Uiso   1.00
C204   C     0.56348   0.58958   0.51990   0.00000  Uiso   1.00
C205   C     0.51009   0.50325   0.35656   0.00000  Uiso   1.00
C206   C     0.56826   0.44120   0.32637   0.00000  Uiso   1.00
C207   C     0.52877   0.34690   0.30797   0.00000  Uiso   1.00
H208   H     0.29173   0.52794   0.41053   0.00000  Uiso   1.00
H209   H     0.21848   0.70058   0.37252   0.00000  Uiso   1.00
H210   H     0.32710   0.52052   0.50384   0.00000  Uiso   1.00
H211   H     0.30328   0.35404   0.35844   0.00000  Uiso   1.00
H212   H     0.17883   0.90568   0.32536   0.00000  Uiso   1.00
H213   H     0.40787   0.52597   0.60227   0.00000  Uiso   1.00
H214   H     0.35765   0.17491   0.29566   0.00000  Uiso   1.00
H215   H     0.61209   0.63334   0.37177   0.00000  Uiso   1.00
H216   H     0.55641   0.81176   0.33162   0.00000  Uiso   1.00
H217   H     0.66503   0.63170   0.46295   0.00000  Uiso   1.00
H218   H     0.64121   0.46522   0.31755   0.00000  Uiso   1.00
H219   H     0.45311   0.99592   0.29217   0.00000  Uiso   1.00
H220   H     0.68215   0.61620   0.56908   0.00000  Uiso   1.00
H221   H     0.63192   0.26515   0.26248   0.00000  Uiso   1.00
O222   O     0.27357   0.06628   0.28307   0.00000  Uiso   1.00
O223   O     0.57406   0.56810   0.64637   0.00000  Uiso   1.00
O224   O     0.50816   0.10752   0.24410   0.00000  Uiso   1.00
N225   N     0.25103   0.90242   0.32305   0.00000  Uiso   1.00
N226   N     0.46516   0.54743   0.58194   0.00000  Uiso   1.00
N227   N     0.41821   0.21920   0.29530   0.00000  Uiso   1.00
N228   N     0.39861   0.95098   0.30519   0.00000  Uiso   1.00
N229   N     0.61274   0.59599   0.56409   0.00000  Uiso   1.00
N230   N     0.56580   0.26776   0.27744   0.00000  Uiso   1.00
C231   C     0.30082   0.96609   0.60202   0.00000  Uiso   1.00
C232   C     0.29707   0.07635   0.62642   0.00000  Uiso   1.00
C233   C     0.37536   0.14306   0.63496   0.00000  Uiso   1.00
C234   C     0.35693   0.24076   0.65774   0.00000  Uiso   1.00
C235   C     0.36531   0.40745   0.69352   0.00000  Uiso   1.00
C236   C     0.23193   0.97172   0.55854   0.00000  Uiso   1.00
C237   C     0.25545   0.95045   0.51002   0.00000  Uiso   1.00
C238   C     0.18218   0.96007   0.47566   0.00000  Uiso   1.00
C239   C     0.08940   0.96425   0.40606   0.00000  Uiso   1.00
C240   C     0.25563   0.88783   0.63840   0.00000  Uiso   1.00
C241   C     0.29906   0.79599   0.65701   0.00000  Uiso   1.00
C242   C     0.24573   0.73496   0.68988   0.00000  Uiso   1.00
C243   C     0.18976   0.60887   0.74427   0.00000  Uiso   1.00
C244   C     0.12888   0.02098   0.62728   0.00000  Uiso   1.00
C245   C     0.20368   0.10616   0.64014   0.00000  Uiso   1.00
C246   C     0.18513   0.20378   0.66291   0.00000  Uiso   1.00
C247   C     0.26338   0.27063   0.67149   0.00000  Uiso   1.00
C248   C     0.13854   0.00154   0.57226   0.00000  Uiso   1.00
C249   C     0.06521   0.01118   0.53797   0.00000  Uiso   1.00
C250   C     0.08862   0.98993   0.48940   0.00000  Uiso   1.00
C251   C     0.16223   0.91764   0.65212   0.00000  Uiso   1.00
C252   C     0.10883   0.85672   0.68496   0.00000  Uiso   1.00
C253   C     0.15217   0.76482   0.70362   0.00000  Uiso   1.00
H254   H     0.37352   0.94288   0.59133   0.00000  Uiso   1.00
H255   H     0.44762   0.11996   0.62433   0.00000  Uiso   1.00
H256   H     0.32772   0.92737   0.49941   0.00000  Uiso   1.00
H257   H     0.37133   0.77295   0.64638   0.00000  Uiso   1.00
H258   H     0.48858   0.32945   0.66696   0.00000  Uiso   1.00
H259   H     0.23576   0.92334   0.40355   0.00000  Uiso   1.00
H260   H     0.32771   0.59769   0.71347   0.00000  Uiso   1.00
H261   H     0.05616   0.04419   0.63796   0.00000  Uiso   1.00
H262   H     0.11285   0.22683   0.67353   0.00000  Uiso   1.00
H263   H     0.99295   0.03424   0.54860   0.00000  Uiso   1.00
H264   H     0.03656   0.87982   0.69557   0.00000  Uiso   1.00
H265   H     0.21687   0.41619   0.70688   0.00000  Uiso   1.00
H266   H     0.96404   0.01007   0.44348   0.00000  Uiso   1.00
H267   H     0.05600   0.68443   0.75339   0.00000  Uiso   1.00
O268   O     0.39573   0.49116   0.70946   0.00000  Uiso   1.00
O269   O     0.06404   0.95833   0.36389   0.00000  Uiso   1.00
O270   O     0.18468   0.53109   0.77049   0.00000  Uiso   1.00
N271   N     0.41686   0.32479   0.67148   0.00000  Uiso   1.00
N272   N     0.18049   0.94511   0.42521   0.00000  Uiso   1.00
N273   N     0.26645   0.64065   0.71495   0.00000  Uiso   1.00
N274   N     0.27065   0.37147   0.69296   0.00000  Uiso   1.00
N275   N     0.03428   0.99179   0.44670   0.00000  Uiso   1.00
N276   N     0.12024   0.68732   0.73643   0.00000  Uiso   1.00
C277   C     0.63487   0.44791   0.90164   0.00000  Uiso   1.00
C278   C     0.63025   0.33950   0.87561   0.00000  Uiso   1.00
C279   C     0.70858   0.27539   0.86368   0.00000  Uiso   1.00
C280   C     0.68928   0.17905   0.83991   0.00000  Uiso   1.00
C281   C     0.69644   0.01541   0.80124   0.00000  Uiso   1.00
C282   C     0.57124   0.43732   0.94697   0.00000  Uiso   1.00
C283   C     0.59995   0.45547   0.99503   0.00000  Uiso   1.00
C284   C     0.53096   0.44149   0.03132   0.00000  Uiso   1.00
C285   C     0.44648   0.42979   0.10344   0.00000  Uiso   1.00
C286   C     0.58419   0.52777   0.86796   0.00000  Uiso   1.00
C287   C     0.62377   0.62199   0.84961   0.00000  Uiso   1.00
C288   C     0.56567   0.68417   0.81939   0.00000  Uiso   1.00
C289   C     0.50130   0.81291   0.76884   0.00000  Uiso   1.00
C290   C     0.46131   0.39081   0.88064   0.00000  Uiso   1.00
C291   C     0.53598   0.30849   0.86421   0.00000  Uiso   1.00
C292   C     0.51655   0.21222   0.84044   0.00000  Uiso   1.00
C293   C     0.59484   0.14798   0.82848   0.00000  Uiso   1.00
C294   C     0.47697   0.40631   0.93556   0.00000  Uiso   1.00
C295   C     0.40792   0.39230   0.97180   0.00000  Uiso   1.00
C296   C     0.43652   0.41042   0.01990   0.00000  Uiso   1.00
C297   C     0.48991   0.49675   0.85656   0.00000  Uiso   1.00
C298   C     0.43174   0.55880   0.82637   0.00000  Uiso   1.00
C299   C     0.47123   0.65310   0.80797   0.00000  Uiso   1.00
H300   H     0.70827   0.47206   0.91053   0.00000  Uiso   1.00
H301   H     0.78152   0.29942   0.87252   0.00000  Uiso   1.00
H302   H     0.67290   0.47948   0.00384   0.00000  Uiso   1.00
H303   H     0.69672   0.64596   0.85844   0.00000  Uiso   1.00
H304   H     0.82117   0.09432   0.82536   0.00000  Uiso   1.00
H305   H     0.59213   0.47403   0.10227   0.00000  Uiso   1.00
H306   H     0.64235   0.82509   0.79566   0.00000  Uiso   1.00
H307   H     0.38791   0.36666   0.87177   0.00000  Uiso   1.00
H308   H     0.44359   0.18824   0.83162   0.00000  Uiso   1.00
H309   H     0.33497   0.36830   0.96295   0.00000  Uiso   1.00
H310   H     0.35879   0.53478   0.81755   0.00000  Uiso   1.00
H311   H     0.54689   0.00408   0.79217   0.00000  Uiso   1.00
H312   H     0.31785   0.38380   0.06908   0.00000  Uiso   1.00
H313   H     0.36808   0.73485   0.76248   0.00000  Uiso   1.00
O314   O     0.72643   0.93372   0.78307   0.00000  Uiso   1.00
O315   O     0.42594   0.43190   0.14637   0.00000  Uiso   1.00
O316   O     0.49184   0.89248   0.74410   0.00000  Uiso   1.00
N317   N     0.74897   0.09758   0.82305   0.00000  Uiso   1.00
N318   N     0.53484   0.45257   0.08194   0.00000  Uiso   1.00
N319   N     0.58179   0.78080   0.79530   0.00000  Uiso   1.00
N320   N     0.60139   0.04902   0.80519   0.00000  Uiso   1.00
N321   N     0.38726   0.40401   0.06409   0.00000  Uiso   1.00
N322   N     0.43420   0.73224   0.77744   0.00000  Uiso   1.00
C323   C     0.69918   0.03391   0.10202   0.00000  Uiso   1.00
C324   C     0.70293   0.92365   0.12642   0.00000  Uiso   1.00
C325   C     0.62464   0.85694   0.13496   0.00000  Uiso   1.00
C326   C     0.64307   0.75924   0.15774   0.00000  Uiso   1.00
C327   C     0.63469   0.59255   0.19352   0.00000  Uiso   1.00
C328   C     0.76807   0.02828   0.05854   0.00000  Uiso   1.00
C329   C     0.74455   0.04955   0.01002   0.00000  Uiso   1.00
C330   C     0.81782   0.03993   0.97566   0.00000  Uiso   1.00
C331   C     0.91060   0.03575   0.90606   0.00000  Uiso   1.00
C332   C     0.74437   0.11217   0.13840   0.00000  Uiso   1.00
C333   C     0.70094   0.20401   0.15701   0.00000  Uiso   1.00
C334   C     0.75427   0.26504   0.18988   0.00000  Uiso   1.00
C335   C     0.81024   0.39113   0.24427   0.00000  Uiso   1.00
C336   C     0.87112   0.97902   0.12728   0.00000  Uiso   1.00
C337   C     0.79632   0.89384   0.14014   0.00000  Uiso   1.00
C338   C     0.81487   0.79622   0.16291   0.00000  Uiso   1.00
C339   C     0.73662   0.72937   0.17149   0.00000  Uiso   1.00
C340   C     0.86146   0.99846   0.07226   0.00000  Uiso   1.00
C341   C     0.93479   0.98882   0.03797   0.00000  Uiso   1.00
C342   C     0.91138   0.01007   0.98940   0.00000  Uiso   1.00
C343   C     0.83777   0.08236   0.15212   0.00000  Uiso   1.00
C344   C     0.89117   0.14328   0.18496   0.00000  Uiso   1.00
C345   C     0.84783   0.23518   0.20362   0.00000  Uiso   1.00
H346   H     0.62648   0.05712   0.09133   0.00000  Uiso   1.00
H347   H     0.55238   0.88004   0.12433   0.00000  Uiso   1.00
H348   H     0.67228   0.07263   0.99941   0.00000  Uiso   1.00
H349   H     0.62867   0.22705   0.14638   0.00000  Uiso   1.00
H350   H     0.51142   0.67055   0.16696   0.00000  Uiso   1.00
H351   H     0.76424   0.07666   0.90355   0.00000  Uiso   1.00
H352   H     0.67229   0.40231   0.21347   0.00000  Uiso   1.00
H353   H     0.94384   0.95581   0.13796   0.00000  Uiso   1.00
H354   H     0.88715   0.77317   0.17353   0.00000  Uiso   1.00
H355   H     0.00705   0.96576   0.04860   0.00000  Uiso   1.00
H356   H     0.96344   0.12018   0.19557   0.00000  Uiso   1.00
H357   H     0.78313   0.58381   0.20688   0.00000  Uiso   1.00
H358   H     0.03596   0.98993   0.94348   0.00000  Uiso   1.00
H359   H     0.94400   0.31557   0.25339   0.00000  Uiso   1.00
O360   O     0.60427   0.50884   0.20946   0.00000  Uiso   1.00
O361   O     0.93596   0.04167   0.86389   0.00000  Uiso   1.00
O362   O     0.81532   0.46891   0.27049   0.00000  Uiso   1.00
N363   N     0.58314   0.67521   0.17148   0.00000  Uiso   1.00
N364   N     0.81951   0.05489   0.92521   0.00000  Uiso   1.00
N365   N     0.73355   0.35935   0.21495   0.00000  Uiso   1.00
N366   N     0.72935   0.62853   0.19296   0.00000  Uiso   1.00
N367   N     0.96572   0.00821   0.94670   0.00000  Uiso   1.00
N368   N     0.87976   0.31268   0.23643   0.00000  Uiso   1.00
