data_job_01827
_audit_creation_date              2018-12-19
_audit_creation_method            'Materials Studio'
_symmetry_space_group_name_H-M    'P1'
_symmetry_Int_Tables_number       1
_symmetry_cell_setting            triclinic
loop_
_symmetry_equiv_pos_as_xyz
  x,y,z
_cell_length_a                    40.0953
_cell_length_b                    19.9009
_cell_length_c                    24.0627
_cell_angle_alpha                 90.0000
_cell_angle_beta                  149.2576
_cell_angle_gamma                 90.0000
loop_
_atom_site_label
_atom_site_type_symbol
_atom_site_fract_x
_atom_site_fract_y
_atom_site_fract_z
_atom_site_U_iso_or_equiv
_atom_site_adp_type
_atom_site_occupancy
C1     C     0.55783   0.83134   0.62762   0.00000  Uiso   1.00
C2     C     0.57235   0.87607   0.59847   0.00000  Uiso   1.00
C3     C     0.52770   0.91699   0.50743   0.00000  Uiso   1.00
C4     C     0.55058   0.95402   0.49535   0.00000  Uiso   1.00
C5     C     0.56321   0.02403   0.43846   0.00000  Uiso   1.00
C6     C     0.57791   0.76046   0.63940   0.00000  Uiso   1.00
C7     C     0.53792   0.70419   0.58277   0.00000  Uiso   1.00
C8     C     0.56548   0.64390   0.60516   0.00000  Uiso   1.00
C9     C     0.58674   0.53442   0.61187   0.00000  Uiso   1.00
C10    C     0.60550   0.85266   0.74123   0.00000  Uiso   1.00
C11    C     0.58872   0.87390   0.77024   0.00000  Uiso   1.00
C12    C     0.63952   0.89122   0.87837   0.00000  Uiso   1.00
C13    C     0.70362   0.92490   0.04319   0.00000  Uiso   1.00
C14    C     0.67788   0.82432   0.76807   0.00000  Uiso   1.00
C15    C     0.63756   0.87226   0.67476   0.00000  Uiso   1.00
C16    C     0.66052   0.90923   0.66283   0.00000  Uiso   1.00
C17    C     0.61591   0.95021   0.57178   0.00000  Uiso   1.00
C18    C     0.64311   0.75665   0.71568   0.00000  Uiso   1.00
C19    C     0.67074   0.69643   0.73817   0.00000  Uiso   1.00
C20    C     0.63081   0.64008   0.68159   0.00000  Uiso   1.00
C21    C     0.67071   0.84886   0.81752   0.00000  Uiso   1.00
C22    C     0.72154   0.86614   0.92563   0.00000  Uiso   1.00
C23    C     0.70484   0.88740   0.95480   0.00000  Uiso   1.00
H24    H     0.50706   0.83430   0.56822   0.00000  Uiso   1.00
H25    H     0.47724   0.91992   0.44840   0.00000  Uiso   1.00
H26    H     0.48746   0.70715   0.52375   0.00000  Uiso   1.00
H27    H     0.53825   0.87684   0.71118   0.00000  Uiso   1.00
H28    H     0.47292   0.01315   0.34918   0.00000  Uiso   1.00
H29    H     0.49448   0.56451   0.50808   0.00000  Uiso   1.00
H30    H     0.60158   0.92233   0.90332   0.00000  Uiso   1.00
H31    H     0.72865   0.82136   0.82747   0.00000  Uiso   1.00
H32    H     0.71099   0.90628   0.72188   0.00000  Uiso   1.00
H33    H     0.72121   0.69350   0.79722   0.00000  Uiso   1.00
H34    H     0.77200   0.86319   0.98465   0.00000  Uiso   1.00
H35    H     0.66264   0.00207   0.57114   0.00000  Uiso   1.00
H36    H     0.68420   0.55343   0.73004   0.00000  Uiso   1.00
H37    H     0.79130   0.91125   0.12528   0.00000  Uiso   1.00
O38    O     0.55215   0.06369   0.38600   0.00000  Uiso   1.00
O39    O     0.58045   0.47509   0.59448   0.00000  Uiso   1.00
O40    O     0.72096   0.94454   0.11302   0.00000  Uiso   1.00
N41    N     0.52000   0.99890   0.41592   0.00000  Uiso   1.00
N42    N     0.54016   0.57945   0.56447   0.00000  Uiso   1.00
N43    N     0.64029   0.91396   0.93399   0.00000  Uiso   1.00
N44    N     0.62208   0.99294   0.53536   0.00000  Uiso   1.00
N45    N     0.64224   0.57349   0.68390   0.00000  Uiso   1.00
N46    N     0.74237   0.90800   0.05343   0.00000  Uiso   1.00
C47    C     0.05783   0.33134   0.62762   0.00000  Uiso   1.00
C48    C     0.07235   0.37607   0.59847   0.00000  Uiso   1.00
C49    C     0.02770   0.41699   0.50743   0.00000  Uiso   1.00
C50    C     0.05058   0.45402   0.49535   0.00000  Uiso   1.00
C51    C     0.06321   0.52403   0.43846   0.00000  Uiso   1.00
C52    C     0.07791   0.26046   0.63940   0.00000  Uiso   1.00
C53    C     0.03792   0.20419   0.58277   0.00000  Uiso   1.00
C54    C     0.06548   0.14390   0.60516   0.00000  Uiso   1.00
C55    C     0.08674   0.03442   0.61187   0.00000  Uiso   1.00
C56    C     0.10550   0.35266   0.74123   0.00000  Uiso   1.00
C57    C     0.08872   0.37390   0.77024   0.00000  Uiso   1.00
C58    C     0.13952   0.39122   0.87837   0.00000  Uiso   1.00
C59    C     0.20362   0.42490   0.04319   0.00000  Uiso   1.00
C60    C     0.17788   0.32432   0.76807   0.00000  Uiso   1.00
C61    C     0.13756   0.37226   0.67476   0.00000  Uiso   1.00
C62    C     0.16052   0.40923   0.66283   0.00000  Uiso   1.00
C63    C     0.11591   0.45021   0.57178   0.00000  Uiso   1.00
C64    C     0.14311   0.25665   0.71568   0.00000  Uiso   1.00
C65    C     0.17074   0.19643   0.73817   0.00000  Uiso   1.00
C66    C     0.13081   0.14008   0.68159   0.00000  Uiso   1.00
C67    C     0.17071   0.34886   0.81752   0.00000  Uiso   1.00
C68    C     0.22154   0.36614   0.92563   0.00000  Uiso   1.00
C69    C     0.20484   0.38740   0.95480   0.00000  Uiso   1.00
H70    H     0.00706   0.33430   0.56822   0.00000  Uiso   1.00
H71    H     0.97724   0.41992   0.44840   0.00000  Uiso   1.00
H72    H     0.98746   0.20715   0.52375   0.00000  Uiso   1.00
H73    H     0.03825   0.37684   0.71118   0.00000  Uiso   1.00
H74    H     0.97292   0.51315   0.34918   0.00000  Uiso   1.00
H75    H     0.99448   0.06451   0.50808   0.00000  Uiso   1.00
H76    H     0.10158   0.42233   0.90332   0.00000  Uiso   1.00
H77    H     0.22865   0.32136   0.82747   0.00000  Uiso   1.00
H78    H     0.21099   0.40628   0.72188   0.00000  Uiso   1.00
H79    H     0.22121   0.19350   0.79722   0.00000  Uiso   1.00
H80    H     0.27200   0.36319   0.98465   0.00000  Uiso   1.00
H81    H     0.16264   0.50207   0.57114   0.00000  Uiso   1.00
H82    H     0.18420   0.05343   0.73004   0.00000  Uiso   1.00
H83    H     0.29130   0.41125   0.12528   0.00000  Uiso   1.00
O84    O     0.05215   0.56369   0.38600   0.00000  Uiso   1.00
O85    O     0.08045   0.97509   0.59448   0.00000  Uiso   1.00
O86    O     0.22096   0.44454   0.11302   0.00000  Uiso   1.00
N87    N     0.02000   0.49890   0.41592   0.00000  Uiso   1.00
N88    N     0.04016   0.07945   0.56447   0.00000  Uiso   1.00
N89    N     0.14029   0.41396   0.93399   0.00000  Uiso   1.00
N90    N     0.12208   0.49294   0.53536   0.00000  Uiso   1.00
N91    N     0.14224   0.07349   0.68390   0.00000  Uiso   1.00
N92    N     0.24237   0.40800   0.05343   0.00000  Uiso   1.00
C93    C     0.44217   0.83134   0.87238   0.00000  Uiso   1.00
C94    C     0.42765   0.87607   0.90153   0.00000  Uiso   1.00
C95    C     0.47230   0.91699   0.99257   0.00000  Uiso   1.00
C96    C     0.44942   0.95402   0.00465   0.00000  Uiso   1.00
C97    C     0.43679   0.02403   0.06154   0.00000  Uiso   1.00
C98    C     0.42209   0.76046   0.86060   0.00000  Uiso   1.00
C99    C     0.46208   0.70419   0.91723   0.00000  Uiso   1.00
C100   C     0.43452   0.64390   0.89484   0.00000  Uiso   1.00
C101   C     0.41326   0.53442   0.88813   0.00000  Uiso   1.00
C102   C     0.39450   0.85266   0.75877   0.00000  Uiso   1.00
C103   C     0.41128   0.87390   0.72976   0.00000  Uiso   1.00
C104   C     0.36048   0.89122   0.62163   0.00000  Uiso   1.00
C105   C     0.29638   0.92490   0.45681   0.00000  Uiso   1.00
C106   C     0.32212   0.82432   0.73193   0.00000  Uiso   1.00
C107   C     0.36244   0.87226   0.82524   0.00000  Uiso   1.00
C108   C     0.33948   0.90923   0.83717   0.00000  Uiso   1.00
C109   C     0.38409   0.95021   0.92822   0.00000  Uiso   1.00
C110   C     0.35689   0.75665   0.78432   0.00000  Uiso   1.00
C111   C     0.32926   0.69643   0.76183   0.00000  Uiso   1.00
C112   C     0.36919   0.64008   0.81841   0.00000  Uiso   1.00
C113   C     0.32929   0.84886   0.68248   0.00000  Uiso   1.00
C114   C     0.27846   0.86614   0.57437   0.00000  Uiso   1.00
C115   C     0.29516   0.88740   0.54520   0.00000  Uiso   1.00
H116   H     0.49294   0.83430   0.93178   0.00000  Uiso   1.00
H117   H     0.52276   0.91992   0.05160   0.00000  Uiso   1.00
H118   H     0.51254   0.70715   0.97625   0.00000  Uiso   1.00
H119   H     0.46175   0.87684   0.78882   0.00000  Uiso   1.00
H120   H     0.52708   0.01315   0.15082   0.00000  Uiso   1.00
H121   H     0.50552   0.56451   0.99192   0.00000  Uiso   1.00
H122   H     0.39842   0.92233   0.59668   0.00000  Uiso   1.00
H123   H     0.27135   0.82136   0.67253   0.00000  Uiso   1.00
H124   H     0.28901   0.90628   0.77812   0.00000  Uiso   1.00
H125   H     0.27879   0.69350   0.70278   0.00000  Uiso   1.00
H126   H     0.22800   0.86319   0.51535   0.00000  Uiso   1.00
H127   H     0.33736   0.00207   0.92886   0.00000  Uiso   1.00
H128   H     0.31580   0.55343   0.76996   0.00000  Uiso   1.00
H129   H     0.20870   0.91125   0.37472   0.00000  Uiso   1.00
O130   O     0.44785   0.06369   0.11400   0.00000  Uiso   1.00
O131   O     0.41955   0.47509   0.90552   0.00000  Uiso   1.00
O132   O     0.27904   0.94454   0.38698   0.00000  Uiso   1.00
N133   N     0.48000   0.99890   0.08408   0.00000  Uiso   1.00
N134   N     0.45984   0.57945   0.93553   0.00000  Uiso   1.00
N135   N     0.35971   0.91396   0.56601   0.00000  Uiso   1.00
N136   N     0.37792   0.99294   0.96464   0.00000  Uiso   1.00
N137   N     0.35776   0.57349   0.81610   0.00000  Uiso   1.00
N138   N     0.25763   0.90800   0.44657   0.00000  Uiso   1.00
C139   C     0.94217   0.33134   0.87238   0.00000  Uiso   1.00
C140   C     0.92765   0.37607   0.90153   0.00000  Uiso   1.00
C141   C     0.97230   0.41699   0.99257   0.00000  Uiso   1.00
C142   C     0.94942   0.45402   0.00465   0.00000  Uiso   1.00
C143   C     0.93679   0.52403   0.06154   0.00000  Uiso   1.00
C144   C     0.92209   0.26046   0.86060   0.00000  Uiso   1.00
C145   C     0.96208   0.20419   0.91723   0.00000  Uiso   1.00
C146   C     0.93452   0.14390   0.89484   0.00000  Uiso   1.00
C147   C     0.91326   0.03442   0.88813   0.00000  Uiso   1.00
C148   C     0.89450   0.35266   0.75877   0.00000  Uiso   1.00
C149   C     0.91128   0.37390   0.72976   0.00000  Uiso   1.00
C150   C     0.86048   0.39122   0.62163   0.00000  Uiso   1.00
C151   C     0.79638   0.42490   0.45681   0.00000  Uiso   1.00
C152   C     0.82212   0.32432   0.73193   0.00000  Uiso   1.00
C153   C     0.86244   0.37226   0.82524   0.00000  Uiso   1.00
C154   C     0.83948   0.40923   0.83717   0.00000  Uiso   1.00
C155   C     0.88409   0.45021   0.92822   0.00000  Uiso   1.00
C156   C     0.85689   0.25665   0.78432   0.00000  Uiso   1.00
C157   C     0.82926   0.19643   0.76183   0.00000  Uiso   1.00
C158   C     0.86919   0.14008   0.81841   0.00000  Uiso   1.00
C159   C     0.82929   0.34886   0.68248   0.00000  Uiso   1.00
C160   C     0.77846   0.36614   0.57437   0.00000  Uiso   1.00
C161   C     0.79516   0.38740   0.54520   0.00000  Uiso   1.00
H162   H     0.99294   0.33430   0.93178   0.00000  Uiso   1.00
H163   H     0.02276   0.41992   0.05160   0.00000  Uiso   1.00
H164   H     0.01254   0.20715   0.97625   0.00000  Uiso   1.00
H165   H     0.96175   0.37684   0.78882   0.00000  Uiso   1.00
H166   H     0.02708   0.51315   0.15082   0.00000  Uiso   1.00
H167   H     0.00552   0.06451   0.99192   0.00000  Uiso   1.00
H168   H     0.89842   0.42233   0.59668   0.00000  Uiso   1.00
H169   H     0.77135   0.32136   0.67253   0.00000  Uiso   1.00
H170   H     0.78901   0.40628   0.77812   0.00000  Uiso   1.00
H171   H     0.77879   0.19350   0.70278   0.00000  Uiso   1.00
H172   H     0.72800   0.36319   0.51535   0.00000  Uiso   1.00
H173   H     0.83736   0.50207   0.92886   0.00000  Uiso   1.00
H174   H     0.81580   0.05343   0.76996   0.00000  Uiso   1.00
H175   H     0.70870   0.41125   0.37472   0.00000  Uiso   1.00
O176   O     0.94785   0.56369   0.11400   0.00000  Uiso   1.00
O177   O     0.91955   0.97509   0.90552   0.00000  Uiso   1.00
O178   O     0.77904   0.44454   0.38698   0.00000  Uiso   1.00
N179   N     0.98000   0.49890   0.08408   0.00000  Uiso   1.00
N180   N     0.95984   0.07945   0.93553   0.00000  Uiso   1.00
N181   N     0.85971   0.41396   0.56601   0.00000  Uiso   1.00
N182   N     0.87792   0.49294   0.96464   0.00000  Uiso   1.00
N183   N     0.85776   0.07349   0.81610   0.00000  Uiso   1.00
N184   N     0.75763   0.40800   0.44657   0.00000  Uiso   1.00
C185   C     0.44217   0.16866   0.37238   0.00000  Uiso   1.00
C186   C     0.42765   0.12393   0.40153   0.00000  Uiso   1.00
C187   C     0.47230   0.08301   0.49257   0.00000  Uiso   1.00
C188   C     0.44942   0.04598   0.50465   0.00000  Uiso   1.00
C189   C     0.43679   0.97597   0.56154   0.00000  Uiso   1.00
C190   C     0.42209   0.23954   0.36060   0.00000  Uiso   1.00
C191   C     0.46208   0.29581   0.41723   0.00000  Uiso   1.00
C192   C     0.43452   0.35610   0.39484   0.00000  Uiso   1.00
C193   C     0.41326   0.46558   0.38813   0.00000  Uiso   1.00
C194   C     0.39450   0.14734   0.25877   0.00000  Uiso   1.00
C195   C     0.41128   0.12610   0.22976   0.00000  Uiso   1.00
C196   C     0.36048   0.10878   0.12163   0.00000  Uiso   1.00
C197   C     0.29638   0.07510   0.95681   0.00000  Uiso   1.00
C198   C     0.32212   0.17568   0.23193   0.00000  Uiso   1.00
C199   C     0.36244   0.12774   0.32524   0.00000  Uiso   1.00
C200   C     0.33948   0.09077   0.33717   0.00000  Uiso   1.00
C201   C     0.38409   0.04979   0.42822   0.00000  Uiso   1.00
C202   C     0.35689   0.24335   0.28432   0.00000  Uiso   1.00
C203   C     0.32926   0.30357   0.26183   0.00000  Uiso   1.00
C204   C     0.36919   0.35992   0.31841   0.00000  Uiso   1.00
C205   C     0.32929   0.15114   0.18248   0.00000  Uiso   1.00
C206   C     0.27846   0.13386   0.07437   0.00000  Uiso   1.00
C207   C     0.29516   0.11260   0.04520   0.00000  Uiso   1.00
H208   H     0.49294   0.16570   0.43178   0.00000  Uiso   1.00
H209   H     0.52276   0.08008   0.55160   0.00000  Uiso   1.00
H210   H     0.51254   0.29285   0.47625   0.00000  Uiso   1.00
H211   H     0.46175   0.12316   0.28882   0.00000  Uiso   1.00
H212   H     0.52708   0.98685   0.65082   0.00000  Uiso   1.00
H213   H     0.50552   0.43549   0.49192   0.00000  Uiso   1.00
H214   H     0.39842   0.07767   0.09668   0.00000  Uiso   1.00
H215   H     0.27135   0.17864   0.17253   0.00000  Uiso   1.00
H216   H     0.28901   0.09372   0.27812   0.00000  Uiso   1.00
H217   H     0.27879   0.30650   0.20278   0.00000  Uiso   1.00
H218   H     0.22800   0.13681   0.01535   0.00000  Uiso   1.00
H219   H     0.33736   0.99793   0.42886   0.00000  Uiso   1.00
H220   H     0.31580   0.44657   0.26996   0.00000  Uiso   1.00
H221   H     0.20870   0.08875   0.87472   0.00000  Uiso   1.00
O222   O     0.44785   0.93631   0.61400   0.00000  Uiso   1.00
O223   O     0.41955   0.52491   0.40552   0.00000  Uiso   1.00
O224   O     0.27904   0.05546   0.88698   0.00000  Uiso   1.00
N225   N     0.48000   0.00110   0.58408   0.00000  Uiso   1.00
N226   N     0.45984   0.42055   0.43553   0.00000  Uiso   1.00
N227   N     0.35971   0.08604   0.06601   0.00000  Uiso   1.00
N228   N     0.37792   0.00706   0.46464   0.00000  Uiso   1.00
N229   N     0.35776   0.42651   0.31610   0.00000  Uiso   1.00
N230   N     0.25763   0.09200   0.94657   0.00000  Uiso   1.00
C231   C     0.94217   0.66866   0.37238   0.00000  Uiso   1.00
C232   C     0.92765   0.62393   0.40153   0.00000  Uiso   1.00
C233   C     0.97230   0.58301   0.49257   0.00000  Uiso   1.00
C234   C     0.94942   0.54598   0.50465   0.00000  Uiso   1.00
C235   C     0.93679   0.47597   0.56154   0.00000  Uiso   1.00
C236   C     0.92209   0.73954   0.36060   0.00000  Uiso   1.00
C237   C     0.96208   0.79581   0.41723   0.00000  Uiso   1.00
C238   C     0.93452   0.85610   0.39484   0.00000  Uiso   1.00
C239   C     0.91326   0.96558   0.38813   0.00000  Uiso   1.00
C240   C     0.89450   0.64734   0.25877   0.00000  Uiso   1.00
C241   C     0.91128   0.62610   0.22976   0.00000  Uiso   1.00
C242   C     0.86048   0.60878   0.12163   0.00000  Uiso   1.00
C243   C     0.79638   0.57510   0.95681   0.00000  Uiso   1.00
C244   C     0.82212   0.67568   0.23193   0.00000  Uiso   1.00
C245   C     0.86244   0.62774   0.32524   0.00000  Uiso   1.00
C246   C     0.83948   0.59077   0.33717   0.00000  Uiso   1.00
C247   C     0.88409   0.54979   0.42822   0.00000  Uiso   1.00
C248   C     0.85689   0.74335   0.28432   0.00000  Uiso   1.00
C249   C     0.82926   0.80357   0.26183   0.00000  Uiso   1.00
C250   C     0.86919   0.85992   0.31841   0.00000  Uiso   1.00
C251   C     0.82929   0.65114   0.18248   0.00000  Uiso   1.00
C252   C     0.77846   0.63386   0.07437   0.00000  Uiso   1.00
C253   C     0.79516   0.61260   0.04520   0.00000  Uiso   1.00
H254   H     0.99294   0.66570   0.43178   0.00000  Uiso   1.00
H255   H     0.02276   0.58008   0.55160   0.00000  Uiso   1.00
H256   H     0.01254   0.79285   0.47625   0.00000  Uiso   1.00
H257   H     0.96175   0.62316   0.28882   0.00000  Uiso   1.00
H258   H     0.02708   0.48685   0.65082   0.00000  Uiso   1.00
H259   H     0.00552   0.93549   0.49192   0.00000  Uiso   1.00
H260   H     0.89842   0.57767   0.09668   0.00000  Uiso   1.00
H261   H     0.77135   0.67864   0.17253   0.00000  Uiso   1.00
H262   H     0.78901   0.59372   0.27812   0.00000  Uiso   1.00
H263   H     0.77879   0.80650   0.20278   0.00000  Uiso   1.00
H264   H     0.72800   0.63681   0.01535   0.00000  Uiso   1.00
H265   H     0.83736   0.49793   0.42886   0.00000  Uiso   1.00
H266   H     0.81580   0.94657   0.26996   0.00000  Uiso   1.00
H267   H     0.70870   0.58875   0.87472   0.00000  Uiso   1.00
O268   O     0.94785   0.43631   0.61400   0.00000  Uiso   1.00
O269   O     0.91955   0.02491   0.40552   0.00000  Uiso   1.00
O270   O     0.77904   0.55546   0.88698   0.00000  Uiso   1.00
N271   N     0.98000   0.50110   0.58408   0.00000  Uiso   1.00
N272   N     0.95984   0.92055   0.43553   0.00000  Uiso   1.00
N273   N     0.85971   0.58604   0.06601   0.00000  Uiso   1.00
N274   N     0.87792   0.50706   0.46464   0.00000  Uiso   1.00
N275   N     0.85776   0.92651   0.31610   0.00000  Uiso   1.00
N276   N     0.75763   0.59200   0.94657   0.00000  Uiso   1.00
C277   C     0.55783   0.16866   0.12762   0.00000  Uiso   1.00
C278   C     0.57235   0.12393   0.09847   0.00000  Uiso   1.00
C279   C     0.52770   0.08301   0.00743   0.00000  Uiso   1.00
C280   C     0.55058   0.04598   0.99535   0.00000  Uiso   1.00
C281   C     0.56321   0.97597   0.93846   0.00000  Uiso   1.00
C282   C     0.57791   0.23954   0.13940   0.00000  Uiso   1.00
C283   C     0.53792   0.29581   0.08277   0.00000  Uiso   1.00
C284   C     0.56548   0.35610   0.10516   0.00000  Uiso   1.00
C285   C     0.58674   0.46558   0.11187   0.00000  Uiso   1.00
C286   C     0.60550   0.14734   0.24123   0.00000  Uiso   1.00
C287   C     0.58872   0.12610   0.27024   0.00000  Uiso   1.00
C288   C     0.63952   0.10878   0.37837   0.00000  Uiso   1.00
C289   C     0.70362   0.07510   0.54319   0.00000  Uiso   1.00
C290   C     0.67788   0.17568   0.26807   0.00000  Uiso   1.00
C291   C     0.63756   0.12774   0.17476   0.00000  Uiso   1.00
C292   C     0.66052   0.09077   0.16283   0.00000  Uiso   1.00
C293   C     0.61591   0.04979   0.07178   0.00000  Uiso   1.00
C294   C     0.64311   0.24335   0.21568   0.00000  Uiso   1.00
C295   C     0.67074   0.30357   0.23817   0.00000  Uiso   1.00
C296   C     0.63081   0.35992   0.18159   0.00000  Uiso   1.00
C297   C     0.67071   0.15114   0.31752   0.00000  Uiso   1.00
C298   C     0.72154   0.13386   0.42563   0.00000  Uiso   1.00
C299   C     0.70484   0.11260   0.45480   0.00000  Uiso   1.00
H300   H     0.50706   0.16570   0.06822   0.00000  Uiso   1.00
H301   H     0.47724   0.08008   0.94840   0.00000  Uiso   1.00
H302   H     0.48746   0.29285   0.02375   0.00000  Uiso   1.00
H303   H     0.53825   0.12316   0.21118   0.00000  Uiso   1.00
H304   H     0.47292   0.98685   0.84918   0.00000  Uiso   1.00
H305   H     0.49448   0.43549   0.00808   0.00000  Uiso   1.00
H306   H     0.60158   0.07767   0.40332   0.00000  Uiso   1.00
H307   H     0.72865   0.17864   0.32747   0.00000  Uiso   1.00
H308   H     0.71099   0.09372   0.22188   0.00000  Uiso   1.00
H309   H     0.72121   0.30650   0.29722   0.00000  Uiso   1.00
H310   H     0.77200   0.13681   0.48465   0.00000  Uiso   1.00
H311   H     0.66264   0.99793   0.07114   0.00000  Uiso   1.00
H312   H     0.68420   0.44657   0.23004   0.00000  Uiso   1.00
H313   H     0.79130   0.08875   0.62528   0.00000  Uiso   1.00
O314   O     0.55215   0.93631   0.88600   0.00000  Uiso   1.00
O315   O     0.58045   0.52491   0.09448   0.00000  Uiso   1.00
O316   O     0.72096   0.05546   0.61302   0.00000  Uiso   1.00
N317   N     0.52000   0.00110   0.91592   0.00000  Uiso   1.00
N318   N     0.54016   0.42055   0.06447   0.00000  Uiso   1.00
N319   N     0.64029   0.08604   0.43399   0.00000  Uiso   1.00
N320   N     0.62208   0.00706   0.03536   0.00000  Uiso   1.00
N321   N     0.64224   0.42651   0.18390   0.00000  Uiso   1.00
N322   N     0.74237   0.09200   0.55343   0.00000  Uiso   1.00
C323   C     0.05783   0.66866   0.12762   0.00000  Uiso   1.00
C324   C     0.07235   0.62393   0.09847   0.00000  Uiso   1.00
C325   C     0.02770   0.58301   0.00743   0.00000  Uiso   1.00
C326   C     0.05058   0.54598   0.99535   0.00000  Uiso   1.00
C327   C     0.06321   0.47597   0.93846   0.00000  Uiso   1.00
C328   C     0.07791   0.73954   0.13940   0.00000  Uiso   1.00
C329   C     0.03792   0.79581   0.08277   0.00000  Uiso   1.00
C330   C     0.06548   0.85610   0.10516   0.00000  Uiso   1.00
C331   C     0.08674   0.96558   0.11187   0.00000  Uiso   1.00
C332   C     0.10550   0.64734   0.24123   0.00000  Uiso   1.00
C333   C     0.08872   0.62610   0.27024   0.00000  Uiso   1.00
C334   C     0.13952   0.60878   0.37837   0.00000  Uiso   1.00
C335   C     0.20362   0.57510   0.54319   0.00000  Uiso   1.00
C336   C     0.17788   0.67568   0.26807   0.00000  Uiso   1.00
C337   C     0.13756   0.62774   0.17476   0.00000  Uiso   1.00
C338   C     0.16052   0.59077   0.16283   0.00000  Uiso   1.00
C339   C     0.11591   0.54979   0.07178   0.00000  Uiso   1.00
C340   C     0.14311   0.74335   0.21568   0.00000  Uiso   1.00
C341   C     0.17074   0.80357   0.23817   0.00000  Uiso   1.00
C342   C     0.13081   0.85992   0.18159   0.00000  Uiso   1.00
C343   C     0.17071   0.65114   0.31752   0.00000  Uiso   1.00
C344   C     0.22154   0.63386   0.42563   0.00000  Uiso   1.00
C345   C     0.20484   0.61260   0.45480   0.00000  Uiso   1.00
H346   H     0.00706   0.66570   0.06822   0.00000  Uiso   1.00
H347   H     0.97724   0.58008   0.94840   0.00000  Uiso   1.00
H348   H     0.98746   0.79285   0.02375   0.00000  Uiso   1.00
H349   H     0.03825   0.62316   0.21118   0.00000  Uiso   1.00
H350   H     0.97292   0.48685   0.84918   0.00000  Uiso   1.00
H351   H     0.99448   0.93549   0.00808   0.00000  Uiso   1.00
H352   H     0.10158   0.57767   0.40332   0.00000  Uiso   1.00
H353   H     0.22865   0.67864   0.32747   0.00000  Uiso   1.00
H354   H     0.21099   0.59372   0.22188   0.00000  Uiso   1.00
H355   H     0.22121   0.80650   0.29722   0.00000  Uiso   1.00
H356   H     0.27200   0.63681   0.48465   0.00000  Uiso   1.00
H357   H     0.16264   0.49793   0.07114   0.00000  Uiso   1.00
H358   H     0.18420   0.94657   0.23004   0.00000  Uiso   1.00
H359   H     0.29130   0.58875   0.62528   0.00000  Uiso   1.00
O360   O     0.05215   0.43631   0.88600   0.00000  Uiso   1.00
O361   O     0.08045   0.02491   0.09448   0.00000  Uiso   1.00
O362   O     0.22096   0.55546   0.61302   0.00000  Uiso   1.00
N363   N     0.02000   0.50110   0.91592   0.00000  Uiso   1.00
N364   N     0.04016   0.92055   0.06447   0.00000  Uiso   1.00
N365   N     0.14029   0.58604   0.43399   0.00000  Uiso   1.00
N366   N     0.12208   0.50706   0.03536   0.00000  Uiso   1.00
N367   N     0.14224   0.92651   0.18390   0.00000  Uiso   1.00
N368   N     0.24237   0.59200   0.55343   0.00000  Uiso   1.00
